data_mof_unit_44285.cif
_audit_creation_date              2012-12-10T18:37:59-0500
_audit_creation_method            fapswitch 2.2
_symmetry_space_group_name_H-M    P1
_symmetry_Int_Tables_number       1
_space_group_crystal_system       triclinic
_cell_length_a                    14.966522
_cell_length_b                    15.145468
_cell_length_c                    27.294036
_cell_angle_alpha                 90.471709
_cell_angle_beta                  103.344355
_cell_angle_gamma                 82.207319
_cell_volume                      5962.53347591

loop_
_atom_site_label
_atom_site_type_symbol
_atom_type_description
_atom_site_fract_x
_atom_site_fract_y
_atom_site_fract_z
_atom_type_partial_charge
C1    C     C_R   0.442064 0.663099 0.493688 0.862512
C2    C     C_R   0.557739 0.336568 0.506146 0.843013
C3    C     C_R   0.527161 0.385340 0.899025 -0.151481
C4    C     C_R   0.517905 0.425546 0.101980 -0.143542
C5    C     C_R   0.443845 0.378319 0.862828 -0.089165
C6    C     C_R   0.572058 0.486734 0.130399 -0.077868
C7    C     C_R   0.362409 0.367057 0.879564 0.044227
C8    C     C_R   0.633637 0.528668 0.108394 0.066907
C9    C     C_R   0.610992 0.388218 0.884235 -0.082076
C10   C     C_R   0.456607 0.381889 0.122958 -0.093994
C11   C     C_R   0.511909 0.475358 0.647406 -0.168808
C12   C     C_R   0.501320 0.490267 0.353267 -0.174391
C13   C     C_R   0.458176 0.363974 0.020011 -0.059362
C14   C     C_R   0.604807 0.414900 0.984836 -0.015269
C15   C     C_R   0.592103 0.443020 0.032541 -0.016005
C16   C     C_R   0.449501 0.371737 0.967295 -0.064911
C17   C     C_R   0.523702 0.409579 0.051909 -0.091923
C18   C     C_R   0.527487 0.389099 0.950360 -0.091917
C19   C     C_R   0.404612 0.312723 0.041517 0.534089
C20   C     C_R   0.691566 0.408532 0.971347 0.491795
C21   C     C_R   0.400200 0.323794 0.092384 0.034695
C22   C     C_R   0.694982 0.383847 0.921478 0.069502
C23   C     C_R   0.501680 0.497242 0.594087 0.942611
C24   C     C_R   0.499739 0.499192 0.406191 0.932689
C25   C     C_R   0.364819 0.369068 0.931683 0.526580
C26   C     C_R   0.636510 0.511670 0.057982 0.518776
C27   C     C_R   0.406253 0.757585 0.495400 -0.127235
C28   C     C_R   0.590433 0.241393 0.516937 -0.133242
C29   C     C_R   0.281186 0.881324 0.472891 0.227291
C30   C     C_R   0.708403 0.122188 0.558932 0.230798
C31   C     C_R   0.315476 0.790756 0.470964 -0.206072
C32   C     C_R   0.683056 0.209300 0.538312 -0.208797
C33   C     C_R   0.463671 0.814252 0.522709 -0.191224
C34   C     C_R   0.523767 0.184770 0.513063 -0.189219
C35   C     C_R   0.431800 0.904356 0.527084 0.000972
C36   C     C_R   0.543523 0.103091 0.538822 -0.002600
C37   C     C_R   0.339139 0.939555 0.502358 -0.034297
C38   C     C_R   0.637302 0.068980 0.561674 -0.042833
C39   C     C_R   0.494865 0.962010 0.550307 -0.178957
C40   C     C_R   0.471035 0.052513 0.539273 -0.185414
C41   C     C_R   0.375168 0.087887 0.529295 0.374061
C42   C     C_R   0.581684 0.933166 0.583796 0.381763
C43   C     C_R   0.308932 0.031213 0.508665 0.401912
C44   C     C_R   0.654563 0.985477 0.588045 0.412303
C45   C     C_R   0.445281 0.387873 0.811478 0.620595
C46   C     C_R   0.559017 0.506256 0.178938 0.529952
C47   C     C_R   0.847402 0.619150 0.587050 0.415179
C48   C     C_R   0.160119 0.361065 0.421812 0.411468
C49   C     C_R   0.757885 0.595546 0.571989 -0.217892
C50   C     C_R   0.246132 0.392359 0.432804 -0.198051
C51   C     C_R   0.790070 0.530669 0.497710 0.536805
C52   C     C_R   0.207881 0.476822 0.500039 0.540653
C53   C     C_R   0.885342 0.536706 0.515668 -0.232977
C54   C     C_R   0.113082 0.466638 0.482728 -0.228951
C55   C     C_R   0.911350 0.593682 0.556596 -0.019007
C56   C     C_R   0.090299 0.400355 0.446114 -0.014156
C57   C     C_R   0.953832 0.490155 0.493150 0.050498
C58   C     C_R   0.043133 0.515322 0.503666 0.075764
C59   C     C_R   0.059224 0.590245 0.533857 -0.190465
C60   C     C_R   0.935853 0.416416 0.462532 -0.219761
C61   C     C_R   0.998416 0.624864 0.563496 0.187153
C62   C     C_R   0.000761 0.373296 0.437650 0.202732
C63   C     C_R   0.607595 0.397853 0.832813 0.511633
C64   C     C_R   0.456415 0.397070 0.174115 0.617567
C65   C     C_R   0.562021 0.365052 0.716518 0.185629
C66   C     C_R   0.450230 0.545432 0.266432 0.186558
C67   C     C_R   0.561429 0.391765 0.667097 0.079538
C68   C     C_R   0.451271 0.557158 0.317951 0.090717
C69   C     C_R   0.470386 0.535481 0.677882 -0.023726
C70   C     C_R   0.551828 0.413437 0.338346 -0.002345
C71   C     C_R   0.479238 0.511736 0.728830 0.483520
C72   C     C_R   0.560355 0.407926 0.288153 0.489383
C73   C     C_R   0.521254 0.425722 0.747064 0.128368
C74   C     C_R   0.505831 0.471062 0.252203 0.129096
H1    H     H_    0.454318 0.206780 0.491334 0.202795
H2    H     H_    0.535007 0.787791 0.539273 0.208552
H3    H     H_    0.735343 0.252926 0.539959 0.159689
H4    H     H_    0.271959 0.745938 0.449085 0.158383
H5    H     H_    0.298061 0.368609 0.412354 0.173285
H6    H     H_    0.707460 0.614386 0.594140 0.183863
H7    H     H_    0.120157 0.621935 0.535407 0.190728
H8    H     H_    0.870914 0.390252 0.458521 0.187932
N1    N     N_R   0.525042 0.401768 0.798312 -0.320987
N2    N     N_R   0.507049 0.457840 0.200289 -0.319142
N3    N     N_R   0.731710 0.552720 0.528410 -0.148246
N4    N     N_R   0.268290 0.447280 0.471590 -0.149711
O1    O     O_R   0.383110 0.605620 0.485680 -0.591444
O2    O     O_R   0.616890 0.394380 0.514320 -0.602908
O3    O     O_R   0.531900 0.639510 0.503910 -0.612224
O4    O     O_R   0.468100 0.360490 0.496090 -0.619379
O5    O     O_R   0.425620 0.483050 0.562130 -0.570758
O6    O     O_R   0.574380 0.516950 0.437870 -0.558822
O7    O     O_R   0.574410 0.516930 0.580360 -0.628424
O8    O     O_R   0.425590 0.483070 0.419640 -0.620067
O9    O     O_2   0.368045 0.386371 0.774691 -0.579144
O10   O     O_2   0.595762 0.574018 0.204757 -0.612255
O11   O     O_2   0.406413 0.352517 0.198133 -0.560430
O12   O     O_2   0.684701 0.409270 0.817273 -0.583598
Zn1   Zn    Zn3+2 0.400660 0.477380 0.487830 0.963232
Zn2   Zn    Zn3+2 0.599340 0.522620 0.512170 0.960172
C75   C     C_3   0.416351 0.623510 0.655534 -0.915830
H9    H     H_    0.379381 0.660831 0.681712 0.262871
H10   H     H_    0.464205 0.665649 0.644752 0.232483
H11   H     H_    0.362958 0.612096 0.621336 0.266572
C76   C     C_3   0.592389 0.336559 0.375537 -0.849579
H12   H     H_    0.619565 0.276149 0.357492 0.260054
H13   H     H_    0.649471 0.356631 0.405442 0.249848
H14   H     H_    0.537716 0.317181 0.393083 0.227571
C77   C     C_3   0.186023 0.912649 0.440169 -0.835958
H15   H     H_    0.157567 0.858794 0.416111 0.209700
H16   H     H_    0.136011 0.934645 0.463467 0.253501
H17   H     H_    0.189688 0.967584 0.414376 0.254597
C78   C     C_3   0.810809 0.089939 0.576866 -0.838795
H18   H     H_    0.853737 0.137480 0.566062 0.204098
H19   H     H_    0.830597 0.082822 0.618476 0.253411
H20   H     H_    0.828734 0.025553 0.559333 0.267540
O13   O     O_3   0.344301 0.176690 0.537215 -0.665363
C79   C     C_3   0.384981 0.204198 0.586462 0.081098
H21   H     H_    0.402052 0.272400 0.582695 0.171314
H22   H     H_    0.450796 0.162971 0.605756 0.137768
C80   C     C_3   0.317101 0.206736 0.620828 -0.449209
H23   H     H_    0.252342 0.251437 0.603910 0.214163
H24   H     H_    0.300183 0.138581 0.625149 0.227751
C81   C     C_3   0.358245 0.239807 0.673050 -0.883049
H25   H     H_    0.419427 0.192513 0.692137 0.257897
H26   H     H_    0.305890 0.244006 0.696213 0.276863
H27   H     H_    0.378957 0.306946 0.670355 0.275668
O14   O     O_3   0.592350 0.861294 0.617059 -0.656642
C82   C     C_3   0.521748 0.874407 0.644601 0.070728
H28   H     H_    0.461327 0.842316 0.624815 0.164237
H29   H     H_    0.497466 0.946564 0.649111 0.126244
C83   C     C_3   0.556500 0.832651 0.697394 -0.358010
H30   H     H_    0.573832 0.759468 0.694786 0.220092
H31   H     H_    0.619652 0.859812 0.717427 0.221193
C84   C     C_3   0.482962 0.853532 0.727935 -0.996643
H32   H     H_    0.462423 0.926674 0.729122 0.272353
H33   H     H_    0.511416 0.828518 0.767174 0.268300
H34   H     H_    0.420741 0.821570 0.711124 0.262985
C85   C     C_3   0.027156 0.697653 0.599497 -0.812241
H35   H     H_    0.093300 0.719145 0.595584 0.201404
H36   H     H_    0.973476 0.757260 0.591895 0.271470
H37   H     H_    0.038206 0.673154 0.638936 0.260459
C86   C     C_3   0.972733 0.295772 0.405199 -0.846747
H38   H     H_    0.900321 0.284758 0.403875 0.205895
H39   H     H_    0.976392 0.308242 0.365841 0.278719
H40   H     H_    0.018280 0.233615 0.420747 0.244198
O15   O     O_3   0.242198 0.509512 0.547197 -0.636239
C87   C     C_3   0.238130 0.446979 0.584929 0.085823
H41   H     H_    0.303377 0.399839 0.592959 0.150700
H42   H     H_    0.180410 0.406058 0.573398 0.130340
C88   C     C_3   0.228896 0.495058 0.633708 -0.323489
H43   H     H_    0.297811 0.489635 0.660175 0.238071
H44   H     H_    0.203220 0.566966 0.625788 0.240816
C89   C     C_3   0.163228 0.455307 0.659915 -0.899054
H45   H     H_    0.092026 0.463313 0.635425 0.257496
H46   H     H_    0.161090 0.490368 0.695603 0.272645
H47   H     H_    0.187544 0.383423 0.668773 0.270259
O16   O     O_3   0.752769 0.513679 0.447726 -0.633574
C90   C     C_3   0.766827 0.583219 0.416881 0.086587
H48   H     H_    0.839227 0.572911 0.412087 0.156685
H49   H     H_    0.753101 0.650254 0.433161 0.126563
C91   C     C_3   0.701516 0.583294 0.364922 -0.323702
H50   H     H_    0.705032 0.514754 0.350283 0.225352
H51   H     H_    0.629728 0.606718 0.368178 0.233161
C92   C     C_3   0.726502 0.644945 0.327748 -0.945864
H52   H     H_    0.725728 0.713779 0.342163 0.262470
H53   H     H_    0.675032 0.646498 0.291184 0.307726
H54   H     H_    0.796299 0.620421 0.321501 0.266882
O17   O     O_3   0.870771 0.668846 0.629928 -0.633545
C93   C     C_3   0.859659 0.624529 0.673318 0.080392
H55   H     H_    0.927308 0.616646 0.701302 0.152971
H56   H     H_    0.840716 0.555843 0.666629 0.125740
C94   C     C_3   0.787891 0.681690 0.696282 -0.343794
H57   H     H_    0.815763 0.743503 0.711020 0.215387
H58   H     H_    0.723299 0.701209 0.666931 0.245099
C95   C     C_3   0.764523 0.631863 0.739073 -0.957480
H59   H     H_    0.731859 0.572257 0.724589 0.279679
H60   H     H_    0.715009 0.676257 0.755963 0.257026
H61   H     H_    0.828175 0.610764 0.768816 0.272611
O18   O     O_3   0.143412 0.297782 0.385027 -0.647724
C96   C     C_3   0.203141 0.216535 0.399751 0.079982
H62   H     H_    0.159307 0.162801 0.399260 0.187823
H63   H     H_    0.248047 0.215779 0.438663 0.185560
C97   C     C_3   0.263608 0.193797 0.361962 -0.352075
H64   H     H_    0.218524 0.185035 0.324217 0.236881
H65   H     H_    0.303874 0.249093 0.358979 0.225403
C98   C     C_3   0.331102 0.108456 0.377804 -0.918922
H66   H     H_    0.378080 0.116348 0.415068 0.262067
H67   H     H_    0.373766 0.093681 0.349664 0.269800
H68   H     H_    0.292673 0.051432 0.380011 0.265237
O19   O     O_3   0.438135 0.567690 0.760261 -0.628267
C99   C     C_3   0.489199 0.639459 0.775348 0.050770
H69   H     H_    0.438180 0.698284 0.778752 0.182122
H70   H     H_    0.528272 0.657979 0.747728 0.151890
C100  C     C_3   0.556366 0.619302 0.826625 -0.358643
H71   H     H_    0.520362 0.590598 0.852743 0.233933
H72   H     H_    0.615630 0.570583 0.821846 0.251528
C101  C     C_3   0.594831 0.702635 0.849307 -0.976122
H73   H     H_    0.633917 0.730215 0.824419 0.264759
H74   H     H_    0.642880 0.685375 0.886503 0.272017
H75   H     H_    0.537683 0.754032 0.854565 0.270498
O20   O     O_3   0.613083 0.335911 0.271856 -0.621917
C102  C     C_3   0.709289 0.339268 0.290616 0.039206
H76   H     H_    0.745823 0.270538 0.289817 0.181420
H77   H     H_    0.727432 0.359993 0.330478 0.142457
C103  C     C_3   0.746042 0.400093 0.257594 -0.374532
H78   H     H_    0.727116 0.380049 0.217670 0.242290
H79   H     H_    0.714732 0.469711 0.260903 0.255283
C104  C     C_3   0.850933 0.396616 0.274225 -0.936912
H80   H     H_    0.870178 0.421962 0.313016 0.270971
H81   H     H_    0.875067 0.439548 0.248536 0.271074
H82   H     H_    0.885788 0.327323 0.273009 0.269668
C105  C     C_3   0.272634 0.352167 0.843386 -0.781863
H83   H     H_    0.219561 0.335258 0.862822 0.244801
H84   H     H_    0.242371 0.413385 0.820076 0.256154
H85   H     H_    0.285494 0.294792 0.819176 0.254771
C106  C     C_3   0.698754 0.589485 0.137294 -0.781565
H86   H     H_    0.749601 0.606132 0.116173 0.237010
H87   H     H_    0.658945 0.653191 0.145162 0.257903
H88   H     H_    0.740181 0.555778 0.172889 0.254477
C107  C     C_3   0.399239 0.639112 0.336355 -0.877621
H89   H     H_    0.367491 0.690759 0.306749 0.247670
H90   H     H_    0.343043 0.619341 0.352491 0.248817
H91   H     H_    0.447681 0.671107 0.366021 0.220775
C108  C     C_3   0.609293 0.330388 0.634069 -0.860766
H92   H     H_    0.653692 0.271014 0.653884 0.239445
H93   H     H_    0.555684 0.306800 0.603873 0.218024
H94   H     H_    0.655768 0.366268 0.617693 0.255908
C109  C     C_3   0.389144 0.610617 0.226857 -0.809274
H95   H     H_    0.414330 0.676538 0.231133 0.244771
H96   H     H_    0.387559 0.589360 0.187775 0.228841
H97   H     H_    0.316473 0.617405 0.231019 0.231273
C110  C     C_3   0.603519 0.271562 0.736206 -0.843630
H98   H     H_    0.575646 0.221736 0.708922 0.223583
H99   H     H_    0.680106 0.264078 0.742115 0.257770
H100  H     H_    0.586947 0.254531 0.772197 0.231128
C111  C     C_3   0.332487 0.275612 0.111900 -0.765046
H101  H     H_    0.282533 0.324582 0.125917 0.258327
H102  H     H_    0.289880 0.237942 0.082569 0.241978
H103  H     H_    0.370692 0.226820 0.142146 0.259225
C112  C     C_3   0.784582 0.338549 0.910564 -0.778303
H104  H     H_    0.771098 0.291919 0.878938 0.254594
H105  H     H_    0.826486 0.388274 0.901234 0.246253
H106  H     H_    0.824695 0.296003 0.943241 0.227995
O21   O     O_3   0.358405 0.249489 0.012909 -0.604733
C113  C     C_3   0.413289 0.164711 0.021439 0.061311
H107  H     H_    0.365121 0.114101 0.018158 0.172981
H108  H     H_    0.459624 0.155315 0.060003 0.126419
C114  C     C_3   0.470305 0.146830 0.981534 -0.344214
H109  H     H_    0.424234 0.160297 0.943371 0.239419
H110  H     H_    0.524395 0.191766 0.987031 0.219615
C115  C     C_3   0.517744 0.050594 0.984946 -0.956782
H111  H     H_    0.564897 0.035951 0.022684 0.266105
H112  H     H_    0.559154 0.040139 0.955956 0.267632
H113  H     H_    0.465301 0.003805 0.978210 0.264160
O22   O     O_3   0.772237 0.404601 0.009558 -0.638033
C116  C     C_3   0.832169 0.464871 0.000641 0.141900
H114  H     H_    0.828086 0.521778 0.026156 0.201894
H115  H     H_    0.814804 0.493647 0.961626 0.125859
C117  C     C_3   0.932906 0.419454 0.014384 -0.358620
H116  H     H_    0.951116 0.397206 0.054603 0.236590
H117  H     H_    0.941898 0.359878 0.991270 0.228304
C118  C     C_3   0.999784 0.482578 0.006247 -0.977162
H118  H     H_    0.984266 0.504106 0.966007 0.261471
H119  H     H_    0.072023 0.447826 0.016869 0.281290
H120  H     H_    0.994282 0.542175 0.029921 0.266242
O23   O     O_3   0.282781 0.375198 0.947768 -0.603362
C119  C     C_3   0.237825 0.464446 0.942530 0.061638
H121  H     H_    0.161989 0.461932 0.934480 0.174169
H122  H     H_    0.250181 0.502139 0.910286 0.128615
C120  C     C_3   0.265581 0.514801 0.991448 -0.357116
H123  H     H_    0.254312 0.476308 0.023476 0.237937
H124  H     H_    0.340084 0.522791 0.998637 0.211944
C121  C     C_3   0.209325 0.607256 0.988405 -0.955761
H125  H     H_    0.221328 0.647524 0.957288 0.266123
H126  H     H_    0.231060 0.641809 0.024357 0.268120
H127  H     H_    0.134229 0.602014 0.981946 0.269838
O24   O     O_3   0.673206 0.569032 0.031152 -0.682477
C122  C     C_3   0.610557 0.648769 0.017855 0.032067
H128  H     H_    0.650833 0.700100 0.008516 0.174364
H129  H     H_    0.580161 0.675419 0.049503 0.148014
C123  C     C_3   0.533139 0.636532 0.971510 -0.365087
H130  H     H_    0.564465 0.606325 0.941168 0.232939
H131  H     H_    0.487054 0.591059 0.981060 0.211804
C124  C     C_3   0.474190 0.725174 0.952654 -0.945091
H132  H     H_    0.438936 0.753945 0.981943 0.264182
H133  H     H_    0.420703 0.714306 0.918314 0.268957
H134  H     H_    0.517952 0.773127 0.943201 0.265042
O25   O     O_3   0.217059 0.066366 0.489447 -0.666018
C125  C     C_3   0.168820 0.090047 0.527683 0.090965
H135  H     H_    0.094407 0.106697 0.508549 0.159400
H136  H     H_    0.188777 0.152222 0.545539 0.178950
C126  C     C_3   0.176675 0.015482 0.567335 -0.416504
H137  H     H_    0.156388 0.953648 0.548533 0.232331
H138  H     H_    0.249215 0.000464 0.589788 0.201732
C127  C     C_3   0.114052 0.042997 0.603323 -0.947151
H139  H     H_    0.133221 0.104487 0.623112 0.260421
H140  H     H_    0.121956 0.988857 0.631819 0.271288
H141  H     H_    0.040333 0.055199 0.582341 0.267266
O26   O     O_3   0.743510 0.953319 0.614766 -0.633112
C128  C     C_3   0.752505 0.951057 0.667682 0.139650
H142  H     H_    0.828011 0.942415 0.685176 0.158780
H143  H     H_    0.727909 0.890796 0.679192 0.176153
C129  C     C_3   0.707596 0.035880 0.689351 -0.446725
H144  H     H_    0.730725 0.095903 0.675820 0.228422
H145  H     H_    0.630844 0.042233 0.676934 0.207819
C130  C     C_3   0.733939 0.032397 0.746831 -0.943656
H146  H     H_    0.712283 0.972482 0.761434 0.260470
H147  H     H_    0.698739 0.092412 0.761652 0.273315
H148  H     H_    0.810028 0.030609 0.760690 0.265569

loop_
_geom_bond_atom_site_label_1
_geom_bond_atom_site_label_2
_ccdc_geom_bond_type
C1    O1    A    
C86   H40   S    
C66   C68   A    
C102  H76   S    
C92   H52   S    
C104  H80   S    
C118  H120  S    
C121  H127  S    
C8    C26   A    
O17   C93   S    
C14   C18   A    
C53   C55   A    
C21   C111  S    
O15   C87   S    
C87   C88   S    
C48   C56   A    
C62   C86   S    
O14   C82   S    
C51   N3    A    
C82   H28   S    
C118  H118  S    
C47   C49   A    
C96   H62   S    
C27   C33   A    
C106  H88   S    
C82   H29   S    
C12   C68   A    
C66   C109  S    
C19   O21   S    
C123  H130  S    
C109  H95   S    
C81   H25   S    
C29   C77   S    
C35   C37   A    
C87   H42   S    
C116  H114  S    
C109  H97   S    
C24   O8    A    
C77   H16   S    
C85   H37   S    
C103  H79   S    
C9    C22   A    
C122  C123  S    
C29   C37   A    
C93   H55   S    
C67   C108  S    
C86   H38   S    
C66   C74   A    
C55   C61   A    
C104  H82   S    
C65   C73   A    
C97   H64   S    
C30   C38   A    
C3    C18   A    
C118  H119  S    
C112  H104  S    
C88   C89   S    
C11   C23   S    
C2    O4    A    
C79   H21   S    
C64   N2    A    
C98   H68   S    
C12   C70   A    
C8    C106  S    
C116  C117  S    
C33   C35   A    
C32   H3    S    
C60   H8    S    
C127  H141  S    
C120  C121  S    
C68   C107  S    
C11   C67   A    
C83   H30   S    
C80   C81   S    
C122  H128  S    
C90   H49   S    
C2    O2    A    
C101  H73   S    
C121  H125  S    
C78   H20   S    
C128  C129  S    
C80   H24   S    
C121  H126  S    
C110  H98   S    
C89   H46   S    
O24   C122  S    
C93   C94   S    
C42   O14   S    
C34   H1    S    
C128  H143  S    
C82   C83   S    
C76   H13   S    
C95   H60   S    
C28   C34   A    
C92   H53   S    
C84   H33   S    
O21   C113  S    
C50   H5    S    
C88   H44   S    
C94   H58   S    
C41   C43   A    
C45   N1    A    
C42   C44   A    
C91   H51   S    
C117  C118  S    
C24   O6    A    
C102  H77   S    
C83   H31   S    
C47   O17   S    
C26   O24   S    
C52   C54   A    
C20   O22   S    
C39   C42   A    
C113  H108  S    
C95   H59   S    
C129  C130  S    
C10   C21   A    
C129  H144  S    
C101  H74   S    
C102  C103  S    
C54   C56   A    
C59   C61   A    
C114  H110  S    
O20   C102  S    
C13   C19   A    
O3    Zn2   S    
C27   C31   A    
O19   C99   S    
C75   H9    S    
C14   C20   A    
C124  H132  S    
C84   H32   S    
C87   H41   S    
C89   H47   S    
C72   C74   A    
C111  H103  S    
C96   H63   S    
C112  H105  S    
C39   C40   A    
C71   C73   A    
C125  H136  S    
C53   C57   A    
C103  H78   S    
C61   C85   S    
C15   C26   A    
C6    C8    A    
C65   C67   A    
C106  H86   S    
C128  H142  S    
C5    C45   A    
C91   H50   S    
C23   O7    A    
C63   N1    A    
C129  H145  S    
C116  H115  S    
C79   C80   S    
C99   H70   S    
C37   C43   A    
C35   C39   A    
C99   C100  S    
C38   C44   A    
C126  H137  S    
C3    C9    A    
C104  H81   S    
C49   N3    A    
C107  H89   S    
C5    C7    A    
C33   H2    S    
C90   H48   S    
C14   C15   A    
C119  C120  S    
C28   C32   A    
C88   H43   S    
O22   C116  S    
C101  H75   S    
C44   O26   S    
C108  H92   S    
C114  H109  S    
C90   C91   S    
C126  C127  S    
C16   C18   A    
O2    Zn2   S    
C76   H14   S    
C85   H36   S    
C125  C126  S    
N4    Zn1   S    
C110  H99   S    
O7    Zn2   S    
C89   H45   S    
C80   H23   S    
C7    C105  S    
C84   H34   S    
C115  H113  S    
C46   N2    A    
C4    C17   A    
C117  H117  S    
C40   C41   A    
C119  H122  S    
C52   O15   S    
C130  H146  S    
C111  H102  S    
O16   C90   S    
C109  H96   S    
C23   O5    A    
C127  H140  S    
C77   H17   S    
C4    C6    A    
C106  H87   S    
C95   H61   S    
C20   C22   A    
C4    C10   A    
C108  H94   S    
C45   O9    S    
C120  H124  S    
O4    Zn1   S    
C48   O18   S    
C36   C40   A    
C36   C38   A    
O26   C128  S    
O6    Zn2   S    
C31   H4    S    
C47   C55   A    
C78   H18   S    
C54   C58   A    
C96   C97   S    
C65   C110  S    
C16   C25   A    
C86   H39   S    
C105  H85   S    
C113  H107  S    
C64   O11   S    
C114  C115  S    
C1    O3    A    
C6    C46   A    
C19   C21   A    
C124  H133  S    
C9    C63   A    
C91   C92   S    
C124  H134  S    
C10   C64   A    
C59   H7    S    
C74   N2    S    
C117  H116  S    
C3    C5    A    
C70   C76   S    
C71   O19   S    
C72   O20   S    
C70   C72   A    
O23   C119  S    
C11   C69   A    
C94   C95   S    
C15   C17   A    
C92   H54   S    
C115  H112  S    
C69   C75   S    
C107  H91   S    
C76   H12   S    
C12   C24   S    
C51   O16   S    
C123  H131  S    
C69   C71   A    
C7    C25   A    
C81   H26   S    
C13   C17   A    
C107  H90   S    
C112  H106  S    
C97   C98   S    
C99   H69   S    
C100  C101  S    
C29   C31   A    
C52   N4    A    
C58   C59   A    
C105  H84   S    
C98   H66   S    
C126  H138  S    
N3    Zn2   S    
O5    Zn1   S    
C77   H15   S    
C60   C62   A    
C30   C32   A    
C85   H35   S    
C103  C104  S    
C57   C58   A    
C25   O23   S    
C78   H19   S    
C93   H56   S    
O8    Zn1   S    
C83   C84   S    
C105  H83   S    
C43   O25   S    
C48   C50   A    
C108  H93   S    
C34   C36   A    
C97   H65   S    
C56   C62   A    
C122  H129  S    
O13   C79   S    
C110  H100  S    
C79   H22   S    
C98   H67   S    
C50   N4    A    
C51   C53   A    
C94   H57   S    
C100  H71   S    
O1    Zn1   S    
C127  H139  S    
C57   C60   A    
C46   O10   S    
C119  H121  S    
C123  C124  S    
C75   H10   S    
C13   C16   A    
C81   H27   S    
C1    C27   S    
C49   H6    S    
C41   O13   S    
O25   C125  S    
C125  H135  S    
C2    C28   S    
C75   H11   S    
C63   O12   S    
C130  H147  S    
C111  H101  S    
C73   N1    S    
C30   C78   S    
C22   C112  S    
O18   C96   S    
C120  H123  S    
C130  H148  S    
C115  H111  S    
C100  H72   S    
C113  C114  S    
