data_mof_unit_55119.cif
_audit_creation_date              2012-12-11T14:21:23-0500
_audit_creation_method            fapswitch 2.2
_symmetry_space_group_name_H-M    P1
_symmetry_Int_Tables_number       1
_space_group_crystal_system       triclinic
_cell_length_a                    11.685442
_cell_length_b                    11.650773
_cell_length_c                    19.487796
_cell_angle_alpha                 89.891453
_cell_angle_beta                  90.282858
_cell_angle_gamma                 59.357579
_cell_volume                      2282.62356496

loop_
_atom_site_label
_atom_site_type_symbol
_atom_type_description
_atom_site_fract_x
_atom_site_fract_y
_atom_site_fract_z
_atom_type_partial_charge
C1    C     C_R   0.640612 0.116619 0.599201 0.552439
C2    C     C_1   0.653814 0.148149 0.668582 0.000344
C3    C     C_R   0.688141 0.591578 0.206778 -0.027949
C4    C     C_R   0.612759 0.745890 0.598388 0.538703
C5    C     C_R   0.572720 0.611582 0.244032 -0.008231
C6    C     C_R   0.585607 0.600518 0.316229 -0.006854
C7    C     C_R   0.781759 0.616783 0.313262 -0.141087
C8    C     C_R   0.793053 0.592063 0.243521 0.065244
C9    C     C_R   0.438797 0.661946 0.216928 0.295963
C10   C     C_R   0.335958 0.721566 0.264275 -0.086777
C11   C     C_R   0.357535 0.681020 0.331813 -0.158154
C12   C     C_1   0.641846 0.703717 0.667927 0.003824
C13   C     C_R   0.486033 0.596057 0.353928 -0.124527
C14   C     C_R   0.672475 0.633791 0.348815 -0.023944
C15   C     C_R   0.181752 0.181256 0.182742 0.022739
C16   C     C_R   0.295310 0.120676 0.605477 0.560842
C17   C     C_R   0.236396 0.253417 0.209273 0.015828
C18   C     C_R   0.265281 0.245139 0.280239 0.018595
C19   C     C_R   0.261861 0.038548 0.281908 -0.149880
C20   C     C_R   0.229024 0.056096 0.211491 0.221747
C21   C     C_R   0.275607 0.321994 0.165022 -0.078162
C22   C     C_R   0.315527 0.404900 0.191473 -0.095621
C23   C     C_1   0.144747 0.189996 0.863336 -0.004957
C24   C     C_R   0.313757 0.423185 0.261499 -0.077108
C25   C     C_R   0.296372 0.340063 0.306034 -0.065791
C26   C     C_R   0.267910 0.138415 0.319115 -0.049260
C27   C     C_R   0.734684 0.206396 0.207010 0.005747
C28   C     C_R   0.642504 0.108515 0.400612 0.542351
C29   C     C_R   0.820908 0.077136 0.237023 0.029840
C30   C     C_R   0.772827 0.040594 0.293278 -0.012067
C31   C     C_R   0.605327 0.272881 0.310799 -0.157444
C32   C     C_R   0.629654 0.302579 0.245530 -0.163810
C33   C     C_R   0.946444 0.978211 0.210706 -0.138466
C34   C     C_1   0.224064 0.145938 0.735639 -0.033143
C35   C     C_R   0.011610 0.848353 0.237171 -0.097657
C36   C     C_R   0.965519 0.816166 0.294991 0.297966
C37   C     C_R   0.832685 0.903760 0.309973 -0.073532
C38   C     C_R   0.670937 0.141544 0.333391 0.007631
C39   C     C_R   0.083314 0.230435 0.929414 0.536879
C40   C     C_R   0.622268 0.727604 0.407239 0.534410
C41   C     C_R   0.683117 0.604762 0.929849 0.536787
C42   C     C_R   0.707827 0.207124 0.930316 0.555268
C43   C     C_R   0.090083 0.232131 0.122985 0.532259
C44   C     C_R   0.704941 0.558193 0.133668 0.543431
C45   C     C_1   0.185093 0.165780 0.805209 -0.033187
C46   C     C_R   0.744967 0.234523 0.134332 0.540047
C47   C     C_R   0.300810 0.117371 0.393691 0.560663
C48   C     C_1   0.668371 0.648068 0.860530 0.001255
C49   C     C_1   0.654604 0.684183 0.728589 -0.033967
C50   C     C_1   0.661900 0.668204 0.799960 -0.034267
C51   C     C_3   0.017795 0.683337 0.396696 -0.003676
C52   C     C_3   0.103779 0.709643 0.445948 -0.287927
C53   C     C_3   0.063410 0.710284 0.520405 -0.453299
C54   C     C_3   0.317806 0.707645 0.113399 0.044330
C55   C     C_3   0.272331 0.643903 0.059393 -0.292792
C56   C     C_1   0.255232 0.133399 0.675973 -0.001089
C57   C     C_3   0.194646 0.742130 0.001492 -0.458207
C58   C     C_3   0.412509 0.934257 0.144488 -0.009390
C59   C     C_3   0.400170 0.980945 0.069622 -0.267530
C60   C     C_3   0.536305 0.938731 0.039504 -0.460589
C61   C     C_1   0.677054 0.192509 0.860959 -0.001705
C62   C     C_1   0.658706 0.166376 0.729016 -0.033954
C63   C     C_1   0.664607 0.181437 0.800417 -0.033708
Cr1   Cr    Cr6+3 0.404720 0.198220 0.499960 0.995445
Cr2   Cr    Cr6+3 0.698290 0.897110 0.500380 0.969089
Cr3   Cr    Cr6+3 0.396970 0.904720 0.499610 1.010539
Cr4   Cr    Cr6+3 0.926180 0.151990 0.028120 0.996918
Cr5   Cr    Cr6+3 0.921330 0.451820 0.027470 1.034360
Cr6   Cr    Cr6+3 0.626260 0.446870 0.028710 1.006397
H1    H     H_    0.853694 0.632376 0.338674 0.153204
H2    H     H_    0.240518 0.799274 0.249382 0.126439
H3    H     H_    0.276434 0.721768 0.366852 0.138106
H4    H     H_    0.502201 0.564754 0.407279 0.139271
H5    H     H_    0.294370 0.944257 0.306521 0.148225
H6    H     H_    0.276997 0.310821 0.109844 0.121534
H7    H     H_    0.040888 0.579542 0.406169 0.156919
H8    H     H_    0.913087 0.747946 0.411138 0.160723
H9    H     H_    0.209100 0.628667 0.440768 0.148959
H10   H     H_    0.092548 0.808190 0.433999 0.169752
H11   H     H_    0.958973 0.791166 0.528415 0.189958
H12   H     H_    0.347802 0.453337 0.157007 0.177149
H13   H     H_    0.128967 0.727610 0.554918 0.152146
H14   H     H_    0.073383 0.612911 0.533992 0.151574
H15   H     H_    0.365911 0.754173 0.085628 0.197135
H16   H     H_    0.227724 0.786122 0.138713 0.144621
H17   H     H_    0.360204 0.554617 0.037484 0.192566
H18   H     H_    0.206232 0.612967 0.083466 0.156813
H19   H     H_    0.106258 0.832386 0.022280 0.161496
H20   H     H_    0.160410 0.694175 0.963991 0.157655
H21   H     H_    0.258796 0.772230 0.974414 0.152007
H22   H     H_    0.489685 0.827839 0.147198 0.172121
H23   H     H_    0.338275 0.493133 0.281582 0.146062
H24   H     H_    0.452375 0.985237 0.176934 0.127167
H25   H     H_    0.351256 0.939114 0.037748 0.165587
H26   H     H_    0.338266 0.091040 0.066596 0.149919
H27   H     H_    0.586130 0.981675 0.069892 0.168314
H28   H     H_    0.524146 0.975366 0.985789 0.145448
H29   H     H_    0.599880 0.828275 0.039460 0.181463
H30   H     H_    0.314798 0.351602 0.358700 0.158340
H31   H     H_    0.530456 0.350212 0.342468 0.118225
H32   H     H_    0.998285 0.998106 0.171129 0.172781
H33   H     H_    0.564582 0.399239 0.224251 0.172941
H34   H     H_    0.094906 0.769018 0.210861 0.138080
H35   H     H_    0.775578 0.866418 0.334228 0.140951
I1    I     I_    0.961259 0.586349 0.199987 -0.347509
O1    O     O_R   0.267740 0.231960 0.575440 -0.499435
O2    O     O_R   0.596130 0.579390 0.952730 -0.517903
O3    O     O_R   0.639060 0.321160 0.958670 -0.494583
O4    O     O_R   0.527280 0.186640 0.570530 -0.506570
O5    O     O_R   0.821240 0.124200 0.104370 -0.526688
O6    O     O_R   0.036890 0.167040 0.097840 -0.513438
O7    O     O_R   0.056180 0.349610 0.102880 -0.501094
O8    O     O_R   0.797660 0.564870 0.097950 -0.469006
O9    O     O_R   0.595880 0.584250 0.104270 -0.498267
O10   O     O_R   0.638830 0.325670 0.099150 -0.491704
O11   O     O_3   0.824590 0.350230 0.028100 -0.287587
O12   O     O_R   0.685970 0.784660 0.430010 -0.540685
O13   O     O_R   0.728090 0.003450 0.576380 -0.513159
O14   O     O_R   0.682970 0.789190 0.570490 -0.500800
O15   O     O_R   0.499290 0.771880 0.575530 -0.515451
O16   O     O_R   0.285330 0.030870 0.569730 -0.480610
O17   O     O_R   0.270980 0.227080 0.423890 -0.525619
O18   O     O_R   0.530280 0.182120 0.430050 -0.529441
O19   O     O_R   0.731330 0.998570 0.424830 -0.540399
O20   O     O_3   0.046651 0.691813 0.326451 -0.567941
O21   O     O_3   0.411125 0.609062 0.159414 -0.577247
O22   O     O_3   0.290368 0.948385 0.168229 -0.619217
O23   O     O_R   0.502530 0.767000 0.423990 -0.521380
O24   O     O_R   0.288330 0.026350 0.429250 -0.484107
O25   O     O_3   0.499990 0.000020 0.499980 -0.284058
O26   O     O_R   0.821500 0.119340 0.952830 -0.503279
O27   O     O_R   0.037130 0.162530 0.957360 -0.499922
O28   O     O_R   0.056440 0.344740 0.951340 -0.507822
O29   O     O_R   0.797900 0.560360 0.957470 -0.486909

loop_
_geom_bond_atom_site_label_1
_geom_bond_atom_site_label_2
_ccdc_geom_bond_type
Cr6   O11   S    
C34   C56   T    
C23   C45   T    
C27   C29   A    
C37   H35   S    
Cr4   O27   S    
C18   C26   A    
C16   O16   A    
C8    I1    S    
C7    H1    S    
C54   H15   S    
Cr2   O25   S    
Cr6   O2    S    
C28   O18   A    
C7    C8    A    
C54   O21   S    
C62   C63   S    
C43   O6    A    
C46   O10   A    
C47   O24   A    
C33   H32   S    
C36   C37   A    
C58   H24   S    
C35   H34   S    
C51   H8    S    
C39   O28   A    
C5    C6    A    
Cr1   O17   S    
C39   O27   A    
C40   O23   A    
C29   C33   A    
C30   C38   A    
C1    C2    S    
Cr5   O7    S    
Cr2   O19   S    
C61   C63   T    
C19   C26   A    
C1    O4    A    
C25   H30   S    
C7    C14   A    
C36   O20   S    
Cr2   O13   S    
C4    O14   A    
C42   O26   A    
C59   H25   S    
C4    C12   S    
C52   H10   S    
C9    C10   A    
C16   O1    A    
Cr5   O8    S    
Cr3   O24   S    
C10   H2    S    
C48   C50   T    
C40   O12   A    
C44   O9    A    
C58   O22   S    
Cr3   O15   S    
C21   C22   A    
C18   C25   A    
C59   H26   S    
C52   H9    S    
C24   H23   S    
C41   O29   A    
Cr6   O3    S    
C12   C49   T    
C15   C20   A    
C3    C44   S    
Cr6   O9    S    
C57   H21   S    
C51   C52   S    
C51   O20   S    
C22   H12   S    
C53   H11   S    
C24   C25   A    
C20   O22   S    
C3    C8    A    
C11   H3    S    
C47   O17   A    
C58   C59   S    
C17   C21   A    
C30   C37   A    
C53   H13   S    
C35   C36   A    
Cr4   O11   S    
C16   C56   S    
C5    C9    A    
C29   C30   A    
C6    C14   A    
Cr4   O5    S    
C31   C32   A    
C28   C38   S    
C17   C18   A    
Cr2   O14   S    
Cr3   O16   S    
C34   C45   S    
C31   H31   S    
C51   H7    S    
C42   C61   S    
C57   H20   S    
C26   C47   S    
Cr5   O11   S    
Cr5   O28   S    
C60   H27   S    
C27   C46   S    
Cr4   O6    S    
Cr1   O25   S    
C44   O8    A    
C60   H28   S    
C55   C57   S    
C22   C24   A    
C43   O7    A    
C52   C53   S    
C57   H19   S    
C58   H22   S    
C15   C17   A    
C54   C55   S    
Cr6   O10   S    
C41   O2    A    
C27   C32   A    
C19   H5    S    
Cr4   O26   S    
C13   H4    S    
C3    C5    A    
C54   H16   S    
C28   O19   A    
Cr1   O1    S    
Cr1   O18   S    
C21   H6    S    
C60   H29   S    
C9    O21   S    
C31   C38   A    
C53   H14   S    
C19   C20   A    
C46   O5    A    
C15   C43   S    
C6    C13   A    
C11   C13   A    
Cr1   O4    S    
C55   H17   S    
C23   C39   S    
Cr5   O29   S    
C33   C35   A    
C41   C48   S    
Cr3   O23   S    
C32   H33   S    
C1    O13   A    
C55   H18   S    
C10   C11   A    
C14   C40   S    
C59   C60   S    
C49   C50   S    
Cr2   O12   S    
C4    O15   A    
C42   O3    A    
C2    C62   T    
Cr3   O25   S    
