data_mof_unit_58514.cif
_audit_creation_date              2012-12-11T15:12:42-0500
_audit_creation_method            fapswitch 2.2
_symmetry_space_group_name_H-M    P1
_symmetry_Int_Tables_number       1
_space_group_crystal_system       triclinic
_cell_length_a                    22.353193
_cell_length_b                    6.942088
_cell_length_c                    19.355201
_cell_angle_alpha                 89.996466
_cell_angle_beta                  99.178117
_cell_angle_gamma                 89.995688
_cell_volume                      2965.04511343

loop_
_atom_site_label
_atom_site_type_symbol
_atom_type_description
_atom_site_fract_x
_atom_site_fract_y
_atom_site_fract_z
_atom_type_partial_charge
O1    O     O_R   0.448420 0.506120 0.415750 -0.536637
O2    O     O_R   0.551580 0.006120 0.584250 -0.536682
O3    O     O_R   0.436490 0.174470 0.555610 -0.535644
O4    O     O_R   0.563510 0.674470 0.444390 -0.535634
C1    C     C_R   0.421065 0.344694 0.575762 0.714230
C2    C     C_R   0.578935 0.844691 0.424237 0.714256
O5    O     O_R   0.441310 0.176330 0.414520 -0.536709
O6    O     O_R   0.558690 0.676330 0.585480 -0.536689
O7    O     O_R   0.556430 0.007110 0.442150 -0.533580
O8    O     O_R   0.443570 0.507110 0.557850 -0.533554
C3    C     C_R   0.426704 0.345096 0.388411 0.683062
C4    C     C_R   0.573300 0.845069 0.611588 0.683035
O9    O     O_3   0.537770 0.339560 0.509230 -0.363455
O10   O     O_3   0.462230 0.839560 0.490770 -0.363427
V1    V     V_3+5 0.492990 0.064280 0.498290 1.451024
V2    V     V_3+5 0.507010 0.564280 0.501710 1.451110
C5    C     C_R   0.866924 0.979736 0.695476 -0.143345
C6    C     C_R   0.132978 0.477775 0.304586 -0.143268
H1    H     H_    0.954052 0.006594 0.759524 0.109247
H2    H     H_    0.045843 0.504545 0.240540 0.109217
H3    H     H_    0.784590 0.977548 0.580707 0.162141
H4    H     H_    0.215271 0.474717 0.419392 0.161992
H5    H     H_    0.885215 0.008177 0.647882 0.130732
H6    H     H_    0.114639 0.505255 0.352216 0.130703
C7    C     C_R   0.884491 0.941494 0.821361 -0.042124
C8    C     C_R   0.115504 0.441314 0.178636 -0.042051
C9    C     C_R   0.590343 0.816381 0.739840 -0.163578
C10   C     C_R   0.409720 0.317625 0.260126 -0.163638
C11   C     C_R   0.627022 0.813718 0.804958 -0.123790
C12   C     C_R   0.373068 0.315496 0.194988 -0.123773
C13   C     C_R   0.689235 0.844576 0.810943 -0.156150
C14   C     C_R   0.310832 0.345904 0.189015 -0.156130
C15   C     C_R   0.716748 0.879785 0.751209 0.080410
C16   C     C_R   0.283267 0.380077 0.248783 0.080394
C17   C     C_R   0.678531 0.884297 0.684256 0.060989
C18   C     C_R   0.321452 0.383957 0.315760 0.060964
C19   C     C_R   0.780798 0.910330 0.755707 0.074456
C20   C     C_R   0.219197 0.410181 0.244294 0.074451
C21   C     C_R   0.804670 0.946538 0.693131 0.124305
C22   C     C_R   0.195264 0.445199 0.306912 0.124281
C23   C     C_R   0.766409 0.950286 0.628467 -0.173761
C24   C     C_R   0.233496 0.448345 0.371600 -0.173613
C25   C     C_R   0.704479 0.919314 0.623974 -0.181919
C26   C     C_R   0.295451 0.417890 0.376079 -0.181770
C27   C     C_R   0.822238 0.907142 0.819865 -0.213401
C28   C     C_R   0.177791 0.407632 0.180108 -0.213355
C29   C     C_R   0.906304 0.978408 0.758988 -0.165813
C30   C     C_R   0.093624 0.476967 0.241054 -0.165873
C31   C     C_R   0.615056 0.851837 0.679136 -0.081804
C32   C     C_R   0.384953 0.352013 0.320864 -0.081725
H7    H     H_    0.807716 0.880875 0.869498 0.091045
H8    H     H_    0.192359 0.382284 0.130443 0.090969
H9    H     H_    0.542190 0.790128 0.736715 0.100384
H10   H     H_    0.457897 0.291829 0.263236 0.100355
H11   H     H_    0.714490 0.839750 0.863161 0.103794
H12   H     H_    0.285600 0.341553 0.136779 0.103790
H13   H     H_    0.607042 0.786481 0.851427 0.112753
H14   H     H_    0.393087 0.289073 0.148492 0.112744
H15   H     H_    0.676961 0.923447 0.572606 0.123017
H16   H     H_    0.322946 0.421531 0.427466 0.122834
C33   C     C_3   0.808880 0.750366 0.262973 -0.324267
C34   C     C_3   0.191131 0.250344 0.737036 -0.324257
C35   C     C_3   0.787465 0.104501 0.248980 -0.342067
C36   C     C_3   0.212514 0.604487 0.751002 -0.342068
C37   C     C_3   0.738702 0.089599 0.298167 0.041295
C38   C     C_3   0.261278 0.589593 0.701815 0.041307
H17   H     H_    0.782945 0.749014 0.367736 0.193532
H18   H     H_    0.217064 0.248986 0.632273 0.193494
H19   H     H_    0.854004 0.780448 0.294575 0.161823
H20   H     H_    0.146003 0.280406 0.705433 0.161811
H21   H     H_    0.775485 0.224867 0.211314 0.121402
H22   H     H_    0.224485 0.724862 0.788660 0.121401
H23   H     H_    0.832545 0.139324 0.279679 0.177264
H24   H     H_    0.167431 0.639291 0.720303 0.177266
H25   H     H_    0.702452 0.197016 0.280719 0.105607
H26   H     H_    0.297519 0.697024 0.719255 0.105598
C39   C     C_1   0.624941 0.854999 0.379122 -0.154728
C40   C     C_1   0.375059 0.355010 0.620877 -0.154754
C41   C     C_3   0.791833 0.913385 0.208468 0.250660
C42   C     C_3   0.208165 0.413376 0.791530 0.250655
C43   C     C_3   0.760685 0.732217 0.312475 -0.290862
C44   C     C_3   0.239326 0.232203 0.687534 -0.290883
C45   C     C_3   0.709730 0.884491 0.293984 0.228503
C46   C     C_3   0.290268 0.384496 0.706013 0.228503
C47   C     C_3   0.680353 0.849756 0.216718 -0.387416
C48   C     C_3   0.319649 0.349782 0.783281 -0.387411
C49   C     C_3   0.728233 0.867652 0.166793 -0.334114
C50   C     C_3   0.271769 0.367671 0.833206 -0.334117
C51   C     C_1   0.663129 0.866915 0.341003 -0.039426
C52   C     C_1   0.336870 0.366927 0.658994 -0.039454
C53   C     C_1   0.837795 0.928751 0.160583 -0.084042
C54   C     C_1   0.162203 0.428737 0.839415 -0.084041
C55   C     C_1   0.875502 0.939704 0.121791 -0.191404
C56   C     C_1   0.124496 0.439692 0.878208 -0.191401
H27   H     H_    0.729879 0.730664 0.137285 0.144053
H28   H     H_    0.270135 0.230688 0.862725 0.144060
H29   H     H_    0.714304 0.983433 0.127764 0.140686
H30   H     H_    0.285689 0.483463 0.872225 0.140680
H31   H     H_    0.659475 0.703870 0.211190 0.150486
H32   H     H_    0.340540 0.203904 0.788820 0.150489
H33   H     H_    0.812512 0.610796 0.235641 0.143008
H34   H     H_    0.187513 0.110776 0.764379 0.143001
H35   H     H_    0.740742 0.585003 0.307631 0.160032
H36   H     H_    0.259283 0.084996 0.692388 0.159994
H37   H     H_    0.643369 0.955946 0.201059 0.139962
H38   H     H_    0.356624 0.455986 0.798930 0.139955
O11   O     O_R   0.056480 0.288780 0.942210 -0.535668
O12   O     O_R   0.943520 0.788780 0.057790 -0.535666
O13   O     O_R   0.058700 0.616820 0.085490 -0.537961
O14   O     O_R   0.941300 0.116820 0.914510 -0.537971
C57   C     C_R   0.073185 0.448396 0.111774 0.694154
C58   C     C_R   0.926815 0.948423 0.888224 0.694142
O15   O     O_R   0.063520 0.618570 0.944410 -0.537547
O16   O     O_R   0.936480 0.118570 0.055590 -0.537550
O17   O     O_R   0.948420 0.787670 0.915740 -0.535532
O18   O     O_R   0.051580 0.287670 0.084260 -0.535527
C59   C     C_R   0.078922 0.449789 0.923957 0.726139
C60   C     C_R   0.921077 0.949792 0.076043 0.726164
O19   O     O_3   0.962260 0.453430 0.990800 -0.366677
O20   O     O_3   0.037740 0.953430 0.009200 -0.366664
V3    V     V_3+5 0.007000 0.728750 0.001710 1.424591
V4    V     V_3+5 0.993000 0.228750 0.998290 1.424588
I1    I     I_    0.776258 0.175098 0.403528 -0.511410
I2    I     I_    0.223712 0.675065 0.596449 -0.511216

loop_
_geom_bond_atom_site_label_1
_geom_bond_atom_site_label_2
_ccdc_geom_bond_type
C12   C14   A    
C50   H28   S    
O4    V2    S    
O17   V3    S    
C9    C11   A    
C23   C25   A    
O1    C3    A    
O12   V3    S    
C36   H22   S    
O2    C4    A    
C17   C25   A    
C2    O7    A    
C35   C37   S    
C4    C31   S    
O3    V1    S    
C21   C23   A    
C35   C41   S    
C40   C52   T    
O5    C3    A    
C39   C51   T    
C5    H5    S    
C46   C52   S    
C6    H6    S    
C34   C42   S    
C46   C48   S    
O13   C57   A    
C56   C59   S    
H1    C29   S    
C37   C45   S    
C27   H7    S    
C28   H8    S    
C34   H20   S    
C5    C21   A    
C6    C22   A    
C7    C58   S    
C10   C32   A    
C49   H27   S    
C17   C31   A    
C13   C15   A    
C57   O18   A    
C48   H32   S    
C7    C29   A    
C41   C53   S    
C8    C30   A    
C47   C49   S    
C34   C44   S    
O6    V2    S    
C42   C50   S    
C36   C42   S    
C48   H38   S    
C24   C26   A    
C47   H37   S    
C41   C49   S    
C43   C45   S    
O20   V4    S    
O19   V3    S    
C45   C51   S    
O12   C60   A    
O4    C2    A    
H3    C23   S    
C10   H10   S    
C2    C39   S    
C49   H29   S    
O5    V1    S    
C35   H23   S    
C15   C19   A    
C14   C16   A    
C42   C54   S    
C33   H33   S    
C47   H31   S    
C53   C55   T    
O6    C4    A    
C38   H26   S    
C54   C56   T    
O1    V2    S    
O16   C60   A    
C26   H16   S    
O2    V1    S    
H2    C30   S    
O18   V4    S    
O15   C59   A    
C45   C47   S    
C35   H21   S    
H17   C43   S    
C44   C46   S    
O9    V1    S    
C38   I2    S    
O10   V2    S    
C18   C26   A    
C55   C60   S    
C19   C27   A    
C7    C27   A    
C18   C32   A    
O20   V3    S    
C43   H35   S    
O19   V4    S    
C33   H19   S    
C36   H24   S    
C16   C20   A    
C5    C29   A    
C11   H13   S    
O3    C1    A    
C6    C30   A    
C9    H9    S    
C25   H15   S    
C37   H25   S    
H18   C44   S    
C10   C12   A    
O7    V1    S    
C1    O8    A    
C11   C13   A    
C3    C32   S    
C33   C43   S    
O14   V4    S    
C20   C22   A    
O13   V3    S    
H4    C24   S    
C33   C41   S    
C12   H14   S    
C22   C24   A    
C15   C17   A    
C16   C18   A    
C14   H12   S    
C48   C50   S    
C37   I1    S    
O14   C58   A    
C20   C28   A    
C8    C28   A    
C38   C46   S    
O16   V4    S    
O15   V3    S    
C19   C21   A    
O9    V2    S    
C44   H36   S    
O10   V1    S    
O8    V2    S    
O11   V4    S    
C13   H11   S    
C1    C40   S    
C8    C57   S    
O11   C59   A    
C58   O17   A    
C50   H30   S    
C9    C31   A    
C36   C38   S    
C34   H34   S    
