data_mof_unit_61751.cif
_audit_creation_date              2012-12-10T19:27:33-0500
_audit_creation_method            fapswitch 2.2
_symmetry_space_group_name_H-M    P1
_symmetry_Int_Tables_number       1
_space_group_crystal_system       triclinic
_cell_length_a                    18.953478
_cell_length_b                    18.545049
_cell_length_c                    18.829506
_cell_angle_alpha                 109.487792
_cell_angle_beta                  109.877173
_cell_angle_gamma                 109.362049
_cell_volume                      5074.99767131

loop_
_atom_site_label
_atom_site_type_symbol
_atom_type_description
_atom_site_fract_x
_atom_site_fract_y
_atom_site_fract_z
_atom_type_partial_charge
C1    C     C_R   0.378946 0.379690 0.498547 0.886098
C2    C     C_R   0.659690 0.350443 0.581341 0.169737
C3    C     C_R   0.230135 0.300723 0.463865 0.016591
C4    C     C_R   0.619840 0.498996 0.620577 0.903123
C5    C     C_R   0.314117 0.314926 0.499884 -0.063110
C6    C     C_R   0.338099 0.278463 0.551539 -0.165363
C7    C     C_R   0.274361 0.215360 0.552920 -0.159753
C8    C     C_R   0.186697 0.189405 0.502854 -0.103583
C9    C     C_R   0.166596 0.236499 0.462556 0.027574
C10   C     C_3   0.099688 0.209128 0.373241 0.254391
C11   C     C_3   0.170879 0.282791 0.376348 -0.102414
C12   C     C_R   0.734432 0.566962 0.776115 -0.009200
C13   C     C_R   0.244785 0.423264 0.240473 0.056854
C14   C     C_R   0.315901 0.502363 0.313796 -0.125374
C15   C     C_R   0.318591 0.582708 0.328548 -0.180972
C16   C     C_R   0.616903 0.621571 0.497591 0.914871
C17   C     C_R   0.254847 0.584623 0.265912 0.170285
C18   C     C_R   0.184621 0.504161 0.191038 -0.115593
C19   C     C_R   0.177859 0.424123 0.181949 0.068716
C20   C     C_3   0.162373 0.349386 0.104605 -0.531642
C21   C     C_3   0.239469 0.351400 0.167686 0.302698
C22   C     C_R   0.694317 0.668477 0.426141 0.007335
C23   C     C_R   0.818663 0.499166 0.810728 -0.101502
C24   C     C_R   0.675588 0.691269 0.493165 -0.212649
C25   C     C_R   0.718873 0.782004 0.557894 0.182403
C26   C     C_R   0.795335 0.841104 0.567684 0.081620
C27   C     C_R   0.815427 0.814805 0.501714 -0.149850
C28   C     C_R   0.380948 0.501123 0.379621 0.896919
C29   C     C_R   0.762538 0.729900 0.429758 0.005859
C30   C     C_3   0.786899 0.662856 0.393736 0.169068
C31   C     C_3   0.708561 0.594284 0.386292 0.011389
C32   C     C_R   0.001621 0.379360 0.882400 0.877397
C33   C     C_R   0.881222 0.494804 0.874866 0.889678
C34   C     C_R   0.790804 0.450155 0.721425 -0.007046
C35   C     C_R   0.000000 0.620776 0.119225 0.869660
C36   C     C_R   0.119776 0.501849 0.122028 0.895592
C37   C     C_R   0.000410 0.120972 0.620017 0.879522
C38   C     C_R   0.120109 0.120177 0.499671 0.884207
C39   C     C_R   0.002206 0.881840 0.379965 0.888631
C40   C     C_R   0.736155 0.648914 0.806766 0.159894
C41   C     C_R   0.880482 0.878843 0.499338 0.935872
C42   C     C_R   0.925907 0.253489 0.737006 0.075446
C43   C     C_R   0.001730 0.312922 0.817369 -0.100245
C44   C     C_R   0.080662 0.318559 0.828561 -0.174105
C45   C     C_R   0.709589 0.431335 0.662472 -0.027647
C46   C     C_R   0.080872 0.256002 0.762735 -0.169680
C47   C     C_R   0.002677 0.191234 0.684518 -0.075803
C48   C     C_R   0.927081 0.196008 0.669069 0.096079
C49   C     C_3   0.838286 0.124108 0.635154 -0.477436
C50   C     C_3   0.841640 0.183492 0.715819 0.007929
C51   C     C_R   0.040602 0.704341 0.270060 0.092525
C52   C     C_R   0.757322 0.695974 0.893944 0.188833
C53   C     C_R   0.003590 0.689520 0.185463 -0.095061
C54   C     C_R   0.983759 0.750571 0.168675 -0.194863
C55   C     C_R   0.985175 0.816339 0.233362 -0.152665
C56   C     C_R   0.687009 0.498227 0.686968 -0.162589
C57   C     C_R   0.011008 0.823029 0.315547 -0.088294
C58   C     C_R   0.046847 0.772621 0.335408 0.098994
C59   C     C_3   0.026754 0.720039 0.377834 -0.445463
C60   C     C_3   0.014644 0.643011 0.303241 -0.007156
C61   C     C_R   0.789516 0.669010 0.952283 -0.207065
C62   C     C_R   0.809215 0.602186 0.926405 -0.197949
C63   C     C_R   0.785803 0.553880 0.838302 0.061296
C64   C     C_R   0.836392 0.416609 0.687051 0.125633
C65   C     C_R   0.791718 0.349196 0.600143 -0.205678
C66   C     C_R   0.702471 0.311388 0.549261 0.179142
H1    H     H_    0.190888 0.258041 0.328854 0.173231
H2    H     H_    0.083450 0.746976 0.442489 0.245049
H3    H     H_    0.966223 0.709353 0.377966 0.220984
H4    H     H_    0.293481 0.184844 0.590219 0.183816
H5    H     H_    0.790136 0.113593 0.573271 0.240376
H6    H     H_    0.835560 0.062805 0.632006 0.210656
H7    H     H_    0.962900 0.744362 0.104769 0.158682
H8    H     H_    0.945837 0.588882 0.258818 0.181624
H9    H     H_    0.806680 0.705070 0.019660 0.178183
H10   H     H_    0.843513 0.589642 0.975574 0.153011
H11   H     H_    0.826016 0.323892 0.572994 0.195782
H12   H     H_    0.372375 0.644219 0.386570 0.185551
H13   H     H_    0.405202 0.297403 0.589251 0.166577
H14   H     H_    0.099203 0.289158 0.074876 0.232996
H15   H     H_    0.172514 0.368448 0.057298 0.192772
H16   H     H_    0.726189 0.567319 0.429943 0.161446
H17   H     H_    0.140954 0.368542 0.889301 0.162354
H18   H     H_    0.141099 0.256764 0.773577 0.172103
H19   H     H_    0.850607 0.160608 0.764182 0.179850
H20   H     H_    0.963181 0.859133 0.218303 0.191150
I1    I     I_    0.638031 0.197590 0.424365 -0.204943
I2    I     I_    0.890351 0.959592 0.690385 -0.262174
I3    I     I_    0.785176 0.652549 0.275682 -0.300336
I4    I     I_    0.905028 0.683413 0.490055 -0.297524
I5    I     I_    0.599752 0.493322 0.258416 -0.160330
I6    I     I_    0.749021 0.811842 0.943265 -0.206371
I7    I     I_    0.739215 0.213203 0.689119 -0.282684
I8    I     I_    0.103798 0.599425 0.345576 -0.231178
I9    I     I_    0.972940 0.482169 0.743978 -0.248106
I10   I     I_    0.523896 0.269544 0.526937 -0.255366
I11   I     I_    0.058425 0.079959 0.273614 -0.265022
I12   I     I_    0.991225 0.222276 0.373808 -0.165888
I13   I     I_    0.161780 0.398134 0.387396 -0.209998
I14   I     I_    0.271858 0.710902 0.287498 -0.235063
I15   I     I_    0.207496 0.231617 0.171964 -0.232777
I16   I     I_    0.762973 0.724419 0.745799 -0.202437
I17   I     I_    0.346429 0.392167 0.145988 -0.232739
I18   I     I_    0.668801 0.836905 0.634618 -0.187503
O1    O     O_R   0.408400 0.356680 0.448290 -0.592173
O2    O     O_R   0.948300 0.091670 0.539990 -0.608948
O3    O     O_R   0.143340 0.091640 0.551750 -0.632838
O4    O     O_R   0.408370 0.460100 0.551700 -0.605297
O5    O     O_R   0.039900 0.091690 0.448360 -0.596019
O6    O     O_R   0.051700 0.908430 0.460110 -0.613786
O7    O     O_R   0.948260 0.908480 0.356720 -0.604052
O8    O     O_R   0.960100 0.908410 0.551740 -0.582019
O9    O     O_R   0.856660 0.908460 0.448350 -0.606885
O10   O     O_R   0.591630 0.448290 0.539910 -0.605962
O11   O     O_R   0.591590 0.551710 0.643320 -0.608564
O12   O     O_R   0.051700 0.460090 0.908430 -0.596991
O13   O     O_R   0.591630 0.539900 0.448300 -0.613267
O14   O     O_R   0.591600 0.643320 0.551710 -0.587062
O15   O     O_R   0.408410 0.448290 0.356680 -0.595245
O16   O     O_R   0.408370 0.551710 0.460090 -0.608352
O17   O     O_R   0.948260 0.356680 0.908450 -0.616514
O18   O     O_R   0.856640 0.448300 0.908430 -0.606794
O19   O     O_R   0.960090 0.551710 0.908400 -0.596908
O20   O     O_R   0.948250 0.539920 0.091630 -0.619948
O21   O     O_R   0.051690 0.643330 0.091610 -0.594639
O22   O     O_R   0.039870 0.448310 0.091660 -0.600707
O23   O     O_R   0.143310 0.551720 0.091640 -0.604739
O24   O     O_R   0.051740 0.091620 0.643380 -0.608966
Zn1   Zn    Zn3+2 0.500020 0.430950 0.430950 1.084744
Zn2   Zn    Zn3+2 0.499980 0.569050 0.569050 1.074709
Zn3   Zn    Zn3+2 0.930910 0.430960 0.000050 1.046249
Zn4   Zn    Zn3+2 0.069050 0.569060 0.000020 1.067735
Zn5   Zn    Zn3+2 0.069070 0.000020 0.569080 1.042424
Zn6   Zn    Zn3+2 0.930930 0.000080 0.431020 1.062954

loop_
_geom_bond_atom_site_label_1
_geom_bond_atom_site_label_2
_ccdc_geom_bond_type
C22   C29   A    
O19   Zn4   S    
C35   C53   S    
C4    O11   A    
C19   C20   S    
O8    Zn5   S    
C30   I4    S    
C44   H17   S    
C7    H4    S    
C6    H13   S    
C7    C8    A    
C53   C54   A    
C61   H9    S    
C26   C27   A    
C29   C30   S    
C31   H16   S    
O14   Zn2   S    
C4    O10   A    
C35   O20   A    
C52   C61   A    
C30   C31   S    
C15   H12   S    
C27   C29   A    
C39   C57   S    
C11   I13   S    
C18   C19   A    
C38   O3    A    
C10   I12   S    
O23   Zn4   S    
C20   H15   S    
C50   H19   S    
C35   O21   A    
C46   C47   A    
C39   O6    A    
C45   C56   A    
C44   C46   A    
C8    C9    A    
C23   C33   S    
C49   H6    S    
C37   C47   S    
O13   Zn1   S    
C9    C10   S    
O4    Zn2   S    
C37   O24   A    
C21   I15   S    
C23   C63   A    
C59   C60   S    
C16   C24   S    
C13   C14   A    
C4    C56   S    
C62   H10   S    
C8    C38   S    
O17   Zn3   S    
C30   I3    S    
C11   H1    S    
C2    C45   A    
C65   H11   S    
C22   C31   S    
C20   H14   S    
C24   C25   A    
C28   O16   A    
C66   I1    S    
C51   C58   A    
C12   C63   A    
C13   C19   A    
O1    Zn1   S    
C2    C66   A    
C58   C59   S    
C40   C52   A    
C41   O8    A    
O20   Zn3   S    
C51   C53   A    
C12   C40   A    
C10   I11   S    
C43   C44   A    
C62   C63   A    
C3    C9    A    
C16   O14   A    
C59   H2    S    
C54   H7    S    
C27   C41   S    
C47   C48   A    
O12   Zn4   S    
C23   C34   A    
C34   C64   A    
C17   C18   A    
C13   C21   S    
O7    Zn6   S    
C34   C45   A    
C42   C48   A    
C32   O12   A    
C38   O5    A    
C12   C56   A    
C42   C50   S    
C50   I7    S    
C46   H18   S    
C48   C49   S    
C59   H3    S    
C49   C50   S    
C31   I5    S    
O9    Zn6   S    
C55   C57   A    
C33   O18   A    
O10   Zn1   S    
C1    C5    S    
C52   I6    S    
C36   O23   A    
C42   C43   A    
O18   Zn3   S    
C15   C17   A    
C54   C55   A    
O5    Zn6   S    
C32   O17   A    
C36   O22   A    
C64   I9    S    
C41   O9    A    
C3    C5    A    
C28   O15   A    
C25   I18   S    
C6    C7    A    
C64   C65   A    
C55   H20   S    
C2    I10   S    
C25   C26   A    
C37   O2    A    
O3    Zn5   S    
C16   O13   A    
O16   Zn2   S    
C39   O7    A    
O21   Zn4   S    
C57   C58   A    
C5    C6    A    
O22   Zn3   S    
C60   H8    S    
O15   Zn1   S    
C32   C43   S    
C22   C24   A    
C61   C62   A    
C17   I14   S    
C3    C11   S    
C10   C11   S    
C1    O4    A    
C40   I16   S    
C21   I17   S    
O2    Zn6   S    
C20   C21   S    
C26   I2    S    
C65   C66   A    
C49   H5    S    
C33   O19   A    
C14   C15   A    
O6    Zn5   S    
C51   C60   S    
C14   C28   S    
O24   Zn5   S    
C18   C36   S    
C1    O1    A    
O11   Zn2   S    
C60   I8    S    
