data_mof_unit_61731.cif
_audit_creation_date              2012-12-10T20:59:00-0500
_audit_creation_method            fapswitch 2.2
_symmetry_space_group_name_H-M    P1
_symmetry_Int_Tables_number       1
_space_group_crystal_system       triclinic
_cell_length_a                    13.678556
_cell_length_b                    15.087011
_cell_length_c                    15.86886
_cell_angle_alpha                 90.17605
_cell_angle_beta                  89.983339
_cell_angle_gamma                 83.01444
_cell_volume                      3250.50752657

loop_
_atom_site_label
_atom_site_type_symbol
_atom_type_description
_atom_site_fract_x
_atom_site_fract_y
_atom_site_fract_z
_atom_type_partial_charge
C1    C     C_R   0.499985 0.500179 0.661053 0.889132
C2    C     C_R   0.556199 0.947125 0.559006 0.531819
C3    C     C_1   0.499963 0.192886 0.500015 0.386618
C4    C     C_1   0.500033 0.807115 0.499977 0.387949
C5    C     C_R   0.686099 0.484163 0.499864 0.893633
C6    C     C_R   0.313902 0.515838 0.499949 0.892248
C7    C     C_1   0.210911 0.527985 0.493602 -0.076574
C8    C     C_1   0.789082 0.471999 0.493279 -0.076075
C9    C     C_2   0.020386 0.538902 0.478129 -0.029263
C10   C     C_2   0.979566 0.461266 0.477392 -0.031447
C11   C     C_1   0.876097 0.464411 0.485921 -0.026271
C12   C     C_R   0.500015 0.499819 0.338947 0.898419
C13   C     C_1   0.123881 0.535631 0.486458 -0.027741
C14   C     C_R   0.491165 0.417821 0.040964 -0.008894
C15   C     C_R   0.509258 0.582087 0.959041 -0.008132
C16   C     C_R   0.499715 0.496629 0.087026 0.140291
C17   C     C_R   0.500675 0.503286 0.912979 0.140563
C18   C     C_R   0.508608 0.577296 0.046557 -0.299686
C19   C     C_R   0.491799 0.422615 0.953447 -0.302046
C20   C     C_1   0.499755 0.497800 0.175960 0.044407
C21   C     C_1   0.500486 0.502147 0.824043 0.041171
C22   C     C_2   0.035498 0.370044 0.473817 0.443442
C23   C     C_1   0.500226 0.500798 0.749299 -0.106303
C24   C     C_2   0.964450 0.630170 0.476478 0.447222
C25   C     C_2   0.481472 0.329704 0.080002 0.442019
C26   C     C_2   0.518967 0.670201 0.920005 0.438162
C27   C     C_1   0.499888 0.499181 0.250703 -0.100389
C28   C     C_R   0.556174 0.040864 0.559021 0.508222
C29   C     C_R   0.443820 0.959137 0.440965 0.508615
C30   C     C_R   0.499971 0.094954 0.500009 -0.420829
C31   C     C_R   0.500023 0.905047 0.499978 -0.418827
C32   C     C_R   0.443792 0.052877 0.440981 0.533652
F1    F     F_    0.611314 0.897355 0.616887 -0.572615
F2    F     F_    0.388670 0.102650 0.383105 -0.566165
F3    F     F_    0.611270 0.078854 0.616915 -0.588923
F4    F     F_    0.388722 0.921147 0.383072 -0.586805
H1    H     H_    0.485309 0.363083 0.916269 0.154118
H2    H     H_    0.515082 0.636831 0.083736 0.155437
H3    H     H_    0.997565 0.312567 0.487594 0.080650
H4    H     H_    0.002451 0.687416 0.491310 0.081922
H5    H     H_    0.475154 0.272246 0.039886 0.081860
H6    H     H_    0.524994 0.727716 0.960120 0.083106
N1    N     N_1   0.500030 0.729450 0.499980 -0.084523
N2    N     N_1   0.499970 0.270550 0.500020 -0.084656
O1    O     O_R   0.500000 0.426350 0.621980 -0.618173
O2    O     O_2   0.877788 0.643368 0.456340 -0.531124
O3    O     O_2   0.480346 0.319438 0.156236 -0.524147
O4    O     O_2   0.520470 0.680392 0.843771 -0.527903
O5    O     O_R   0.500000 0.573650 0.378020 -0.614197
O6    O     O_R   0.499960 0.573690 0.621980 -0.582812
O7    O     O_R   0.500040 0.426310 0.378020 -0.579304
O8    O     O_R   0.640370 0.415730 0.499980 -0.621897
O9    O     O_R   0.359630 0.584270 0.500020 -0.621589
O10   O     O_R   0.640330 0.563060 0.499980 -0.575261
O11   O     O_R   0.359670 0.436940 0.500020 -0.576483
O12   O     O_2   0.122071 0.357179 0.453230 -0.518546
Zn1   Zn    Zn3+2 0.500030 0.401620 0.500000 1.050955
Zn2   Zn    Zn3+2 0.499970 0.598380 0.500000 1.051967

loop_
_geom_bond_atom_site_label_1
_geom_bond_atom_site_label_2
_ccdc_geom_bond_type
C15   C18   A    
C2    C28   A    
O9    Zn2   S    
C5    O8    A    
C6    C7    S    
O7    Zn1   S    
C20   C27   T    
C5    C8    S    
C19   H1    S    
C1    O6    A    
C6    O11   A    
C26   O4    D    
N2    Zn1   S    
C16   C20   S    
C24   O2    D    
C28   C30   A    
C12   O5    A    
C18   H2    S    
C9    C24   S    
C14   C25   S    
C10   C22   S    
C30   C32   A    
C29   F4    S    
O1    Zn1   S    
C8    C11   T    
C22   H3    S    
C3    C30   S    
C24   H4    S    
C4    N1    T    
C1    C23   S    
C29   C32   A    
O11   Zn1   S    
C21   C23   T    
O10   Zn2   S    
C14   C16   A    
C3    N2    T    
C4    C31   S    
C10   C11   S    
C12   C27   S    
O8    Zn1   S    
O6    Zn2   S    
C5    O10   A    
C7    C13   T    
C12   O7    A    
C26   H6    S    
C16   C18   A    
C9    C10   D    
C1    O1    A    
C25   H5    S    
C15   C17   A    
C9    C13   S    
C25   O3    D    
C15   C26   S    
C22   O12   D    
C6    O9    A    
N1    Zn2   S    
C17   C19   A    
C29   C31   A    
C14   C19   A    
C17   C21   S    
O5    Zn2   S    
C28   F3    S    
C2    F1    S    
C2    C31   A    
C32   F2    S    
