data_mof_unit_59929.cif
_audit_creation_date              2013-03-05T15:50:08-0500
_audit_creation_method            fapswitch 2.2
_symmetry_space_group_name_H-M    P1
_symmetry_Int_Tables_number       1
_space_group_crystal_system       triclinic
_cell_length_a                    12.172923
_cell_length_b                    12.642883
_cell_length_c                    15.440874
_cell_angle_alpha                 83.639111
_cell_angle_beta                  116.746066
_cell_angle_gamma                 92.875874
_cell_volume                      2109.05165298

loop_
_atom_site_label
_atom_site_type_symbol
_atom_site_description
_atom_site_fract_x
_atom_site_fract_y
_atom_site_fract_z
_atom_type_partial_charge
O1    O     O_R   0.580150 0.341050 0.504560 -0.662586
O2    O     O_R   0.419850 0.658950 0.495440 -0.588704
O3    O     O_R   0.388090 0.353760 0.493600 -0.583133
O4    O     O_R   0.611910 0.646240 0.506400 -0.535277
C1    C     C_R   0.470116 0.304076 0.479789 0.880600
C2    C     C_R   0.522779 0.702161 0.502462 0.898009
O5    O     O_R   0.650890 0.490020 0.640860 -0.628998
O6    O     O_R   0.349110 0.509980 0.359140 -0.529508
O7    O     O_R   0.458830 0.502730 0.629890 -0.569846
O8    O     O_R   0.541170 0.497270 0.370110 -0.610386
C3    C     C_R   0.577649 0.495335 0.681091 0.875424
C4    C     C_R   0.421357 0.502430 0.318891 0.908519
Zn1   Zn    Zn3+2 0.628240 0.491510 0.507320 0.971596
Zn2   Zn    Zn3+2 0.371760 0.508490 0.492680 1.024514
C5    C     C_R   0.626396 0.486488 0.787522 -0.185251
C6    C     C_R   0.367640 0.501849 0.212410 -0.185855
C7    C     C_R   0.764722 0.404385 0.947126 -0.265510
C8    C     C_R   0.234029 0.584542 0.052544 -0.239509
C9    C     C_R   0.742379 0.442453 0.852030 0.521806
C10   C     C_R   0.254376 0.549748 0.147665 0.553243
C11   C     C_R   0.547992 0.513636 0.824882 -0.302067
C12   C     C_R   0.438302 0.460599 0.174358 -0.244765
C13   C     C_R   0.576263 0.487362 0.922668 0.045043
C14   C     C_R   0.415353 0.487469 0.077253 0.091980
C15   C     C_R   0.675667 0.418024 0.979515 -0.014015
C16   C     C_R   0.320940 0.562709 0.020422 -0.083819
C17   C     C_R   0.497991 0.518488 0.960188 -0.121150
C18   C     C_R   0.496057 0.455519 0.041362 -0.005759
C19   C     C_R   0.579205 0.367000 0.085705 -0.102971
C20   C     C_R   0.424030 0.612230 0.919825 -0.153112
C21   C     C_R   0.676493 0.356257 0.061195 0.418455
C22   C     C_R   0.324014 0.624602 0.940339 0.509560
H1    H     H_    0.519184 0.417103 0.224911 0.150552
H2    H     H_    0.459847 0.549657 0.775850 0.193177
H3    H     H_    0.848221 0.359846 0.993018 0.201163
H4    H     H_    0.154763 0.634292 0.006960 0.189546
C23   C     C_R   0.531057 0.818506 0.489226 -0.316983
C24   C     C_R   0.442111 0.201212 0.437569 -0.257799
C25   C     C_R   0.312717 0.045247 0.399443 -0.036858
C26   C     C_R   0.612714 0.969880 0.424037 -0.079248
C27   C     C_R   0.323498 0.156378 0.404966 0.499646
C28   C     C_R   0.623611 0.864285 0.464779 0.516544
C29   C     C_R   0.533973 0.145935 0.427128 -0.075773
C30   C     C_R   0.434953 0.882183 0.482677 -0.082451
C31   C     C_R   0.522624 0.034614 0.425552 -0.066776
C32   C     C_R   0.422307 0.986084 0.436562 -0.023444
N1    N     N_R   0.799120 0.480200 0.517090 -0.220121
N2    N     N_R   0.200880 0.519800 0.482910 -0.154363
C33   C     C_R   0.004036 0.610764 0.414547 0.343836
C34   C     C_R   0.009225 0.411994 0.609658 0.488175
C35   C     C_R   0.117037 0.591929 0.414082 -0.132933
C36   C     C_R   0.883094 0.411643 0.590478 -0.177499
C37   C     C_R   0.169752 0.461201 0.549895 0.593453
C38   C     C_R   0.836724 0.543615 0.457046 0.649659
C39   C     C_R   0.047751 0.469776 0.543872 -0.305411
C40   C     C_R   0.961859 0.541065 0.470752 -0.257790
O9    O     O_3   0.767734 0.280761 0.113759 -0.634616
C41   C     C_3   0.735725 0.185529 0.067780 -0.258519
H5    H     H_    0.731717 0.196530 0.994027 0.173922
H6    H     H_    0.646746 0.152727 0.062572 0.166781
H7    H     H_    0.807672 0.125191 0.112311 0.225378
O10   O     O_3   0.248234 0.712981 0.899600 -0.545863
C42   C     C_3   0.154358 0.691636 0.807792 -0.251714
H8    H     H_    0.099569 0.621594 0.814647 0.086315
H9    H     H_    0.191766 0.679547 0.755864 0.178609
H10   H     H_    0.091345 0.760985 0.776764 0.197304
C43   C     C_2   0.842656 0.333123 0.649544 0.636446
H11   H     H_    0.757387 0.341192 0.652211 0.132321
O11   O     O_2   0.904053 0.254478 0.695450 -0.493524
C44   C     C_2   0.134941 0.651985 0.333316 0.548365
H12   H     H_    0.055002 0.670863 0.264001 0.094768
O12   O     O_2   0.233356 0.688065 0.342469 -0.531007
O13   O     O_3   0.934819 0.698814 0.358625 -0.616517
C45   C     C_3   0.982973 0.789141 0.409808 -0.110759
H13   H     H_    0.938006 0.860922 0.360281 0.230147
H14   H     H_    0.083561 0.798535 0.434192 0.126540
H15   H     H_    0.963401 0.785745 0.473567 0.193479
O14   O     O_3   0.092105 0.350343 0.690561 -0.551138
C46   C     C_3   0.150338 0.413429 0.768863 -0.188637
H16   H     H_    0.229603 0.368353 0.827550 0.206735
H17   H     H_    0.086869 0.429302 0.799460 0.153095
H18   H     H_    0.187471 0.488852 0.748019 0.132742
O15   O     O_3   0.169125 0.572449 0.178599 -0.600566
C47   C     C_3   0.078254 0.492221 0.151545 -0.285385
H19   H     H_    0.028349 0.491818 0.070926 0.155587
H20   H     H_    0.009481 0.508382 0.177063 0.173000
H21   H     H_    0.118630 0.412367 0.186421 0.210714
O16   O     O_3   0.829438 0.427076 0.820809 -0.608719
C48   C     C_3   0.890564 0.524603 0.818731 -0.326120
H22   H     H_    0.913731 0.529487 0.756809 0.164607
H23   H     H_    0.976721 0.526734 0.887591 0.169712
H24   H     H_    0.835045 0.597235 0.806938 0.143030
C49   C     C_2   0.559910 0.277164 0.148137 0.349109
H25   H     H_    0.638262 0.234847 0.206323 0.092369
O17   O     O_2   0.456352 0.246694 0.132265 -0.550947
C50   C     C_2   0.465061 0.704347 0.871567 0.430342
H26   H     H_    0.557512 0.705650 0.877815 0.062209
O18   O     O_2   0.398848 0.780734 0.826708 -0.511195
C51   C     C_2   0.368123 0.849329 0.542768 0.415909
H27   H     H_    0.391396 0.776118 0.590844 0.101298
O19   O     O_2   0.292719 0.907117 0.545708 -0.612488
C52   C     C_2   0.644320 0.202616 0.427471 0.416828
H28   H     H_    0.632813 0.273116 0.377176 0.054202
O20   O     O_2   0.747851 0.174412 0.487129 -0.552336
O21   O     O_3   0.722767 0.804697 0.476862 -0.522653
C53   C     C_3   0.814259 0.806970 0.574129 -0.201680
H29   H     H_    0.857476 0.887086 0.585969 0.193160
H30   H     H_    0.886820 0.748466 0.588481 0.146784
H31   H     H_    0.777812 0.783496 0.628026 0.115881
O22   O     O_3   0.222439 0.224030 0.366080 -0.585652
C54   C     C_3   0.142926 0.199012 0.409581 -0.184804
H32   H     H_    0.184643 0.146953 0.479650 0.132328
H33   H     H_    0.057455 0.161632 0.358200 0.228914
H34   H     H_    0.113767 0.274803 0.422673 0.149835
C55   C     C_2   0.194665 0.992080 0.340036 0.466628
H35   H     H_    0.185065 0.906756 0.351890 0.091605
O23   O     O_2   0.110775 0.040972 0.271608 -0.555042
C56   C     C_2   0.681834 0.006569 0.367490 0.558353
H36   H     H_    0.642859 0.067930 0.307057 0.023533
O24   O     O_2   0.782048 0.969736 0.387358 -0.556476
O25   O     O_3   0.750162 0.607249 0.380436 -0.503566
C57   C     C_3   0.717241 0.560166 0.293005 -0.141829
H37   H     H_    0.628914 0.595295 0.237126 0.181514
H38   H     H_    0.707653 0.472176 0.302190 0.083779
H39   H     H_    0.784504 0.577542 0.263389 0.171778
O26   O     O_3   0.262894 0.406635 0.630321 -0.590089
C58   C     C_3   0.252289 0.295329 0.625605 -0.134536
H40   H     H_    0.313761 0.267168 0.598186 0.163183
H41   H     H_    0.156795 0.267021 0.582651 0.146947
H42   H     H_    0.285073 0.256073 0.700872 0.205459

loop_
_geom_bond_atom_site_label_1
_geom_bond_atom_site_label_2
_geom_bond_distance
_ccdc_geom_bond_type
C15   C21   1.404191 A    
C26   C56   1.489234 S    
C39   C40   1.409547 A    
C42   H9    1.111930 S    
C16   C22   1.402524 A    
C49   H25   1.084686 S    
O13   C45   1.410031 S    
C54   H32   1.114844 S    
C8    C16   1.404787 A    
C47   H21   1.114416 S    
C25   C27   1.412994 A    
C31   C32   1.408937 A    
O5    C3    1.303471 A    
O26   C58   1.413604 S    
C45   H14   1.111536 S    
O1    C1    1.294053 A    
C18   C19   1.437306 A    
C47   H20   1.108935 S    
C30   C51   1.501786 S    
C53   H29   1.112261 S    
C41   H6    1.111550 S    
C55   H35   1.083370 S    
C23   C28   1.419783 A    
O4    Zn1   1.974055 S    
O22   C54   1.412588 S    
C20   C50   1.498469 S    
C56   H36   1.084309 S    
C3    C5    1.467497 S    
N2    C35   1.380245 A    
C4    C6    1.471534 S    
C33   C35   1.411038 A    
C45   H15   1.108402 S    
C50   O18   1.220445 D    
C34   C36   1.426695 A    
C44   H12   1.085660 S    
C35   C44   1.482393 S    
C13   C17   1.408291 A    
C48   H23   1.109502 S    
C8    C10   1.397287 A    
O6    C4    1.297045 A    
C41   H7    1.109307 S    
C26   C28   1.397218 A    
C42   H10   1.109179 S    
C49   O17   1.221346 D    
C1    C24   1.475068 S    
C17   C20   1.428982 A    
O2    C2    1.304700 A    
C34   O14   1.383735 S    
C19   C49   1.486236 S    
C30   C32   1.403801 A    
C37   C39   1.454495 A    
C26   C31   1.410828 A    
C38   C40   1.442010 A    
C45   H13   1.107853 S    
C43   H11   1.067481 S    
C47   H19   1.113148 S    
C24   C27   1.409382 A    
O4    C2    1.299541 A    
C9    O16   1.376443 S    
C46   H17   1.107010 S    
O14   C46   1.409256 S    
Zn2   N2    2.027976 S    
C11   H2    1.083212 S    
O6    Zn2   1.951490 S    
C55   O23   1.220152 D    
C41   H5    1.110940 S    
C46   H16   1.109376 S    
C43   O11   1.221147 D    
C5    C9    1.409128 A    
O7    Zn2   1.889372 S    
C58   H41   1.111826 S    
O10   C42   1.408558 S    
O7    C3    1.301439 A    
O15   C47   1.411494 S    
O5    Zn1   1.951491 S    
C6    C10   1.405753 A    
C50   H26   1.084832 S    
C2    C23   1.467185 S    
C54   H33   1.107276 S    
C48   H24   1.116953 S    
C52   O20   1.221222 D    
C29   C31   1.409089 A    
O25   C57   1.415852 S    
O3    Zn2   1.974053 S    
O8    C4    1.310258 A    
N1    C38   1.375642 A    
C51   O19   1.220875 D    
C38   O25   1.381717 S    
C25   C55   1.487135 S    
C27   O22   1.390104 S    
C25   C32   1.408751 A    
C12   C14   1.400438 A    
O1    Zn1   1.961331 S    
C57   H38   1.112734 S    
C58   H40   1.100554 S    
Zn1   N1    2.027974 S    
C12   H1    1.071711 S    
C6    C12   1.387405 A    
C14   C18   1.419464 A    
C36   C43   1.487962 S    
O3    C1    1.311989 A    
O8    Zn1   1.889374 S    
C46   H18   1.112153 S    
N1    C36   1.381645 A    
N2    C37   1.384567 A    
C33   C40   1.406936 A    
O21   C53   1.413394 S    
C34   C39   1.419661 A    
C51   H27   1.082969 S    
C7    C15   1.407429 A    
C21   O9    1.388068 S    
C57   H39   1.106564 S    
C11   C13   1.393284 A    
C57   H37   1.107142 S    
C58   H42   1.109448 S    
C22   O10   1.385841 S    
C24   C29   1.424953 A    
C19   C21   1.412480 A    
C20   C22   1.408637 A    
C14   C16   1.418721 A    
O9    C41   1.413811 S    
C53   H30   1.108801 S    
C23   C30   1.413127 A    
C7    C9    1.399563 A    
C54   H34   1.107545 S    
C33   O13   1.386013 S    
C13   C15   1.408224 A    
C52   H28   1.085540 S    
O2    Zn2   1.961331 S    
C28   O21   1.384436 S    
C56   O24   1.219670 D    
C29   C52   1.488538 S    
C37   O26   1.387436 S    
C42   H8    1.106197 S    
C5    C11   1.390597 A    
O16   C48   1.412688 S    
C10   O15   1.376178 S    
C17   C18   1.417363 A    
C44   O12   1.212563 D    
C7    H3    1.083085 S    
C48   H22   1.106971 S    
C8    H4    1.083324 S    
C53   H31   1.114400 S    
