data_mof_unit_45569.cif
_audit_creation_date              2012-12-10T20:48:45-0500
_audit_creation_method            fapswitch 2.2
_symmetry_space_group_name_H-M    P1
_symmetry_Int_Tables_number       1
_space_group_crystal_system       triclinic
_cell_length_a                    15.747604
_cell_length_b                    8.913573
_cell_length_c                    8.17447
_cell_angle_alpha                 89.979621
_cell_angle_beta                  91.201632
_cell_angle_gamma                 89.829355
_cell_volume                      1147.17172263

loop_
_atom_site_label
_atom_site_type_symbol
_atom_type_description
_atom_site_fract_x
_atom_site_fract_y
_atom_site_fract_z
_atom_type_partial_charge
C1    C     C_R   0.500063 0.218283 0.500020 0.926504
C2    C     C_1   0.825712 0.520352 0.510561 0.074023
C3    C     C_1   0.173997 0.511727 0.496836 0.126764
C4    C     C_R   0.337987 0.500390 0.498315 0.886937
C5    C     C_R   0.662008 0.500013 0.501789 0.879791
C6    C     C_1   0.500101 0.934689 0.499976 -0.201880
C7    C     C_1   0.500104 0.065277 0.500028 -0.202931
C8    C     C_R   0.500047 0.781688 0.499983 0.931855
C9    C     C_3   0.052627 0.480649 0.682891 0.332248
C10   C     C_3   0.044290 0.386047 0.399666 0.204147
C11   C     C_3   0.954268 0.507525 0.689085 0.219545
C12   C     C_3   0.946414 0.394177 0.403062 0.262227
C13   C     C_1   0.750624 0.509418 0.506711 -0.246261
C14   C     C_1   0.249214 0.505910 0.494870 -0.218658
C15   C     C_3   0.082620 0.519059 0.503386 -0.226802
C16   C     C_3   0.917215 0.530401 0.509883 -0.210810
C17   C     C_3   0.948714 0.686946 0.437985 0.888238
C18   C     C_3   0.050132 0.686459 0.458216 0.808659
H1    H     H_    0.926511 0.402893 0.741788 0.039752
H2    H     H_    0.925378 0.289725 0.467258 0.018986
H3    H     H_    0.061335 0.358497 0.710364 -0.009367
H4    H     H_    0.063439 0.281048 0.466618 0.028422
N1    N     N_1   0.500000 0.500030 0.073640 -0.038986
N2    N     N_1   0.500000 0.500030 0.926360 -0.039747
O1    O     O_R   0.500000 0.285340 0.636850 -0.614928
O2    O     O_R   0.500000 0.285340 0.363150 -0.615634
O3    O     O_R   0.377140 0.500000 0.636930 -0.619682
O4    O     O_R   0.377140 0.500000 0.363070 -0.613967
O5    O     O_R   0.622860 0.500000 0.636930 -0.621237
O6    O     O_R   0.622860 0.500000 0.363070 -0.608466
O7    O     O_R   0.500000 0.714650 0.636900 -0.613832
O8    O     O_R   0.500000 0.714650 0.363100 -0.613655
Zn1   Zn    Zn3+2 0.500000 0.499990 0.682780 0.974056
Zn2   Zn    Zn3+2 0.500000 0.499990 0.317220 0.980314
O9    O     O_3   0.070488 0.772479 0.602762 -0.530467
C19   C     C_3   0.092767 0.924430 0.577255 -0.097524
H5    H     H_    0.045389 0.984451 0.499229 0.139842
H6    H     H_    0.157145 0.932512 0.524890 0.158059
H7    H     H_    0.094962 0.982041 0.697516 0.137781
O10   O     O_3   0.091592 0.758773 0.324072 -0.696239
C20   C     C_3   0.104928 0.675962 0.181398 -0.199660
H8    H     H_    0.047609 0.616206 0.137123 0.284371
H9    H     H_    0.161520 0.603423 0.197060 0.193078
H10   H     H_    0.120653 0.756481 0.083193 0.195011
O11   O     O_3   0.916962 0.810292 0.533139 -0.587567
C21   C     C_3   0.829769 0.846662 0.511251 -0.275712
H11   H     H_    0.797657 0.793013 0.404492 0.181738
H12   H     H_    0.823912 0.969880 0.495067 0.147335
H13   H     H_    0.795367 0.816482 0.623547 0.181108
O12   O     O_3   0.922281 0.698229 0.269702 -0.627683
C22   C     C_3   0.928009 0.844826 0.202172 -0.307430
H14   H     H_    0.961127 0.839049 0.084046 0.215261
H15   H     H_    0.962287 0.926825 0.280456 0.177279
H16   H     H_    0.863299 0.888708 0.174773 0.149497
O13   O     O_3   0.074654 0.377369 0.237701 -0.577067
C23   C     C_3   0.090863 0.227111 0.191236 -0.266456
H17   H     H_    0.039103 0.150074 0.226224 0.148939
H18   H     H_    0.152100 0.188317 0.246731 0.154697
H19   H     H_    0.095437 0.220716 0.056319 0.170946
O14   O     O_3   0.096508 0.565132 0.805699 -0.496630
C24   C     C_3   0.170950 0.491028 0.864689 -0.286023
H20   H     H_    0.194694 0.398819 0.786244 0.130409
H21   H     H_    0.159070 0.441306 0.984994 0.194976
H22   H     H_    0.222448 0.574850 0.879805 0.189786
O15   O     O_3   0.911963 0.404233 0.241229 -0.514197
C25   C     C_3   0.857747 0.282369 0.204141 -0.278932
H23   H     H_    0.892311 0.174019 0.212927 0.132965
H24   H     H_    0.833587 0.294499 0.076399 0.167861
H25   H     H_    0.802110 0.280910 0.285419 0.156659
O16   O     O_3   0.936912 0.635458 0.786774 -0.490750
C26   C     C_3   0.866340 0.612216 0.887082 -0.191769
H26   H     H_    0.887021 0.550890 0.997805 0.256722
H27   H     H_    0.813451 0.550649 0.825953 0.122410
H28   H     H_    0.840749 0.722744 0.923963 0.171752

loop_
_geom_bond_atom_site_label_1
_geom_bond_atom_site_label_2
_ccdc_geom_bond_type
C17   O12   S    
C26   H28   S    
C25   H24   S    
O13   C23   S    
O7    Zn1   S    
O16   C26   S    
N2    Zn1   S    
C15   C18   S    
C2    C16   S    
C12   O15   S    
C20   H9    S    
C5    C13   S    
O9    C19   S    
C23   H19   S    
N1    N2    T    
N1    Zn2   S    
C9    H3    S    
C22   H16   S    
C19   H6    S    
C25   H23   S    
C9    C15   S    
C11   O16   S    
O4    Zn2   S    
C26   H26   S    
O11   C21   S    
O3    Zn1   S    
C24   H22   S    
C1    O1    A    
C10   O13   S    
C9    C11   S    
C21   H13   S    
C11   H1    S    
C6    C7    T    
C3    C14   T    
C10   C12   S    
C12   H2    S    
O14   C24   S    
C18   O9    S    
O10   C20   S    
C4    O4    A    
C23   H18   S    
C17   C18   S    
C5    O5    A    
C10   C15   S    
C19   H7    S    
C4    C14   S    
C24   H20   S    
C20   H10   S    
C21   H12   S    
C1    O2    A    
C25   H25   S    
O6    Zn2   S    
C22   H14   S    
C8    O8    A    
O5    Zn1   S    
C4    O3    A    
C3    C15   S    
C23   H17   S    
C24   H21   S    
O15   C25   S    
C20   H8    S    
O1    Zn1   S    
C26   H27   S    
C2    C13   T    
C18   O10   S    
C21   H11   S    
C19   H5    S    
C6    C8    S    
O12   C22   S    
C1    C7    S    
C8    O7    A    
O2    Zn2   S    
C11   C16   S    
C10   H4    S    
C12   C16   S    
C5    O6    A    
C17   O11   S    
C16   C17   S    
C22   H15   S    
C9    O14   S    
O8    Zn2   S    
