data_mof_unit_49728.cif
_audit_creation_date              2012-12-10T20:43:17-0500
_audit_creation_method            fapswitch 2.2
_symmetry_space_group_name_H-M    P1
_symmetry_Int_Tables_number       1
_space_group_crystal_system       triclinic
_cell_length_a                    15.797112
_cell_length_b                    10.702646
_cell_length_c                    9.938793
_cell_angle_alpha                 89.476848
_cell_angle_beta                  87.873743
_cell_angle_gamma                 90.396193
_cell_volume                      1679.08948258

loop_
_atom_site_label
_atom_site_type_symbol
_atom_type_description
_atom_site_fract_x
_atom_site_fract_y
_atom_site_fract_z
_atom_type_partial_charge
C1    C     C_R   0.499569 0.260224 0.500330 0.888632
C2    C     C_R   0.039278 0.482060 0.620942 -0.289756
C3    C     C_1   0.824014 0.493050 0.493184 -0.057421
C4    C     C_1   0.175922 0.495462 0.505259 0.025187
C5    C     C_1   0.250901 0.497711 0.506122 -0.141041
C6    C     C_1   0.749032 0.495956 0.493883 -0.197762
C7    C     C_R   0.466150 0.062108 0.614661 -0.022822
C8    C     C_R   0.492000 0.128184 0.498813 -0.076773
C9    C     C_R   0.503664 0.065300 0.376279 -0.213613
C10   C     C_R   0.502717 0.936649 0.375642 -0.228929
C11   C     C_R   0.488862 0.871050 0.497165 -0.075544
C12   C     C_R   0.339488 0.499778 0.502112 0.895696
C13   C     C_R   0.463369 0.934410 0.613477 0.003257
C14   C     C_3   0.489876 0.921405 0.756252 -0.177497
C15   C     C_3   0.495317 0.064283 0.756972 0.258700
C16   C     C_R   0.426121 0.487540 0.075632 0.232697
C17   C     C_R   0.572848 0.525267 0.062955 0.087849
C18   C     C_R   0.570960 0.526113 0.920465 -0.139895
C19   C     C_R   0.426143 0.487981 0.933797 0.129811
C20   C     C_3   0.364274 0.382538 0.931628 -0.554303
C21   C     C_3   0.365153 0.380594 0.084879 0.202376
C22   C     C_R   0.498396 0.739592 0.499461 0.859226
C23   C     C_R   0.660500 0.499451 0.497940 0.910672
C24   C     C_R   0.951743 0.481043 0.618177 -0.171488
C25   C     C_R   0.912905 0.490812 0.494878 0.135633
C26   C     C_R   0.960154 0.500943 0.373875 -0.319398
C27   C     C_R   0.048585 0.502026 0.375719 0.470780
C28   C     C_R   0.086990 0.492903 0.500382 0.107467
H1    H     H_    0.069768 0.475057 0.716629 0.163404
H2    H     H_    0.627509 0.546315 0.859377 0.161253
H3    H     H_    0.302855 0.412011 0.890801 0.225331
H4    H     H_    0.391807 0.297779 0.884784 0.176025
H5    H     H_    0.392025 0.294648 0.130267 0.104531
H6    H     H_    0.914413 0.473478 0.711673 0.150140
H7    H     H_    0.928366 0.508636 0.279337 0.136281
H8    H     H_    0.519001 0.114410 0.282605 0.169646
H9    H     H_    0.518729 0.889614 0.282193 0.164037
H10   H     H_    0.551677 0.873131 0.764890 0.183029
H11   H     H_    0.449632 0.109891 0.827870 0.122365
N1    N     N_R   0.499440 0.499140 0.142800 -0.151146
N2    N     N_R   0.499440 0.499180 0.857150 -0.108596
O1    O     O_R   0.500010 0.316790 0.614690 -0.578876
O2    O     O_R   0.500000 0.316760 0.385350 -0.638791
O3    O     O_R   0.378030 0.499990 0.614640 -0.630265
O4    O     O_R   0.378020 0.499950 0.385300 -0.559981
O5    O     O_R   0.500000 0.683240 0.614650 -0.626253
O6    O     O_R   0.499990 0.683210 0.385310 -0.645336
O7    O     O_R   0.621980 0.500050 0.614700 -0.613281
O8    O     O_R   0.621970 0.500010 0.385360 -0.631475
Zn1   Zn    Zn3+2 0.500010 0.500020 0.653130 0.956480
Zn2   Zn    Zn3+2 0.499990 0.499980 0.346870 0.947822
O9    O     O_3   0.578522 0.110359 0.768024 -0.745104
H12   H     H_    0.615730 0.069528 0.698922 0.334965
C29   C     C_3   0.660192 0.551104 0.115050 -0.335894
C30   C     C_3   0.669288 0.685680 0.165369 -0.320315
C31   C     C_3   0.761312 0.718248 0.192302 -0.901396
H13   H     H_    0.787005 0.652188 0.266686 0.270595
H14   H     H_    0.800732 0.714395 0.097551 0.260128
H15   H     H_    0.765036 0.814316 0.233030 0.255273
H16   H     H_    0.646525 0.751951 0.088075 0.198389
H17   H     H_    0.630924 0.699904 0.258612 0.261906
H18   H     H_    0.680874 0.476686 0.183147 0.222419
H19   H     H_    0.708745 0.541449 0.031791 0.160983
O10   O     O_3   0.287549 0.417216 0.144195 -0.692129
H20   H     H_    0.251191 0.341227 0.146994 0.346560
O11   O     O_3   0.098321 0.512405 0.258751 -0.741674
H21   H     H_    0.061019 0.517735 0.180833 0.326914
C32   C     C_3   0.417926 0.866385 0.847841 -0.395236
C33   C     C_3   0.443875 0.857055 0.994594 -0.390801
C34   C     C_3   0.369690 0.812074 0.085808 -0.809169
H22   H     H_    0.318966 0.883443 0.089232 0.254181
H23   H     H_    0.343287 0.723096 0.048317 0.273016
H24   H     H_    0.391229 0.796043 0.189465 0.263450
H25   H     H_    0.496993 0.790134 0.002280 0.221389
H26   H     H_    0.465498 0.949849 0.029800 0.228793
H27   H     H_    0.359943 0.924356 0.841245 0.198249
H28   H     H_    0.401998 0.771143 0.812438 0.236426

loop_
_geom_bond_atom_site_label_1
_geom_bond_atom_site_label_2
_ccdc_geom_bond_type
C30   C31   S    
C16   C21   S    
C1    C8    S    
C19   C20   S    
C3    C6    T    
C7    C8    A    
C26   C27   A    
C10   H9    S    
C23   O8    A    
C21   H5    S    
C29   H19   S    
O4    Zn2   S    
C31   H13   S    
C21   O10   S    
C32   C33   S    
C1    O2    A    
C8    C9    A    
O8    Zn2   S    
C9    H8    S    
C34   H22   S    
C18   H2    S    
C9    C10   A    
O7    Zn1   S    
O11   H21   S    
C13   C14   S    
C4    C28   S    
C3    C25   S    
C24   C25   A    
C5    C12   S    
C18   N2    A    
C12   O4    A    
O6    Zn2   S    
C29   H18   S    
C25   C26   A    
C24   H6    S    
C17   N1    A    
C14   H10   S    
C1    O1    A    
C34   H24   S    
C17   C18   A    
C33   H25   S    
C15   O9    S    
C15   H11   S    
C16   N1    A    
C22   O5    A    
O1    Zn1   S    
C2    H1    S    
C2    C24   A    
N2    Zn1   S    
O9    H12   S    
C20   H4    S    
O3    Zn1   S    
C32   H28   S    
C29   C30   S    
C23   O7    A    
C4    C5    T    
C2    C28   A    
C32   H27   S    
N1    Zn2   S    
O5    Zn1   S    
C11   C22   S    
C31   H15   S    
O10   H20   S    
C12   O3    A    
C27   O11   S    
C11   C13   A    
O2    Zn2   S    
C16   C19   A    
C6    C23   S    
C30   H17   S    
C7    C15   S    
C31   H14   S    
C33   H26   S    
C33   C34   S    
C22   O6    A    
C10   C11   A    
C26   H7    S    
C7    C13   A    
C20   C21   S    
C27   C28   A    
C14   C32   S    
C14   C15   S    
C34   H23   S    
C30   H16   S    
C17   C29   S    
C19   N2    A    
C20   H3    S    
