data_mof_unit_64059.cif
_audit_creation_date              2012-12-10T17:16:44-0500
_audit_creation_method            fapswitch 2.2
_symmetry_space_group_name_H-M    P1
_symmetry_Int_Tables_number       1
_space_group_crystal_system       triclinic
_cell_length_a                    18.926798
_cell_length_b                    18.888588
_cell_length_c                    18.829881
_cell_angle_alpha                 108.95107
_cell_angle_beta                  109.645259
_cell_angle_gamma                 109.790208
_cell_volume                      5183.55484366

loop_
_atom_site_label
_atom_site_type_symbol
_atom_type_description
_atom_site_fract_x
_atom_site_fract_y
_atom_site_fract_z
_atom_type_partial_charge
C1    C     C_R   0.618633 0.118709 0.999810 0.870936
C2    C     C_R   0.821704 0.242107 0.000581 -0.061427
C3    C     C_R   0.814398 0.314350 0.000670 -0.202752
C4    C     C_R   0.742741 0.322525 0.000827 -0.132729
C5    C     C_R   0.679625 0.259077 0.003322 0.348914
C6    C     C_R   0.685266 0.185580 0.999485 -0.196145
C7    C     C_R   0.492638 0.741302 0.819793 0.372540
C8    C     C_R   0.493725 0.677527 0.756776 -0.072429
C9    C     C_R   0.498553 0.687800 0.686992 -0.212164
C10   C     C_R   0.502211 0.761319 0.680072 -0.058983
C11   C     C_R   0.503717 0.826376 0.745085 -0.085056
C12   C     C_R   0.499517 0.116761 0.118629 0.883253
C13   C     C_R   0.499411 0.815848 0.814723 -0.194244
C14   C     C_R   0.317003 0.829095 0.080903 -0.067691
C15   C     C_R   0.255515 0.763090 0.082335 0.310751
C16   C     C_R   0.189740 0.686089 0.004142 -0.103951
C17   C     C_R   0.188744 0.672600 0.926301 -0.135660
C18   C     C_R   0.251619 0.735406 0.923834 -0.051971
C19   C     C_R   0.315038 0.814812 0.001290 -0.139041
C20   C     C_R   0.618757 0.502673 0.621368 0.796062
C21   C     C_R   0.495804 0.385352 0.380991 0.797613
C22   C     C_R   0.381330 0.503994 0.384931 0.816839
C23   C     C_R   0.381416 0.881137 0.000008 0.826663
C24   C     C_R   0.499559 0.621273 0.620853 0.765913
C25   C     C_R   0.883287 0.502703 0.881729 0.799370
C26   C     C_R   0.881324 0.381278 0.000160 0.832556
C27   C     C_R   0.118222 0.499090 0.118252 0.952826
C28   C     C_R   0.120650 0.618874 0.001869 0.876896
C29   C     C_R   0.754097 0.583755 0.764613 -0.065849
C30   C     C_R   0.823108 0.585332 0.826267 -0.073393
C31   C     C_R   0.819638 0.506222 0.814934 -0.062533
C32   C     C_R   0.752513 0.428110 0.740519 -0.152739
C33   C     C_R   0.686489 0.425714 0.676219 -0.073705
C34   C     C_R   0.499713 0.882025 0.881810 0.783193
C35   C     C_R   0.686276 0.503675 0.689059 -0.105794
C36   C     C_R   0.321756 0.503215 0.245664 0.365218
C37   C     C_R   0.257951 0.502762 0.180858 0.293032
C38   C     C_R   0.184432 0.499017 0.185935 -0.270417
C39   C     C_R   0.175204 0.497486 0.256834 0.375820
C40   C     C_R   0.241597 0.502651 0.324698 -0.165665
C41   C     C_R   0.314382 0.504379 0.318018 -0.306629
C42   C     C_2   0.432835 0.234966 0.263543 -0.148820
C43   C     C_2   0.480697 0.322167 0.299463 0.244935
C44   C     C_2   0.427536 0.178672 0.184648 0.294116
C45   C     C_2   0.500235 0.178699 0.189400 0.216261
C46   C     C_R   0.754655 0.175885 0.995771 0.249843
Cu1   Cu    Cu3+1 0.438200 0.000380 0.938580 1.126364
Cu2   Cu    Cu3+1 0.561800 0.999620 0.061420 1.166202
Cu3   Cu    Cu3+1 0.438220 0.441470 0.503160 1.067960
Cu4   Cu    Cu3+1 0.561830 0.565070 0.503150 1.131186
Cu5   Cu    Cu3+1 0.999900 0.438590 0.938490 1.100164
Cu6   Cu    Cu3+1 0.999930 0.561410 0.061340 1.146416
H1    H     H_    0.138463 0.612223 0.867065 0.208410
H2    H     H_    0.752053 0.368450 0.732658 0.194938
O1    O     O_R   0.537990 0.090490 0.948120 -0.563455
O2    O     O_R   0.642390 0.554900 0.592760 -0.552457
O3    O     O_R   0.447840 0.361480 0.413570 -0.581247
O4    O     O_R   0.552220 0.465860 0.413560 -0.520619
O5    O     O_R   0.357660 0.451630 0.413550 -0.587303
O6    O     O_R   0.462040 0.556010 0.413540 -0.539321
O7    O     O_R   0.447820 0.540680 0.592750 -0.596336
O8    O     O_R   0.552200 0.645050 0.592740 -0.556648
O9    O     O_R   0.909730 0.448730 0.858460 -0.593925
O10   O     O_R   0.909750 0.552440 0.962210 -0.574536
O11   O     O_R   0.909720 0.357980 0.948050 -0.581364
O12   O     O_R   0.642370 0.089850 0.051860 -0.530863
O13   O     O_R   0.909750 0.461690 0.051790 -0.569953
O14   O     O_R   0.090070 0.447560 0.037620 -0.530214
O15   O     O_R   0.090100 0.551270 0.141360 -0.538979
O16   O     O_R   0.090070 0.538310 0.948030 -0.583306
O17   O     O_R   0.090100 0.642020 0.051770 -0.514661
O18   O     O_R   0.447800 0.089920 0.037730 -0.529272
O19   O     O_R   0.552180 0.089280 0.141460 -0.542912
O20   O     O_R   0.357630 0.910150 0.948140 -0.582712
O21   O     O_R   0.462010 0.909510 0.051880 -0.553887
O22   O     O_R   0.447820 0.910720 0.858540 -0.614962
O23   O     O_R   0.552200 0.910080 0.962270 -0.513773
O24   O     O_R   0.538000 0.450530 0.592770 -0.593495
C47   C     C_2   0.395569 0.189985 0.304527 0.457792
H3    H     H_    0.332172 0.131757 0.264447 0.130631
O25   O     O_2   0.437712 0.212680 0.381014 -0.499716
C48   C     C_2   0.494420 0.602216 0.765889 0.547547
H4    H     H_    0.535275 0.578848 0.750424 0.089774
O26   O     O_2   0.447261 0.563538 0.787451 -0.439587
C49   C     C_2   0.503691 0.768853 0.604176 0.545890
H5    H     H_    0.460559 0.713018 0.539383 0.024868
O27   O     O_2   0.555427 0.835999 0.613786 -0.470240
C50   C     C_2   0.510039 0.905913 0.741633 0.535828
H6    H     H_    0.552056 0.968593 0.800412 0.062943
O28   O     O_2   0.465675 0.901691 0.674335 -0.480270
C51   C     C_2   0.381324 0.912961 0.162905 0.480399
H7    H     H_    0.407820 0.914350 0.224454 0.143945
O29   O     O_2   0.402936 0.981652 0.163061 -0.550605
Cl1   Cl    Cl    0.262254 0.776720 0.182680 -0.551442
C52   C     C_2   0.251868 0.715514 0.840599 0.490435
H8    H     H_    0.305935 0.757637 0.838658 0.072020
O30   O     O_2   0.191637 0.650707 0.772662 -0.489446
C53   C     C_2   0.754580 0.666461 0.779320 0.380987
H9    H     H_    0.814954 0.725633 0.807752 0.090113
O31   O     O_2   0.688073 0.669873 0.762395 -0.556184
C54   C     C_2   0.898599 0.669788 0.901465 0.393496
H10   H     H_    0.888797 0.721546 0.934087 0.082801
O32   O     O_2   0.972655 0.683226 0.925668 -0.517807
Cl2   Cl    Cl    0.520560 0.366830 0.241961 -0.386124
C55   C     C_2   0.620761 0.341801 0.594622 0.474993
H11   H     H_    0.577936 0.339697 0.537761 0.114199
O33   O     O_2   0.614369 0.273527 0.589444 -0.476585
Cl3   Cl    Cl    0.409087 0.498571 0.233127 -0.388967
Cl4   Cl    Cl    0.273112 0.511021 0.095337 -0.433288
Cl5   Cl    Cl    0.080338 0.489598 0.260356 -0.433450
C56   C     C_2   0.238221 0.510915 0.404823 0.572143
H12   H     H_    0.297582 0.551368 0.467416 0.010353
O34   O     O_2   0.170432 0.470848 0.401882 -0.429136
Cl6   Cl    Cl    0.323707 0.105241 0.091376 -0.502782
Cl7   Cl    Cl    0.600132 0.242454 0.289645 -0.488636
Cl8   Cl    Cl    0.757446 0.079883 0.984454 -0.589015
C57   C     C_2   0.899994 0.235690 0.008477 0.518642
H13   H     H_    0.893630 0.173740 0.972640 0.123473
O35   O     O_2   0.972702 0.298941 0.057869 -0.513111
C58   C     C_2   0.732209 0.395085 0.993669 0.555371
H14   H     H_    0.750252 0.417231 0.952656 0.012353
O36   O     O_2   0.706427 0.432727 0.035356 -0.416844
Cl9   Cl    Cl    0.592638 0.270869 0.010522 -0.427744
Cl10  Cl    Cl    0.482710 0.728157 0.905920 -0.499218

loop_
_geom_bond_atom_site_label_1
_geom_bond_atom_site_label_2
_ccdc_geom_bond_type
C16   C28   S    
C10   C49   S    
C25   C31   S    
C54   H10   S    
C36   Cl3   S    
C52   H8    S    
C7    Cl10  S    
C20   O2    A    
C15   Cl1   S    
C7    C8    A    
C49   H5    S    
C2    C46   A    
C5    C6    A    
C55   O33   D    
C29   C30   A    
C29   C53   S    
C8    C48   S    
C26   O13   A    
C36   C37   A    
Cu1   O22   S    
C57   O35   D    
C34   O23   A    
Cu5   O11   S    
C38   C39   A    
C22   C41   S    
C27   C38   S    
C15   C16   A    
Cu3   O3    S    
Cu3   O24   S    
C18   C19   A    
C25   O9    A    
C43   Cl2   S    
C27   O14   A    
C21   C43   S    
C20   C35   S    
C39   Cl5   S    
Cu1   Cu2   S    
C8    C9    A    
Cu6   O15   S    
Cu5   O16   S    
C9    C10   A    
C37   Cl4   S    
C27   O15   A    
C12   O18   A    
C44   Cl6   S    
C42   C47   S    
C54   O32   D    
C12   O19   A    
C18   C52   S    
Cu2   O21   S    
C36   C41   A    
C42   C44   S    
C14   C19   A    
C32   H2    S    
C2    C57   S    
C58   O36   D    
C17   C18   A    
C40   C56   S    
C49   O27   D    
Cu1   O18   S    
Cu3   O7    S    
Cu5   Cu6   S    
Cu4   O4    S    
C33   C55   S    
Cu6   O10   S    
C22   O5    A    
C47   O25   D    
C16   C17   A    
C48   H4    S    
Cu4   O2    S    
C1    C6    S    
C25   O10   A    
Cu2   O23   S    
C19   C23   S    
C21   O3    A    
C37   C38   A    
C51   O29   D    
C45   Cl7   S    
C31   C32   A    
C7    C13   A    
C11   C50   S    
C1    O12   A    
Cu5   O9    S    
C56   O34   D    
Cu6   O13   S    
C24   O7    A    
C40   C41   A    
C50   O28   D    
C53   H9    S    
C53   O31   D    
Cu4   O8    S    
C28   O17   A    
C42   C43   D    
C23   O20   A    
C3    C4    A    
C17   H1    S    
C39   C40   A    
C58   H14   S    
Cu1   O1    S    
C5    Cl9   S    
C24   O8    A    
C6    C46   A    
C56   H12   S    
C26   O11   A    
Cu2   O19   S    
C3    C26   S    
C28   O16   A    
C44   C45   D    
Cu1   O20   S    
C23   O21   A    
C12   C45   S    
C52   O30   D    
C9    C24   S    
C20   O24   A    
C55   H11   S    
C29   C35   A    
C48   O26   D    
Cu3   O5    S    
C46   Cl8   S    
Cu4   O6    S    
C32   C33   A    
C2    C3    A    
C1    O1    A    
C13   C34   S    
Cu6   O17   S    
C57   H13   S    
C22   O6    A    
C11   C13   A    
C30   C31   A    
C4    C5    A    
C30   C54   S    
C33   C35   A    
Cu5   O14   S    
C14   C51   S    
C10   C11   A    
C47   H3    S    
C21   O4    A    
C50   H6    S    
Cu3   Cu4   S    
C14   C15   A    
C4    C58   S    
Cu2   O12   S    
C51   H7    S    
C34   O22   A    
