data_mof_unit_28158.cif
_audit_creation_date              2012-12-10T17:17:23-0500
_audit_creation_method            fapswitch 2.2
_symmetry_space_group_name_H-M    P1
_symmetry_Int_Tables_number       1
_space_group_crystal_system       triclinic
_cell_length_a                    10.184313
_cell_length_b                    10.792321
_cell_length_c                    12.240064
_cell_angle_alpha                 90.654228
_cell_angle_beta                  109.28277
_cell_angle_gamma                 96.0479
_cell_volume                      1261.26251195

loop_
_atom_site_label
_atom_site_type_symbol
_atom_type_description
_atom_site_fract_x
_atom_site_fract_y
_atom_site_fract_z
_atom_type_partial_charge
C1    C     C_R   0.054199 0.732928 0.496543 0.966127
C2    C     C_R   0.203242 0.509283 0.840659 -0.190969
C3    C     C_2   0.092314 0.866257 0.507035 -0.343740
C4    C     C_R   0.133441 0.509112 0.714877 0.895013
C5    C     C_2   0.014024 0.936662 0.544346 -0.103157
C6    C     C_2   0.929236 0.136433 0.530248 -0.386293
C7    C     C_2   0.035576 0.069488 0.541622 -0.131313
C8    C     C_2   0.432949 0.511034 0.510269 -0.116395
C9    C     C_2   0.567305 0.488029 0.490667 -0.105966
C10   C     C_R   0.950371 0.267644 0.511357 0.934445
C11   C     C_R   0.865382 0.486563 0.285679 0.862533
C12   C     C_R   0.415116 0.476996 0.995886 0.100474
C13   C     C_R   0.726760 0.325046 0.991213 -0.129952
C14   C     C_R   0.786169 0.458899 0.164047 -0.044840
C15   C     C_R   0.160809 0.581340 0.918636 -0.015776
C16   C     C_R   0.238928 0.587801 0.036396 -0.186832
C17   C     C_R   0.366541 0.539795 0.074461 -0.216821
C18   C     C_2   0.515766 0.224424 0.767066 0.891271
C19   C     C_2   0.041628 0.656792 0.881350 0.932147
C20   C     C_R   0.322569 0.444646 0.883916 0.056719
C21   C     C_R   0.552891 0.445559 0.025365 0.070645
C22   C     C_R   0.589867 0.360799 0.953439 0.077042
C23   C     C_R   0.487147 0.311356 0.849121 -0.052964
C24   C     C_R   0.354126 0.351660 0.817264 -0.237702
C25   C     C_R   0.656067 0.501149 0.123698 -0.222914
C26   C     C_R   0.823602 0.372429 0.097037 -0.173356
H1    H     H_    0.924447 0.337121 0.128825 0.154300
H2    H     H_    0.635604 0.575569 0.173484 0.149091
H3    H     H_    0.424782 0.551585 0.166082 0.141775
H4    H     H_    0.206335 0.638436 0.098175 0.165858
H5    H     H_    0.275699 0.310524 0.738500 0.187505
H6    H     H_    0.136630 0.111218 0.539331 0.211762
H7    H     H_    0.642347 0.183955 0.678065 0.340010
H8    H     H_    0.947347 0.787976 0.777155 0.333304
H9    H     H_    0.925387 0.896517 0.568328 0.185026
H10   H     H_    0.828398 0.094325 0.532477 0.153192
H11   H     H_    0.180566 0.906813 0.482887 0.157637
H12   H     H_    0.564605 0.414300 0.428669 0.159224
H13   H     H_    0.435800 0.584248 0.572791 0.173115
H14   H     H_    0.684786 0.622492 0.603422 0.173606
H15   H     H_    0.315146 0.377884 0.396201 0.163972
H16   H     H_    0.758133 0.255885 0.943378 0.177739
N1    N     N_2   0.313640 0.446500 0.454900 -0.193730
N2    N     N_2   0.686360 0.553430 0.545150 -0.178479
O1    O     O_R   0.936910 0.692950 0.509080 -0.601278
O2    O     O_R   0.636396 0.248614 0.736482 -0.808268
O3    O     O_2   0.954338 0.648774 0.930412 -0.627726
O4    O     O_R   0.032765 0.741385 0.794186 -0.794442
O5    O     O_R   0.138320 0.658600 0.480130 -0.607497
O6    O     O_R   0.002900 0.525670 0.675280 -0.573472
O7    O     O_R   0.204310 0.491320 0.646330 -0.611982
O8    O     O_R   0.861680 0.341400 0.519870 -0.597679
O9    O     O_R   0.063090 0.307050 0.490920 -0.617149
O10   O     O_R   0.795690 0.508680 0.353670 -0.619005
O11   O     O_R   0.997100 0.474330 0.324720 -0.606938
O12   O     O_2   0.430195 0.134624 0.721877 -0.639644
Zn1   Zn    Zn3+2 0.865520 0.522940 0.519330 0.975040
Zn2   Zn    Zn3+2 0.134480 0.477060 0.480670 0.947709

loop_
_geom_bond_atom_site_label_1
_geom_bond_atom_site_label_2
_ccdc_geom_bond_type
C12   C17   A    
C6    C10   S    
C2    C4    S    
C23   C24   A    
C6    C7    D    
C2    C15   A    
C8    H13   S    
C17   H3    S    
C8    N1    D    
C18   O12   D    
N2    Zn1   S    
O9    Zn2   S    
C10   O8    A    
C12   C20   A    
C24   H5    S    
O7    Zn2   S    
C21   C22   A    
C14   C26   A    
C25   H2    S    
C15   C19   S    
H7    O2    S    
H15   N1    S    
C1    O1    A    
C26   H1    S    
C16   C17   A    
C11   O10   A    
C1    O5    A    
C5    H9    S    
C13   H16   S    
C6    H10   S    
C13   C22   A    
C14   C25   A    
O1    Zn1   S    
C11   C14   S    
C19   O3    D    
C13   C26   A    
H8    O4    S    
O8    Zn1   S    
C4    O7    A    
C16   H4    S    
C15   C16   A    
C18   O2    S    
H14   N2    S    
C11   O11   A    
C3    H11   S    
O11   Zn2   S    
C5    C7    S    
C10   O9    A    
C21   C25   A    
C22   C23   A    
C9    H12   S    
C9    N2    D    
C7    H6    S    
N1    Zn2   S    
C3    C5    D    
C19   O4    S    
O6    Zn1   S    
C2    C20   A    
C12   C21   A    
C20   C24   A    
O5    Zn2   S    
C18   C23   S    
C4    O6    A    
C8    C9    S    
C1    C3    S    
O10   Zn1   S    
