data_mof_unit_54462.cif
_audit_creation_date              2013-03-05T15:41:38-0500
_audit_creation_method            fapswitch 2.2
_symmetry_space_group_name_H-M    P1
_symmetry_Int_Tables_number       1
_space_group_crystal_system       triclinic
_cell_length_a                    7.907868
_cell_length_b                    8.691179
_cell_length_c                    15.713311
_cell_angle_alpha                 92.51454
_cell_angle_beta                  88.23724
_cell_angle_gamma                 92.750644
_cell_volume                      1077.22800407

loop_
_atom_site_label
_atom_site_type_symbol
_atom_site_description
_atom_site_fract_x
_atom_site_fract_y
_atom_site_fract_z
_atom_type_partial_charge
O1    O     O_R   0.389240 0.738570 0.505550 -0.611860
O2    O     O_R   0.678400 0.711630 0.491050 -0.581410
C1    C     C_R   0.545163 0.793864 0.502007 0.890724
O3    O     O_R   0.355360 0.513470 0.630110 -0.577867
O4    O     O_R   0.644510 0.486530 0.615610 -0.630527
C2    C     C_R   0.506513 0.507060 0.660871 0.901384
Zn1   Zn    Zn3+2 0.306930 0.517990 0.509680 1.047809
Zn2   Zn    Zn3+2 0.693070 0.482010 0.490320 1.048774
O5    O     O_R   0.321600 0.288370 0.508950 -0.614317
O6    O     O_R   0.610760 0.261430 0.494450 -0.612329
O7    O     O_R   0.355490 0.513470 0.384390 -0.620171
O8    O     O_R   0.644640 0.486530 0.369890 -0.580973
C3    C     C_R   0.456545 0.206665 0.505334 0.958849
C4    C     C_R   0.493773 0.494095 0.339037 0.889441
C5    C     C_3   0.353753 0.615757 0.950848 0.041696
C6    C     C_3   0.682880 0.598694 0.961976 -0.416965
C7    C     C_3   0.656266 0.609709 0.063218 -0.266308
H1    H     H_    0.777170 0.511891 0.949649 0.276520
C8    C     C_1   0.479024 0.485846 0.250538 0.026302
C9    C     C_3   0.516715 0.526744 0.916671 -0.159691
C10   C     C_3   0.324588 0.569074 0.047460 0.055387
C11   C     C_3   0.491553 0.503026 0.083546 -0.122650
C12   C     C_3   0.508243 0.335972 0.038623 -0.388086
C13   C     C_3   0.497722 0.346178 0.936979 0.040242
C14   C     C_1   0.475003 0.486778 0.175140 0.119667
C15   C     C_1   0.529338 0.534127 0.824414 0.166215
C16   C     C_1   0.523379 0.525005 0.749028 0.036815
H2    H     H_    0.395992 0.267637 0.062084 0.199020
H3    H     H_    0.237272 0.467217 0.046524 0.194941
C17   C     C_2   0.570307 0.956316 0.517814 -0.238743
C18   C     C_2   0.436488 0.043359 0.507803 -0.361133
H4    H     H_    0.312519 0.993422 0.491146 0.213887
N1    N     N_2   0.950340 0.457950 0.477370 -0.195441
H5    H     H_    0.008690 0.406078 0.424909 0.208365
N2    N     N_2   0.049660 0.542050 0.522630 -0.166929
N3    N     N_R   0.233876 0.682191 0.103534 0.277972
O9    O     O_R   0.128748 0.771323 0.070568 -0.253346
O10   O     O_R   0.208979 0.658278 0.184191 -0.340926
N4    N     N_R   0.203517 0.567415 0.898801 0.245153
O11   O     O_R   0.077675 0.483155 0.928559 -0.274765
O12   O     O_R   0.192572 0.609940 0.820779 -0.340991
C19   C     C_2   0.649771 0.243780 0.073776 0.932032
O13   O     O_2   0.637265 0.205028 0.147687 -0.621822
O14   O     O_R   0.792956 0.203525 0.024788 -0.709148
H6    H     H_    0.883436 0.157650 0.058692 0.387917
C20   C     C_2   0.735288 0.015592 0.553091 1.040442
O15   O     O_2   0.868586 0.981090 0.517350 -0.573757
O16   O     O_R   0.736808 0.110613 0.627305 -0.748628
H7    H     H_    0.855783 0.144161 0.644760 0.370906
C21   C     C_2   0.983570 0.587952 0.603798 1.156384
O17   O     O_2   0.941787 0.720352 0.617663 -0.600562
O18   O     O_R   0.975122 0.483428 0.669080 -0.752853
H8    H     H_    0.925583 0.529269 0.724264 0.376179
C22   C     C_2   0.380745 0.791419 0.940480 1.021686
O19   O     O_2   0.378752 0.843536 0.869425 -0.484104
O20   O     O_R   0.402621 0.894673 0.010011 -0.744519
H9    H     H_    0.413170 0.005850 0.994065 0.381746
C23   C     C_2   0.771332 0.738831 0.920841 1.042286
O21   O     O_2   0.707655 0.803720 0.863350 -0.558924
O22   O     O_R   0.934951 0.785675 0.943836 -0.662627
H10   H     H_    0.982705 0.876989 0.911298 0.392562
C24   C     C_2   0.645856 0.775085 0.100568 1.006359
O23   O     O_2   0.532914 0.810457 0.151521 -0.527547
O24   O     O_R   0.785098 0.877853 0.090394 -0.722494
H11   H     H_    0.789475 0.960678 0.137637 0.376159
C25   C     C_2   0.807863 0.553817 0.111785 1.010413
O25   O     O_2   0.820242 0.585381 0.188291 -0.585229
O26   O     O_R   0.929616 0.463967 0.072407 -0.726515
H12   H     H_    0.000628 0.414834 0.115545 0.347409
N5    N     N_R   0.332671 0.278867 0.905617 0.228851
O27   O     O_R   0.220153 0.211068 0.955332 -0.353315
O28   O     O_R   0.306783 0.267835 0.824032 -0.320422
C26   C     C_2   0.631166 0.249845 0.887693 1.032198
O29   O     O_2   0.613602 0.109373 0.885639 -0.517372
O30   O     O_R   0.768885 0.317648 0.842692 -0.779611
H13   H     H_    0.844358 0.238994 0.813555 0.402182

loop_
_geom_bond_atom_site_label_1
_geom_bond_atom_site_label_2
_geom_bond_distance
_ccdc_geom_bond_type
O1    C1    1.302164 A    
O4    Zn2   1.993241 S    
C25   O26   1.383029 S    
O30   H13   1.013904 S    
O6    C3    1.296771 A    
C24   O23   1.222284 D    
C7    C24   1.533452 S    
C1    C17   1.428293 S    
C26   O29   1.221231 D    
C17   C20   1.493222 S    
C21   O18   1.397752 S    
C2    C16   1.396938 S    
C6    C9    1.601275 S    
C17   C18   1.346994 D    
Zn2   O8    1.944678 S    
O24   H11   1.011321 S    
N2    C21   1.411862 S    
N3    O10   1.300798 A    
N1    H5    1.029386 S    
C15   C16   1.185970 T    
C13   N5    1.493193 S    
N4    O12   1.302480 A    
C10   N3    1.486687 S    
C6    C23   1.532954 S    
C10   C11   1.594278 S    
O20   H9    1.007785 S    
Zn1   O7    1.993241 S    
C26   O30   1.400328 S    
C5    N4    1.496183 S    
C7    C25   1.549259 S    
O4    C2    1.299343 A    
C12   C19   1.537090 S    
C19   O14   1.399215 S    
O22   H10   1.014317 S    
O3    Zn1   1.944680 S    
C24   O24   1.393939 S    
Zn1   N2    2.058101 S    
O3    C2    1.307585 A    
N3    O9    1.297333 A    
N1    N2    1.261173 D    
O8    C4    1.307134 A    
O2    C1    1.304181 A    
C22   O20   1.392709 S    
Zn2   N1    2.058101 S    
O1    Zn1   1.997925 S    
C5    C9    1.601330 S    
C8    C14   1.186554 T    
O7    C4    1.300471 A    
C20   O16   1.399096 S    
C13   C26   1.546591 S    
C12   H2    1.106821 S    
C19   O13   1.223137 D    
C12   C13   1.608436 S    
C23   O22   1.391302 S    
C5    C22   1.546396 S    
C9    C13   1.614171 S    
C5    C10   1.595601 S    
N5    O27   1.302497 A    
C25   O25   1.227104 D    
O14   H6    1.012025 S    
Zn2   O6    1.997925 S    
C20   O15   1.222947 D    
N4    O11   1.294881 A    
Zn1   O5    2.004099 S    
O5    C3    1.308324 A    
C22   O19   1.223993 D    
O16   H7    1.013875 S    
N5    O28   1.303088 A    
C21   O17   1.220999 D    
C23   O21   1.219689 D    
C11   C12   1.595755 S    
C10   H3    1.096120 S    
C4    C8    1.397481 S    
C3    C18   1.422666 S    
C18   H4    1.087612 S    
O2    Zn2   2.004100 S    
C7    C11   1.594610 S    
C6    C7    1.597570 S    
O18   H8    1.013835 S    
O26   H12   1.014392 S    
C9    C15   1.454041 S    
C11   C14   1.453597 S    
C6    H1    1.093126 S    
