data_mof_unit_41999.cif
_audit_creation_date              2012-12-11T15:41:30-0500
_audit_creation_method            fapswitch 2.2
_symmetry_space_group_name_H-M    P1
_symmetry_Int_Tables_number       1
_space_group_crystal_system       triclinic
_cell_length_a                    19.151674
_cell_length_b                    10.990059
_cell_length_c                    18.760265
_cell_angle_alpha                 90.104697
_cell_angle_beta                  90.291024
_cell_angle_gamma                 89.93392
_cell_volume                      3948.56345456

loop_
_atom_site_label
_atom_site_type_symbol
_atom_type_description
_atom_site_fract_x
_atom_site_fract_y
_atom_site_fract_z
_atom_type_partial_charge
C1    C     C_R   0.725981 0.957798 0.854363 0.551891
C2    C     C_R   0.305320 0.457113 0.034918 0.015557
C3    C     C_R   0.774741 0.809276 0.360582 0.570796
C4    C     C_2   0.500364 0.167974 0.922389 -0.110355
C5    C     C_2   0.504763 0.170333 0.080337 -0.113945
C6    C     C_2   0.997144 0.667395 0.920595 -0.124332
C7    C     C_2   0.001002 0.669464 0.078497 -0.122810
C8    C     C_2   0.500992 0.069102 0.040571 -0.168005
C9    C     C_2   0.514592 0.070585 0.963507 -0.162888
C10   C     C_2   0.994311 0.568819 0.038473 -0.162143
C11   C     C_2   0.009496 0.569412 0.961784 -0.168996
C12   C     C_R   0.759925 0.421711 0.072666 0.020324
C13   C     C_R   0.193807 0.960763 0.962582 0.009437
C14   C     C_R   0.251635 0.409137 0.920950 0.015132
C15   C     C_R   0.265596 0.944834 0.067828 0.019678
C16   C     C_R   0.741803 0.918823 0.926434 0.021882
C17   C     C_R   0.892117 0.283618 0.577883 0.054736
C18   C     C_R   0.883609 0.407522 0.595784 -0.073887
C19   C     C_R   0.910665 0.452434 0.660142 -0.083030
C20   C     C_R   0.951740 0.377743 0.703593 -0.063786
C21   C     C_R   0.965644 0.258072 0.683056 -0.114567
C22   C     C_R   0.935385 0.210723 0.621029 -0.091990
C23   C     C_R   0.123729 0.426555 0.399746 0.066497
C24   C     C_R   0.810889 0.935639 0.034371 0.034476
C25   C     C_R   0.161622 0.536448 0.403419 -0.071743
C26   C     C_R   0.161191 0.616893 0.345675 -0.107360
C27   C     C_R   0.123354 0.589036 0.283990 -0.095396
C28   C     C_R   0.084652 0.481692 0.280302 -0.059909
C29   C     C_R   0.083586 0.402071 0.338262 -0.051585
C30   C     C_R   0.392136 0.783878 0.577931 0.054621
C31   C     C_R   0.383551 0.907777 0.595814 -0.073879
C32   C     C_R   0.410547 0.952755 0.660182 -0.082884
C33   C     C_R   0.451618 0.878131 0.703677 -0.063826
C34   C     C_R   0.465607 0.758482 0.683156 -0.114062
C35   C     C_R   0.812259 0.391879 0.956662 -0.165825
C36   C     C_R   0.435420 0.711067 0.621109 -0.091873
C37   C     C_R   0.623663 0.926394 0.399684 0.066835
C38   C     C_R   0.661540 0.036308 0.403289 -0.071625
C39   C     C_R   0.661132 0.116613 0.345481 -0.107947
C40   C     C_R   0.623345 0.088575 0.283789 -0.096997
C41   C     C_R   0.584652 0.981216 0.280162 -0.062416
C42   C     C_R   0.583547 0.901754 0.338198 -0.051513
C43   C     C_R   0.220186 0.296286 0.025792 -0.148640
C44   C     C_R   0.317057 0.921659 0.950429 -0.160962
C45   C     C_R   0.689393 0.879328 0.041100 -0.164170
C46   C     C_R   0.817764 0.391717 0.030029 -0.156600
C47   C     C_R   0.216472 0.311719 0.952412 -0.159366
C48   C     C_R   0.324398 0.928240 0.024131 -0.147187
C49   C     C_R   0.275802 0.962500 0.143737 0.546054
C50   C     C_R   0.685457 0.877740 0.967702 -0.158793
C51   C     C_3   0.643585 0.538882 0.044693 -0.275394
C52   C     C_3   0.309418 0.609625 0.970312 -0.244220
C53   C     C_3   0.132128 0.919592 0.050659 -0.294735
C54   C     C_3   0.850854 0.053812 0.957671 -0.271238
C55   C     C_3   0.636636 0.530656 0.964266 -0.277099
C56   C     C_3   0.315940 0.589123 0.049913 -0.280737
C57   C     C_3   0.123190 0.904540 0.970796 -0.258544
C58   C     C_3   0.857045 0.045068 0.038101 -0.280065
C59   C     C_R   0.747473 0.411655 0.923629 0.016884
C60   C     C_R   0.227177 0.456449 0.853327 0.547107
C61   C     C_R   0.260373 0.376247 0.068382 0.019544
C62   C     C_R   0.250186 0.925944 0.919689 0.010187
C63   C     C_R   0.752182 0.909169 0.075746 0.017064
C64   C     C_R   0.506896 0.166141 0.420531 0.035821
C65   C     C_R   0.518000 0.173411 0.567858 0.014980
C66   C     C_R   0.006879 0.666143 0.420538 0.035722
C67   C     C_R   0.018006 0.673408 0.567859 0.014777
C68   C     C_R   0.537235 0.267515 0.453441 0.021672
C69   C     C_R   0.539244 0.271844 0.526178 0.042831
C70   C     C_R   0.037226 0.767516 0.453442 0.021683
C71   C     C_R   0.774290 0.458127 0.145447 0.551502
C72   C     C_R   0.039246 0.771843 0.526178 0.042842
C73   C     C_R   0.504427 0.063482 0.533701 -0.197614
C74   C     C_R   0.496766 0.060011 0.460515 -0.160096
C75   C     C_R   0.004433 0.563479 0.533702 -0.197626
C76   C     C_R   0.996748 0.560013 0.460520 -0.160078
C77   C     C_R   0.530542 0.177628 0.851140 0.551574
C78   C     C_R   0.470755 0.177702 0.149770 0.542966
C79   C     C_R   0.029773 0.677492 0.850578 0.541973
C80   C     C_R   0.969744 0.677643 0.149134 0.545627
C81   C     C_3   0.525067 0.402473 0.448409 -0.275504
C82   C     C_R   0.694930 0.437224 0.039773 0.003252
C83   C     C_3   0.521582 0.403910 0.529093 -0.266112
C84   C     C_3   0.025052 0.902472 0.448412 -0.275518
C85   C     C_3   0.021572 0.903902 0.529095 -0.266082
C86   C     C_R   0.749454 0.405249 0.419672 0.009496
C87   C     C_R   0.249857 0.388991 0.582854 0.013693
C88   C     C_R   0.249472 0.905273 0.419684 0.009130
C89   C     C_R   0.749844 0.888994 0.582847 0.013544
C90   C     C_R   0.780860 0.300932 0.447815 -0.008974
C91   C     C_R   0.198696 0.326920 0.543636 0.005789
C92   C     C_R   0.280908 0.800990 0.447839 -0.008938
C93   C     C_R   0.300039 0.475110 0.962173 0.012634
C94   C     C_R   0.698676 0.826955 0.543623 0.005648
C95   C     C_R   0.771153 0.267612 0.518056 -0.005821
C96   C     C_R   0.208196 0.296745 0.473103 0.006709
C97   C     C_R   0.271197 0.767664 0.518075 -0.005804
C98   C     C_R   0.708179 0.796745 0.473098 0.006868
C99   C     C_R   0.698096 0.444319 0.535230 -0.159129
C100  C     C_R   0.326649 0.365650 0.480776 -0.172977
C101  C     C_R   0.198084 0.944309 0.535229 -0.159100
C102  C     C_R   0.826646 0.865567 0.480785 -0.172952
C103  C     C_R   0.705264 0.473800 0.463457 -0.172285
C104  C     C_R   0.201935 0.972669 0.035571 0.008260
C105  C     C_R   0.316542 0.397322 0.553151 -0.174912
C106  C     C_R   0.205258 0.973795 0.463458 -0.172409
C107  C     C_R   0.816539 0.897243 0.553160 -0.175032
C108  C     C_3   0.855529 0.261257 0.446785 -0.258393
C109  C     C_3   0.124502 0.362261 0.531503 -0.259144
C110  C     C_3   0.355591 0.761401 0.446827 -0.258337
C111  C     C_3   0.624483 0.862292 0.531485 -0.259230
C112  C     C_3   0.845409 0.221568 0.523180 -0.126020
C113  C     C_3   0.133482 0.325545 0.454402 -0.127019
C114  C     C_3   0.345473 0.721726 0.523224 -0.126010
C115  C     C_R   0.805156 0.944219 0.960807 0.006542
C116  C     C_3   0.633455 0.825482 0.454395 -0.126970
C117  C     C_R   0.731576 0.341340 0.563688 0.012569
C118  C     C_R   0.270288 0.325300 0.438314 0.005960
C119  C     C_R   0.231581 0.841352 0.563693 0.012378
C120  C     C_R   0.770278 0.825281 0.438313 0.006477
C121  C     C_R   0.738261 0.364936 0.852156 0.550569
C122  C     C_R   0.263910 0.355343 0.144455 0.555377
C123  C     C_R   0.238294 0.865320 0.852004 0.543497
C124  C     C_R   0.761690 0.864451 0.147668 0.555031
C125  C     C_R   0.728207 0.952049 0.648387 0.534314
C126  C     C_R   0.688446 0.428873 0.966325 0.035789
C127  C     C_R   0.272532 0.955647 0.352471 0.539180
C128  C     C_R   0.228210 0.452047 0.648390 0.533754
C129  C     C_R   0.772528 0.455638 0.352467 0.538387
C130  C     C_R   0.533193 0.177345 0.642694 0.532170
C131  C     C_R   0.471086 0.176460 0.354014 0.549981
C132  C     C_R   0.033196 0.677345 0.642693 0.532757
C133  C     C_R   0.971074 0.676462 0.354021 0.549829
C134  C     C_R   0.726131 0.312831 0.639099 0.561637
C135  C     C_R   0.274742 0.309282 0.360583 0.571090
C136  C     C_R   0.226132 0.812835 0.639100 0.562312
Cr1   Cr    Cr6+3 0.769260 0.163750 0.750730 1.009322
Cr2   Cr    Cr6+3 0.385810 0.322400 0.252290 1.004406
Cr3   Cr    Cr6+3 0.114190 0.822400 0.747710 0.999611
Cr4   Cr    Cr6+3 0.885810 0.822400 0.252290 1.002546
Cr5   Cr    Cr6+3 0.230740 0.163750 0.249270 0.996483
Cr6   Cr    Cr6+3 0.269260 0.663750 0.750730 1.008599
Cr7   Cr    Cr6+3 0.730740 0.663750 0.249270 0.993261
Cr8   Cr    Cr6+3 0.612640 0.009910 0.748780 0.982719
Cr9   Cr    Cr6+3 0.387360 0.009910 0.251220 0.980813
Cr10  Cr    Cr6+3 0.112640 0.509910 0.748780 0.983329
Cr11  Cr    Cr6+3 0.887360 0.509910 0.251220 0.982634
Cr12  Cr    Cr6+3 0.614190 0.322400 0.747710 1.005329
H1    H     H_    0.486964 0.982922 0.064599 0.131533
H2    H     H_    0.468371 0.419547 0.549493 0.119683
H3    H     H_    0.071360 0.950155 0.427168 0.134238
H4    H     H_    0.968360 0.919512 0.549496 0.119664
H5    H     H_    0.670871 0.507607 0.569442 0.133607
H6    H     H_    0.376486 0.379875 0.456921 0.129941
H7    H     H_    0.170842 0.007581 0.569437 0.133700
H8    H     H_    0.876495 0.879728 0.456940 0.130038
H9    H     H_    0.681406 0.556598 0.444096 0.128327
H10   H     H_    0.358393 0.437080 0.584038 0.110192
H11   H     H_    0.181383 0.056575 0.444091 0.128223
H12   H     H_    0.537481 0.989250 0.940547 0.143246
H13   H     H_    0.858397 0.936952 0.584058 0.110139
H14   H     H_    0.892430 0.338025 0.440740 0.145396
H15   H     H_    0.119494 0.461254 0.540394 0.155646
H16   H     H_    0.392460 0.838211 0.440779 0.145351
H17   H     H_    0.619489 0.961296 0.540339 0.155583
H18   H     H_    0.864130 0.183825 0.409614 0.129110
H19   H     H_    0.087545 0.303394 0.561200 0.133651
H20   H     H_    0.364229 0.683967 0.409667 0.129263
H21   H     H_    0.587526 0.803466 0.561210 0.133622
H22   H     H_    0.846473 0.121544 0.527243 0.121213
H23   H     H_    0.977489 0.483752 0.062048 0.141659
H24   H     H_    0.103905 0.241148 0.441427 0.102231
H25   H     H_    0.346586 0.621703 0.527305 0.121172
H26   H     H_    0.603893 0.741047 0.441468 0.102213
H27   H     H_    0.523578 0.254695 0.057219 0.111652
H28   H     H_    0.475333 0.248042 0.944761 0.109502
H29   H     H_    0.020220 0.752935 0.055031 0.107167
H30   H     H_    0.971812 0.747632 0.942446 0.110801
H31   H     H_    0.858531 0.371307 0.925821 0.133184
H32   H     H_    0.189008 0.224914 0.049280 0.150165
H33   H     H_    0.362494 0.899418 0.918748 0.131131
H34   H     H_    0.033208 0.487940 0.939645 0.154386
H35   H     H_    0.643491 0.852244 0.070660 0.128474
H36   H     H_    0.869080 0.376347 0.052683 0.136140
H37   H     H_    0.180808 0.255414 0.921827 0.136774
H38   H     H_    0.375743 0.915552 0.046905 0.135822
H39   H     H_    0.635674 0.853665 0.944067 0.130154
H40   H     H_    0.095799 0.987564 0.074081 0.138102
H41   H     H_    0.822493 0.136490 0.939820 0.176578
H42   H     H_    0.667566 0.625388 0.063007 0.172980
H43   H     H_    0.261648 0.661596 0.955630 0.156026
H44   H     H_    0.595353 0.511620 0.073218 0.131226
H45   H     H_    0.976417 0.932963 0.422376 0.151161
H46   H     H_    0.358574 0.642261 0.945596 0.143207
H47   H     H_    0.135870 0.831887 0.079944 0.126409
H48   H     H_    0.900784 0.035181 0.929717 0.129712
H49   H     H_    0.584213 0.499282 0.946403 0.144834
H50   H     H_    0.369132 0.608379 0.071041 0.140706
H51   H     H_    0.122143 0.807552 0.953937 0.152401
H52   H     H_    0.910657 0.021698 0.056558 0.141141
H53   H     H_    0.656709 0.612171 0.935977 0.138022
H54   H     H_    0.272484 0.630190 0.080936 0.133917
H55   H     H_    0.080941 0.962429 0.948175 0.140837
H56   H     H_    0.061475 0.960987 0.555051 0.141915
H57   H     H_    0.832342 0.122604 0.066676 0.140531
H58   H     H_    0.501991 0.979778 0.562812 0.145843
H59   H     H_    0.479263 0.976360 0.436097 0.132881
H60   H     H_    0.002011 0.479771 0.562807 0.145792
H61   H     H_    0.979225 0.476366 0.436109 0.132808
H62   H     H_    0.852371 0.467289 0.562725 0.121338
H63   H     H_    0.900600 0.545683 0.675663 0.108840
H64   H     H_    0.973162 0.412807 0.752958 0.128717
H65   H     H_    0.997864 0.200573 0.716548 0.092518
H66   H     H_    0.943067 0.115523 0.608588 0.081367
H67   H     H_    0.476435 0.432965 0.422368 0.151138
H68   H     H_    0.193395 0.557694 0.449645 0.111651
H69   H     H_    0.190948 0.700143 0.348078 0.117473
H70   H     H_    0.123809 0.650844 0.239135 0.103774
H71   H     H_    0.055673 0.459697 0.232363 0.117099
H72   H     H_    0.054450 0.318010 0.333645 0.075222
H73   H     H_    0.352304 0.967485 0.562728 0.121327
H74   H     H_    0.400426 0.045994 0.675685 0.108712
H75   H     H_    0.472975 0.913233 0.753061 0.127342
H76   H     H_    0.497834 0.701045 0.716677 0.092419
H77   H     H_    0.443163 0.615874 0.608678 0.081377
H78   H     H_    0.561493 0.460980 0.555049 0.141825
H79   H     H_    0.693293 0.057667 0.449513 0.111594
H80   H     H_    0.690884 0.199881 0.347841 0.117488
H81   H     H_    0.623839 0.150247 0.238875 0.107426
H82   H     H_    0.555734 0.959071 0.232205 0.113858
H83   H     H_    0.554434 0.817663 0.333629 0.075029
H84   H     H_    0.571377 0.450151 0.427167 0.134263
O1    O     O_R   0.784290 0.290360 0.830540 -0.530700
O2    O     O_R   0.456020 0.282110 0.333230 -0.540702
O3    O     O_R   0.043980 0.782110 0.666770 -0.524836
O4    O     O_R   0.956020 0.782110 0.333230 -0.540581
O5    O     O_R   0.679070 0.374030 0.674430 -0.513080
O6    O     O_R   0.320930 0.374030 0.325570 -0.503297
O7    O     O_R   0.179070 0.874030 0.674430 -0.511737
O8    O     O_R   0.820930 0.874030 0.325570 -0.505015
O9    O     O_3   0.665360 0.165350 0.749070 -0.264481
O10   O     O_3   0.334640 0.165350 0.250930 -0.268254
O11   O     O_3   0.165360 0.665350 0.749070 -0.265368
O12   O     O_R   0.215710 0.290360 0.169460 -0.527842
O13   O     O_3   0.834640 0.665350 0.250930 -0.264108
O14   O     O_R   0.762610 0.041070 0.825230 -0.500918
O15   O     O_R   0.237390 0.041070 0.174770 -0.500100
O16   O     O_R   0.262610 0.541070 0.825230 -0.500635
O17   O     O_R   0.737390 0.541070 0.174770 -0.500841
O18   O     O_R   0.667390 0.924160 0.829970 -0.531890
O19   O     O_R   0.332610 0.924160 0.170030 -0.528386
O20   O     O_R   0.167390 0.424160 0.829970 -0.526121
O21   O     O_R   0.832610 0.424160 0.170030 -0.529956
O22   O     O_R   0.553980 0.081420 0.821780 -0.510862
O23   O     O_R   0.284290 0.790360 0.830540 -0.528057
O24   O     O_R   0.446020 0.081420 0.178220 -0.509598
O25   O     O_R   0.053980 0.581420 0.821780 -0.507049
O26   O     O_R   0.946020 0.581420 0.178220 -0.507436
O27   O     O_R   0.543210 0.283170 0.826740 -0.514292
O28   O     O_R   0.456790 0.283170 0.173260 -0.515481
O29   O     O_R   0.043210 0.783170 0.826740 -0.521374
O30   O     O_R   0.956790 0.783170 0.173260 -0.517395
O31   O     O_R   0.678350 0.375000 0.822720 -0.491739
O32   O     O_R   0.321650 0.375000 0.177280 -0.488208
O33   O     O_R   0.178350 0.875000 0.822720 -0.495052
O34   O     O_R   0.715710 0.790360 0.169460 -0.532334
O35   O     O_R   0.821650 0.875000 0.177280 -0.489131
O36   O     O_R   0.785060 0.289300 0.670580 -0.494001
O37   O     O_R   0.214940 0.289300 0.329420 -0.508599
O38   O     O_R   0.285060 0.789300 0.670580 -0.493505
O39   O     O_R   0.714940 0.789300 0.329420 -0.509994
O40   O     O_R   0.763330 0.040090 0.676940 -0.515230
O41   O     O_R   0.236670 0.040090 0.323060 -0.524832
O42   O     O_R   0.263330 0.540090 0.676940 -0.515245
O43   O     O_R   0.736670 0.540090 0.323060 -0.525151
O44   O     O_R   0.668160 0.923110 0.670000 -0.518021
O45   O     O_R   0.554690 0.080440 0.673480 -0.516521
O46   O     O_R   0.331840 0.923110 0.330000 -0.521794
O47   O     O_R   0.168160 0.423110 0.670000 -0.518444
O48   O     O_R   0.831840 0.423110 0.330000 -0.522684
O49   O     O_R   0.445310 0.080440 0.326520 -0.515217
O50   O     O_R   0.054690 0.580440 0.673480 -0.516212
O51   O     O_R   0.945310 0.580440 0.326520 -0.515674
O52   O     O_R   0.543980 0.282110 0.666770 -0.525779

loop_
_geom_bond_atom_site_label_1
_geom_bond_atom_site_label_2
_ccdc_geom_bond_type
C76   H61   S    
C59   C121  S    
C7    C10   D    
C99   C103  A    
C73   H58   S    
C17   C112  S    
C36   H77   S    
C54   H41   S    
C87   C91   A    
C132  O3    A    
C41   C42   A    
C132  O50   A    
C67   C132  S    
Cr5   O41   S    
Cr9   O49   S    
C72   C85   S    
C67   C75   A    
C65   C73   A    
C90   C95   A    
C37   C116  S    
C89   C125  S    
C95   C117  A    
C59   C126  A    
C105  H10   S    
C58   H52   S    
C100  C105  A    
C136  O7    A    
C4    H28   S    
Cr7   O39   S    
C68   C81   S    
C64   C68   A    
C96   C118  A    
C28   C29   A    
C18   H62   S    
C53   H40   S    
C16   C50   A    
C18   C19   A    
C88   C127  S    
C95   C112  S    
C135  O37   A    
C30   C114  S    
C38   C39   A    
Cr1   O36   S    
C65   C69   A    
C81   H67   S    
C56   H54   S    
C94   C98   A    
C53   C104  S    
Cr6   O11   S    
C55   H53   S    
C94   C111  S    
Cr4   O8    S    
C3    O39   A    
C7    H29   S    
C129  O48   A    
C35   C59   A    
C67   C72   A    
C73   C74   A    
C46   H36   S    
C89   C94   A    
C52   H46   S    
C64   C74   A    
C87   C128  S    
C21   H65   S    
C130  O52   A    
C109  H19   S    
C85   H56   S    
C91   C96   A    
C31   H73   S    
C52   C56   S    
C110  H20   S    
C114  H25   S    
C112  H22   S    
C13   C62   A    
C107  H13   S    
C122  O32   A    
C68   C69   A    
C81   H84   S    
Cr10  O11   S    
C55   C126  S    
Cr9   O24   S    
C111  C116  S    
C111  H17   S    
Cr5   O37   S    
C15   C104  A    
C47   H37   S    
C70   C84   S    
C110  C114  S    
C14   C93   A    
C123  O23   A    
Cr2   O10   S    
C2    C61   A    
C109  C113  S    
C3    O8    A    
C83   H2    S    
Cr1   O9    S    
C42   H83   S    
C23   C25   A    
C78   O28   A    
Cr3   O33   S    
C99   C117  A    
C127  O46   A    
C130  O45   A    
Cr4   O30   S    
C21   C22   A    
C6    H30   S    
C26   H69   S    
Cr7   O43   S    
C5    H27   S    
C89   C107  A    
C11   H34   S    
C15   C48   A    
C127  O41   A    
C97   C114  S    
C86   C103  A    
C62   C123  S    
C81   C83   S    
Cr1   O40   S    
C34   H76   S    
C92   C97   A    
Cr11  O48   S    
C113  H24   S    
C56   H50   S    
C74   H59   S    
C25   H68   S    
C131  O2    A    
C35   H31   S    
Cr2   O28   S    
C43   H32   S    
Cr9   O46   S    
C54   H48   S    
C125  O40   A    
Cr3   O7    S    
Cr12  O5    S    
Cr5   O12   S    
C88   C92   A    
C102  C107  A    
C80   O30   A    
C84   C85   S    
C80   O26   A    
C12   C46   A    
C71   O21   A    
C86   C90   A    
C49   O19   A    
C6    C11   D    
C53   C57   S    
C1    O18   A    
C8    C9    S    
Cr5   O10   S    
C122  O12   A    
C58   H57   S    
C44   C62   A    
C25   C26   A    
C133  O51   A    
C108  H14   S    
C45   C63   A    
C54   C115  S    
Cr6   O23   S    
Cr7   O13   S    
C82   C126  A    
Cr10  O20   S    
C61   C122  S    
C111  H21   S    
C133  O4    A    
C101  C119  A    
C97   C119  A    
C75   C76   A    
Cr6   O38   S    
C48   H38   S    
C37   C38   A    
C69   C83   S    
C23   C113  S    
C66   C133  S    
C88   C106  A    
C75   H60   S    
C123  O33   A    
C79   O25   A    
C98   C116  S    
C31   C32   A    
C87   C105  A    
C64   C131  S    
C84   H45   S    
C66   C76   A    
Cr8   O9    S    
C57   H55   S    
C37   C42   A    
C17   C18   A    
C26   C27   A    
Cr4   O35   S    
C12   C82   A    
C52   C93   S    
C86   C129  S    
C1    C16   S    
C20   C21   A    
C13   C104  A    
C44   C48   A    
C10   H23   S    
C51   C82   S    
C128  O42   A    
Cr11  O51   S    
C49   O15   A    
C51   H42   S    
C27   H70   S    
C33   H75   S    
Cr8   O18   S    
C40   C41   A    
C12   C71   S    
Cr2   O32   S    
C60   O16   A    
C24   C63   A    
C121  O1    A    
C10   C11   S    
Cr3   O29   S    
C109  H15   S    
Cr12  O9    S    
C53   H47   S    
C134  O5    A    
C19   H63   S    
C96   C113  S    
Cr2   O2    S    
C100  C118  A    
Cr12  O27   S    
Cr12  O52   S    
Cr10  O47   S    
C16   C115  A    
C23   C29   A    
C50   H39   S    
C131  O49   A    
Cr3   O11   S    
C43   C61   A    
Cr4   O4    S    
C54   C58   S    
C100  H6    S    
C101  C106  A    
C108  H18   S    
C39   C40   A    
C125  O44   A    
C110  H16   S    
Cr7   O17   S    
C70   C72   A    
C55   H49   S    
C117  C134  S    
Cr9   O19   S    
C2    C93   A    
C103  H9    S    
C77   O22   A    
C119  C136  S    
C43   C47   A    
C102  H8    S    
Cr10  O50   S    
C5    C8    D    
C32   H74   S    
C39   H80   S    
C98   C120  A    
C14   C47   A    
C30   C36   A    
C45   H35   S    
C28   H71   S    
C14   C60   S    
C124  O35   A    
Cr6   O16   S    
C17   C22   A    
C9    H12   S    
C135  O6    A    
C116  H26   S    
Cr8   O44   S    
C102  C120  A    
C78   O24   A    
C32   C33   A    
Cr7   O34   S    
C19   C20   A    
C22   H66   S    
C8    H1    S    
C4    C9    D    
C85   H4    S    
C90   C108  S    
C4    C77   S    
C92   C110  S    
C128  O47   A    
C2    C56   S    
C121  O31   A    
C63   C124  S    
Cr3   O3    S    
Cr1   O14   S    
C30   C31   A    
C91   C109  S    
C6    C79   S    
C66   C70   A    
Cr8   O22   S    
C134  O36   A    
Cr11  O26   S    
C79   O29   A    
Cr6   O42   S    
C99   H5    S    
C124  O34   A    
C71   O17   A    
Cr5   O15   S    
C34   C36   A    
C33   C34   A    
Cr9   O10   S    
Cr2   O6    S    
C51   C55   S    
C20   H64   S    
Cr12  O31   S    
C15   C49   S    
Cr8   O45   S    
C129  O43   A    
C3    C120  S    
C51   H44   S    
Cr11  O21   S    
Cr4   O13   S    
C5    C78   S    
C84   H3    S    
C108  C112  S    
C13   C57   S    
C41   H82   S    
Cr11  O13   S    
C24   C115  A    
C24   C58   S    
C1    O14   A    
C77   O27   A    
C65   C130  S    
C27   C28   A    
C60   O20   A    
C101  H7    S    
C38   H79   S    
Cr10  O25   S    
C136  O38   A    
C45   C50   A    
C40   H81   S    
C35   C46   A    
Cr1   O1    S    
C44   H33   S    
C52   H43   S    
C57   H51   S    
C118  C135  S    
C106  H11   S    
C7    C80   S    
C29   H72   S    
C83   H78   S    
