data_mof_unit_19596.cif
_audit_creation_date              2012-12-10T17:10:24-0500
_audit_creation_method            fapswitch 2.2
_symmetry_space_group_name_H-M    P1
_symmetry_Int_Tables_number       1
_space_group_crystal_system       triclinic
_cell_length_a                    10.776674
_cell_length_b                    12.954582
_cell_length_c                    11.677907
_cell_angle_alpha                 99.947396
_cell_angle_beta                  93.583141
_cell_angle_gamma                 90.154524
_cell_volume                      1602.52207121

loop_
_atom_site_label
_atom_site_type_symbol
_atom_type_description
_atom_site_fract_x
_atom_site_fract_y
_atom_site_fract_z
_atom_type_partial_charge
C1    C     C_R   0.502892 0.299196 0.478356 0.810518
C2    C     C_R   0.497123 0.700805 0.521645 0.810535
C3    C     C_R   0.488696 0.814124 0.534036 -0.135599
C4    C     C_R   0.511356 0.185879 0.465977 -0.135779
C5    C     C_R   0.580233 0.017411 0.368424 -0.186025
C6    C     C_R   0.419845 0.982596 0.631602 -0.185998
C7    C     C_R   0.571844 0.125301 0.373824 0.231846
C8    C     C_R   0.428208 0.874703 0.626188 0.231858
C9    C     C_R   0.461507 0.137906 0.551579 -0.259801
C10   C     C_R   0.538579 0.862098 0.448452 -0.259519
C11   C     C_R   0.470308 0.030335 0.546209 0.094703
C12   C     C_R   0.529783 0.969671 0.453824 0.094645
C13   C     C_R   0.388674 0.397322 0.021410 -0.308755
C14   C     C_R   0.611326 0.602677 0.978590 -0.308750
C15   C     C_R   0.398665 0.407675 0.143660 0.140452
C16   C     C_R   0.601336 0.592325 0.856340 0.140448
C17   C     C_R   0.547183 0.545097 0.157273 0.054639
C18   C     C_R   0.452817 0.454903 0.842727 0.054634
C19   C     C_R   0.540192 0.537491 0.034378 0.059168
C20   C     C_R   0.459808 0.462509 0.965622 0.059172
C21   C     C_R   0.262869 0.500472 0.500551 0.797023
C22   C     C_R   0.737130 0.499528 0.499448 0.797007
C23   C     C_R   0.128468 0.689013 0.489034 -0.201717
C24   C     C_R   0.871518 0.310986 0.510930 -0.201792
C25   C     C_R   0.063682 0.781213 0.483937 -0.172951
C26   C     C_R   0.936290 0.218773 0.515968 -0.172759
C27   C     C_R   0.934500 0.781810 0.485128 0.540641
C28   C     C_R   0.065464 0.218152 0.514730 0.540655
C29   C     C_R   0.869975 0.688353 0.487567 -0.263753
C30   C     C_R   0.130008 0.311621 0.512344 -0.263916
C31   C     C_R   0.934272 0.593888 0.493207 -0.001994
C32   C     C_R   0.065721 0.406103 0.506757 -0.001906
C33   C     C_R   0.064928 0.594319 0.494417 0.071591
C34   C     C_R   0.935066 0.405678 0.505560 0.071590
C35   C     C_R   0.870821 0.499521 0.498598 -0.114549
C36   C     C_R   0.129177 0.500477 0.501394 -0.114561
Cu1   Cu    Cu3+1 0.509250 0.507730 0.615930 0.970443
Cu2   Cu    Cu3+1 0.490750 0.492270 0.384070 0.970430
H1    H     H_    0.325907 0.338708 0.971031 0.147224
H2    H     H_    0.674094 0.661292 0.028969 0.147243
H3    H     H_    0.228647 0.692919 0.488961 0.159322
H4    H     H_    0.771341 0.307089 0.511024 0.159326
H5    H     H_    0.114205 0.852688 0.479951 0.168220
H6    H     H_    0.885756 0.147299 0.519926 0.168165
H7    H     H_    0.769558 0.691110 0.485407 0.134148
H8    H     H_    0.230425 0.308867 0.514507 0.134049
H9    H     H_    0.585209 0.815535 0.377833 0.171693
H10   H     H_    0.414876 0.184468 0.622199 0.171690
H11   H     H_    0.627406 0.971062 0.298196 0.181132
H12   H     H_    0.372670 0.028946 0.701828 0.181065
H13   H     H_    0.390841 0.397712 0.789065 0.120241
H14   H     H_    0.609159 0.602287 0.210935 0.120250
H15   H     H_    0.656350 0.643096 0.814351 0.131995
H16   H     H_    0.343650 0.356904 0.185649 0.131982
N1    N     N_R   0.523180 0.519350 0.790130 -0.181368
N2    N     N_R   0.476820 0.480650 0.209870 -0.181365
O1    O     O_R   0.506570 0.354460 0.582000 -0.601990
O2    O     O_R   0.493430 0.645540 0.418000 -0.602020
O3    O     O_R   0.490940 0.341410 0.386200 -0.546895
O4    O     O_R   0.509060 0.658590 0.613800 -0.546871
O5    O     O_R   0.327470 0.506520 0.597900 -0.562659
O6    O     O_R   0.672530 0.493480 0.402100 -0.562664
O7    O     O_R   0.311840 0.493460 0.402100 -0.591655
O8    O     O_R   0.688160 0.506540 0.597900 -0.591657
O9    O     O_3   0.128903 0.127065 0.523374 -0.588573
C37   C     C_3   0.164158 0.082082 0.411621 -0.288779
H17   H     H_    0.229006 0.134455 0.377046 0.159733
H18   H     H_    0.081299 0.061862 0.349797 0.183628
H19   H     H_    0.214041 0.008343 0.418055 0.192661
O10   O     O_3   0.870999 0.872848 0.476397 -0.588530
C38   C     C_3   0.836338 0.918175 0.588232 -0.288861
H20   H     H_    0.919523 0.938847 0.649525 0.183874
H21   H     H_    0.772042 0.865839 0.623514 0.159715
H22   H     H_    0.786038 0.991698 0.581666 0.192639
Br1   Br    Br    0.347840 0.815395 0.742706 -0.514009
Br2   Br    Br    0.652165 0.184610 0.257281 -0.513969

loop_
_geom_bond_atom_site_label_1
_geom_bond_atom_site_label_2
_ccdc_geom_bond_type
C37   H18   S    
C27   C29   A    
C24   H4    S    
C19   C20   A    
C25   H5    S    
C26   H6    S    
C21   C36   S    
C22   C35   S    
C32   C36   A    
C24   C26   A    
C1    O3    A    
C2    O4    A    
C37   H19   S    
C33   C36   A    
C34   C35   A    
C16   H15   S    
Cu2   O2    S    
C23   C33   A    
C31   C33   A    
O10   C38   S    
C21   O5    A    
C37   H17   S    
C5    H11   S    
C4    C7    A    
C17   H14   S    
C18   H13   S    
C21   O7    A    
C15   H16   S    
C5    C12   A    
C3    C8    A    
C6    C11   A    
C5    C7    A    
C6    C8    A    
C14   H2    S    
C8    Br1   S    
C24   C34   A    
C29   H7    S    
C32   C34   A    
Cu1   Cu2   S    
C1    O1    A    
C22   O6    A    
C6    H12   S    
C9    C11   A    
C17   N2    A    
C27   O10   S    
C10   C12   A    
C18   N1    A    
C13   C15   A    
C14   C16   A    
Cu1   O8    S    
C38   H21   S    
Cu2   O7    S    
C13   C20   A    
C14   C19   A    
C30   H8    S    
C38   H22   S    
Cu1   O5    S    
C11   C12   A    
C2    O2    A    
C7    Br2   S    
C25   C27   A    
C26   C28   A    
C23   H3    S    
C1    C4    S    
C15   N2    A    
C28   C30   A    
C2    C3    S    
C16   N1    A    
C38   H20   S    
C29   C31   A    
C3    C10   A    
C30   C32   A    
C31   C35   A    
C17   C19   A    
C28   O9    S    
C18   C20   A    
C23   C25   A    
C13   H1    S    
Cu1   O4    S    
C22   O8    A    
Cu2   O3    S    
Cu1   N1    S    
Cu2   N2    S    
C9    H10   S    
O9    C37   S    
C10   H9    S    
C4    C9    A    
Cu1   O1    S    
Cu2   O6    S    
