data_mof_unit_61202.cif
_audit_creation_date              2012-12-10T16:54:23-0500
_audit_creation_method            fapswitch 2.2
_symmetry_space_group_name_H-M    P1
_symmetry_Int_Tables_number       1
_space_group_crystal_system       triclinic
_cell_length_a                    18.890667
_cell_length_b                    18.67701
_cell_length_c                    18.997473
_cell_angle_alpha                 109.480556
_cell_angle_beta                  110.204613
_cell_angle_gamma                 109.215439
_cell_volume                      5128.19989519

loop_
_atom_site_label
_atom_site_type_symbol
_atom_type_description
_atom_site_fract_x
_atom_site_fract_y
_atom_site_fract_z
_atom_type_partial_charge
C1    C     C_R   0.383245 0.380630 0.502072 0.920748
C2    C     C_2   0.183919 0.511027 0.189008 -0.331598
C3    C     C_2   0.243102 0.500472 0.318425 -0.188870
C4    C     C_R   0.620246 0.500166 0.619891 0.842016
C5    C     C_2   0.307087 0.490447 0.309911 -0.305107
C6    C     C_2   0.733344 0.756220 0.421503 -0.288276
C7    C     C_2   0.817625 0.796630 0.481361 -0.359796
C8    C     C_2   0.668314 0.685154 0.420068 -0.065909
C9    C     C_2   0.675060 0.692037 0.496111 -0.194900
C10   C     C_R   0.992377 0.380132 0.874046 0.915054
C11   C     C_R   0.874144 0.501875 0.876029 0.795711
C12   C     C_3   0.806365 0.498616 0.805924 -0.004943
C13   C     C_R   0.998132 0.619752 0.116222 0.982552
C14   C     C_R   0.115034 0.502261 0.116476 0.975778
C15   C     C_R   0.001124 0.121157 0.618018 0.941523
C16   C     C_R   0.616869 0.620346 0.498675 1.003581
C17   C     C_R   0.118758 0.116427 0.497368 0.932051
C18   C     C_R   0.999075 0.879023 0.381911 0.938210
C19   C     C_R   0.881423 0.875909 0.494617 0.951162
C20   C     C_2   0.988745 0.251412 0.671428 -0.131494
C21   C     C_2   0.008966 0.193385 0.685524 -0.345915
C22   C     C_2   0.998443 0.323751 0.742662 -0.124936
C23   C     C_3   0.836630 0.592877 0.818805 -0.411996
C24   C     C_2   0.982997 0.311016 0.802259 -0.343984
C25   C     C_2   0.022997 0.756401 0.331441 -0.256274
C26   C     C_2   0.990402 0.806057 0.314303 -0.334289
C27   C     C_2   0.012406 0.682075 0.261042 0.033867
C28   C     C_R   0.377917 0.497862 0.379115 0.979710
C29   C     C_2   0.011558 0.688491 0.191935 -0.355118
C30   C     C_3   0.712717 0.431986 0.644203 -0.269903
C31   C     C_3   0.786025 0.431830 0.714502 -0.051534
C32   C     C_3   0.768297 0.590917 0.744416 -0.433002
C33   C     C_3   0.652214 0.474449 0.743917 -0.155058
C34   C     C_3   0.721585 0.469331 0.811276 -0.366844
C35   C     C_3   0.686331 0.498347 0.686447 0.040178
C36   C     C_2   0.595124 0.611351 0.332332 0.425510
C37   C     C_2   0.732688 0.778056 0.579910 0.382641
C38   C     C_2   0.759955 0.340564 0.704211 0.494730
C39   C     C_2   0.008927 0.607306 0.274431 0.418077
C40   C     C_2   0.865353 0.458162 0.703645 0.279841
C41   C     C_2   0.563218 0.392524 0.692712 0.364028
C42   C     C_2   0.258531 0.178557 0.505319 -0.143413
C43   C     C_2   0.182133 0.174953 0.488110 -0.343228
C44   C     C_2   0.319702 0.239520 0.493953 -0.120558
C45   C     C_2   0.323513 0.316360 0.509561 -0.354373
C46   C     C_2   0.170240 0.487851 0.244623 -0.105356
H1    H     H_    0.734901 0.450493 0.602398 0.175733
H2    H     H_    0.303155 0.467461 0.247323 0.171758
H3    H     H_    0.711216 0.776512 0.374692 0.191364
H4    H     H_    0.840120 0.771557 0.523369 0.173675
H5    H     H_    0.968554 0.247940 0.608896 0.181024
H6    H     H_    0.015289 0.386122 0.744500 0.180993
H7    H     H_    0.956225 0.245983 0.794740 0.165805
H8    H     H_    0.055064 0.768410 0.397292 0.174245
H9    H     H_    0.795747 0.608108 0.705280 0.186969
H10   H     H_    0.644517 0.529191 0.780463 0.118018
H11   H     H_    0.752024 0.641682 0.772015 0.206990
H12   H     H_    0.736655 0.512981 0.877419 0.146020
H13   H     H_    0.161685 0.210995 0.458948 0.160598
H14   H     H_    0.363810 0.223257 0.476835 0.191391
H15   H     H_    0.604968 0.597805 0.277354 0.065293
H16   H     H_    0.751812 0.839656 0.580057 0.100693
H17   H     H_    0.038459 0.202659 0.750465 0.161981
H18   H     H_    0.807898 0.331308 0.745969 0.052502
H19   H     H_    0.951102 0.789545 0.247891 0.156058
H20   H     H_    0.991761 0.598987 0.321242 0.053111
H21   H     H_    0.027891 0.750682 0.193456 0.140809
H22   H     H_    0.926891 0.517629 0.753662 0.106826
H23   H     H_    0.846119 0.637550 0.881575 0.180999
H24   H     H_    0.900175 0.621828 0.822192 0.188029
H25   H     H_    0.507055 0.398828 0.688725 0.063867
H26   H     H_    0.696234 0.401866 0.801559 0.223451
H27   H     H_    0.274837 0.135009 0.524788 0.180359
H28   H     H_    0.286955 0.336919 0.536811 0.159813
H29   H     H_    0.106315 0.462518 0.238041 0.208173
H30   H     H_    0.249530 0.544160 0.200740 0.163945
H31   H     H_    0.241675 0.513107 0.377901 0.171665
H32   H     H_    0.653929 0.365864 0.598197 0.245692
O1    O     O_R   0.410160 0.358490 0.449530 -0.612627
O2    O     O_R   0.947260 0.090430 0.537750 -0.610424
O3    O     O_R   0.142120 0.090460 0.551650 -0.613654
O4    O     O_R   0.408940 0.460590 0.550490 -0.636366
O5    O     O_R   0.038780 0.090460 0.448320 -0.624036
O6    O     O_R   0.052740 0.909570 0.462250 -0.620730
O7    O     O_R   0.949410 0.909570 0.358910 -0.630567
O8    O     O_R   0.961220 0.909540 0.551680 -0.623679
O9    O     O_R   0.857880 0.909540 0.448350 -0.616880
O10   O     O_R   0.592130 0.448950 0.541040 -0.634014
O11   O     O_R   0.590910 0.551050 0.642000 -0.631913
O12   O     O_R   0.046300 0.460610 0.904690 -0.617754
O13   O     O_R   0.591060 0.539410 0.449510 -0.599823
O14   O     O_R   0.589840 0.641510 0.550470 -0.594570
O15   O     O_R   0.409090 0.448950 0.358000 -0.592329
O16   O     O_R   0.407870 0.551050 0.458960 -0.625542
O17   O     O_R   0.944170 0.358540 0.904780 -0.624615
O18   O     O_2   0.522562 0.568795 0.319309 -0.579998
O19   O     O_2   0.758903 0.780520 0.649618 -0.566655
O20   O     O_2   0.687394 0.276835 0.649787 -0.519942
O21   O     O_2   0.028924 0.557275 0.237545 -0.586149
O22   O     O_2   0.860785 0.412108 0.637160 -0.559872
O23   O     O_R   0.851630 0.449030 0.902680 -0.637366
O24   O     O_2   0.552847 0.319581 0.654282 -0.527356
O25   O     O_R   0.953760 0.551100 0.902590 -0.643105
O26   O     O_R   0.942140 0.539520 0.083620 -0.578793
O27   O     O_R   0.044270 0.641590 0.083530 -0.629550
O28   O     O_R   0.034680 0.449030 0.085720 -0.586858
O29   O     O_R   0.136800 0.551100 0.085630 -0.626456
O30   O     O_R   0.050590 0.090430 0.641090 -0.618242
Zn1   Zn    Zn3+2 0.500810 0.431830 0.432590 1.008826
Zn2   Zn    Zn3+2 0.499190 0.568170 0.567410 0.983906
Zn3   Zn    Zn3+2 0.926030 0.431910 0.994210 0.999969
Zn4   Zn    Zn3+2 0.062410 0.568220 0.994100 0.960900
Zn5   Zn    Zn3+2 0.069000 1.000000 0.569000 0.970439
Zn6   Zn    Zn3+2 0.931000 1.000000 0.431000 0.967682

loop_
_geom_bond_atom_site_label_1
_geom_bond_atom_site_label_2
_ccdc_geom_bond_type
O30   Zn5   S    
O6    Zn5   S    
C27   C29   D    
O29   Zn4   S    
C23   H23   S    
C23   H24   S    
O12   Zn4   S    
C38   O20   D    
C19   O8    A    
O14   Zn2   S    
C37   O19   D    
C37   H16   S    
C41   O24   D    
C12   C23   S    
C30   C35   S    
O8    Zn5   S    
O4    Zn2   S    
C13   C29   S    
O7    Zn6   S    
C9    C16   S    
C20   H5    S    
C19   O9    A    
C30   C31   S    
C31   C40   S    
C28   O16   A    
C8    C36   S    
O9    Zn6   S    
C29   H21   S    
C27   C39   S    
C8    C9    D    
C18   C26   S    
C18   O6    A    
C32   H9    S    
C43   H13   S    
C41   H25   S    
C33   H10   S    
C4    C35   S    
O5    Zn6   S    
C42   C44   S    
C32   H11   S    
C46   H29   S    
C38   H18   S    
O28   Zn3   S    
C5    H2    S    
C18   O7    A    
O1    Zn1   S    
C32   C35   S    
C30   H1    S    
C25   H8    S    
C13   O27   A    
C6    C8    S    
C10   C24   S    
C24   H7    S    
O11   Zn2   S    
O16   Zn2   S    
C2    C46   D    
C45   H28   S    
C17   O5    A    
C15   O30   A    
C17   C43   S    
C5    C28   S    
C36   O18   D    
C39   O21   D    
C15   O2    A    
C14   O28   A    
C9    C37   S    
C33   C34   S    
C11   O23   A    
C13   O26   A    
O10   Zn1   S    
C14   O29   A    
O27   Zn4   S    
C20   C22   S    
C16   O14   A    
C7    C19   S    
C12   C31   S    
C1    O1    A    
C39   H20   S    
C22   C24   D    
O23   Zn3   S    
C42   C43   D    
C12   C34   S    
C36   H15   S    
C3    H31   S    
C34   H26   S    
C2    H30   S    
C44   C45   D    
C22   H6    S    
C4    O11   A    
C42   H27   S    
C26   H19   S    
C7    H4    S    
O2    Zn6   S    
C3    C5    D    
C40   O22   D    
O26   Zn3   S    
C11   C12   S    
C6    C7    D    
C4    O10   A    
C25   C27   S    
C3    C46   S    
C31   C38   S    
C33   C41   S    
C23   C32   S    
O13   Zn1   S    
C25   C26   D    
O17   Zn3   S    
C1    O4    A    
C1    C45   S    
C10   O17   A    
C44   H14   S    
C33   C35   S    
C17   O3    A    
C6    H3    S    
C2    C14   S    
C21   H17   S    
O25   Zn4   S    
C30   H32   S    
C15   C21   S    
C20   C21   D    
C10   O12   A    
C16   O13   A    
C40   H22   S    
O3    Zn5   S    
C34   H12   S    
C28   O15   A    
C11   O25   A    
O15   Zn1   S    
