data_mof_unit_64994.cif
_audit_creation_date              2012-12-11T16:00:42-0500
_audit_creation_method            fapswitch 2.2
_symmetry_space_group_name_H-M    P1
_symmetry_Int_Tables_number       1
_space_group_crystal_system       triclinic
_cell_length_a                    6.96018
_cell_length_b                    17.254953
_cell_length_c                    18.589512
_cell_angle_alpha                 107.277534
_cell_angle_beta                  90.376719
_cell_angle_gamma                 90.687653
_cell_volume                      2131.5427867

loop_
_atom_site_label
_atom_site_type_symbol
_atom_type_description
_atom_site_fract_x
_atom_site_fract_y
_atom_site_fract_z
_atom_type_partial_charge
O1    O     O_R   0.505810 0.442350 0.559500 -0.522236
O2    O     O_R   0.167990 0.405060 0.411070 -0.511653
O3    O     O_R   0.005550 0.557650 0.440500 -0.524561
C1    C     C_R   0.337098 0.381378 0.383006 0.727515
O4    O     O_R   0.175580 0.432840 0.557140 -0.522695
O5    O     O_R   0.013190 0.585620 0.587600 -0.538100
C2    C     C_R   0.344552 0.415851 0.580531 0.719218
O6    O     O_R   0.498170 0.414380 0.412400 -0.535582
O7    O     O_3   0.341790 0.550090 0.509830 -0.369594
V1    V     V_3+5 0.063870 0.490710 0.498180 1.467587
O8    O     O_R   0.683930 0.594940 0.588930 -0.542188
C3    C     C_R   0.854150 0.617954 0.617060 0.704493
O9    O     O_R   0.676340 0.567160 0.442860 -0.527378
C4    C     C_R   0.845213 0.584126 0.419455 0.713158
V2    V     V_3+5 0.564820 0.509290 0.501820 1.427616
O10   O     O_3   0.836770 0.449910 0.490170 -0.346943
C5    C     C_1   0.856303 0.636164 0.367432 -0.216686
C6    C     C_1   0.867546 0.678718 0.323857 0.003225
C7    C     C_1   0.881977 0.728862 0.271936 0.008153
C8    C     C_1   0.894384 0.771078 0.228096 0.015268
C9    C     C_1   0.908848 0.821217 0.176171 0.027692
C10   C     C_1   0.920161 0.863766 0.132595 -0.170308
C11   C     C_3   0.778885 0.810454 0.743677 0.071744
C12   C     C_3   0.944823 0.773571 0.689991 -0.150824
H1    H     H_    0.990455 0.792679 0.640633 0.113181
C13   C     C_3   0.869805 0.688224 0.687494 -0.093019
C14   C     C_3   0.702267 0.724928 0.740174 -0.171314
C15   C     C_3   0.832265 0.727010 0.808362 0.416830
C16   C     C_3   0.998401 0.688717 0.755632 -0.143499
C17   C     C_3   0.073097 0.774981 0.759169 -0.192605
C18   C     C_3   0.906468 0.812220 0.812091 -0.110280
H2    H     H_    0.549885 0.704077 0.732633 0.127977
H3    H     H_    0.088261 0.637734 0.760454 0.141099
H4    H     H_    0.225472 0.795668 0.767418 0.139189
C19   C     C_3   0.517948 0.248316 0.302905 -0.099157
C20   C     C_3   0.374145 0.178802 0.265209 -0.176201
H5    H     H_    0.362726 0.120034 0.277990 0.138019
H6    H     H_    0.616344 0.247193 0.349608 0.191897
C21   C     C_3   0.421389 0.189459 0.187681 -0.084699
C22   C     C_3   0.566356 0.258137 0.224537 -0.046626
C23   C     C_3   0.403137 0.320925 0.234531 -0.229242
C24   C     C_3   0.257707 0.251507 0.196959 -0.163819
C25   C     C_3   0.213810 0.241674 0.275050 0.441937
C26   C     C_3   0.355405 0.310520 0.312216 -0.100902
H7    H     H_    0.712198 0.265078 0.203273 0.154472
H8    H     H_    0.413902 0.379768 0.221874 0.130901
H9    H     H_    0.149005 0.253048 0.153443 0.127921
C27   C     C_1   0.355049 0.363630 0.632432 -0.192887
C28   C     C_1   0.366726 0.320919 0.675861 0.017937
C29   C     C_1   0.382155 0.270594 0.727608 0.012736
C30   C     C_1   0.395484 0.228284 0.771336 0.006401
C31   C     C_1   0.410869 0.178144 0.823240 0.001784
C32   C     C_1   0.422455 0.135730 0.866924 -0.210057
O11   O     O_R   0.278780 0.085730 0.087540 -0.535158
O12   O     O_R   0.601620 0.067180 0.942850 -0.530654
O13   O     O_R   0.763750 0.914350 0.912410 -0.532098
C33   C     C_R   0.432750 0.083938 0.919195 0.697556
O14   O     O_R   0.608970 0.094960 0.088920 -0.533922
O15   O     O_R   0.771150 0.942330 0.059520 -0.516400
C34   C     C_R   0.439840 0.118642 0.116966 0.705759
O16   O     O_R   0.271380 0.057750 0.940430 -0.527374
O17   O     O_3   0.435070 0.949970 0.990140 -0.351172
V3    V     V_3+5 0.713090 0.009280 0.001830 1.449641
O18   O     O_R   0.100340 0.932730 0.057200 -0.523516
C35   C     C_R   0.931403 0.915801 0.080575 0.758047
O19   O     O_R   0.092990 0.904950 0.911140 -0.537630
C36   C     C_R   0.922732 0.882219 0.882823 0.736504
V4    V     V_3+5 0.212100 0.990570 0.998260 1.453021
O20   O     O_3   0.940260 0.050030 0.009860 -0.367909
Cl1   Cl    Cl    0.986621 0.226203 0.310622 -0.733725
C37   C     C_3   0.651089 0.880087 0.738535 -0.353705
C38   C     C_3   0.537810 0.858023 0.664097 -0.309832
C39   C     C_3   0.397867 0.924905 0.662510 -0.762916
H10   H     H_    0.291603 0.933296 0.708462 0.221026
H11   H     H_    0.476759 0.983036 0.669287 0.235949
H12   H     H_    0.319318 0.907862 0.607744 0.219263
H13   H     H_    0.638877 0.848814 0.616334 0.195415
H14   H     H_    0.454721 0.800711 0.656675 0.193549
H15   H     H_    0.549311 0.893918 0.786353 0.178852
H16   H     H_    0.742615 0.934727 0.743715 0.162839
Cl2   Cl    Cl    0.758323 0.696141 0.887281 -0.646311

loop_
_geom_bond_atom_site_label_1
_geom_bond_atom_site_label_2
_ccdc_geom_bond_type
O19   V4    S    
C23   C24   S    
C7    C8    T    
C1    O6    A    
C37   H15   S    
O11   C34   A    
C18   C36   S    
C13   C14   S    
C16   C17   S    
O18   V4    S    
C15   C16   S    
C12   C13   S    
O5    C3    A    
C17   C18   S    
O11   V4    S    
O14   C34   A    
V2    O10   S    
C16   H3    S    
C6    C7    S    
C39   H10   S    
C38   H14   S    
C38   H13   S    
O8    V2    S    
V3    O20   S    
V4    O20   S    
O12   V3    S    
C23   H8    S    
O1    V2    S    
C11   C14   S    
O7    V1    S    
O19   C36   A    
C15   Cl2   S    
O9    C4    A    
C39   H11   S    
C4    C5    S    
C37   H16   S    
C5    C6    T    
C21   C24   S    
C20   C21   S    
C22   H7    S    
C17   H4    S    
C30   C31   S    
C11   C37   S    
C19   H6    S    
C12   H1    S    
C21   C22   S    
O4    C2    A    
C32   C33   S    
C1    C26   S    
C3    C13   S    
C19   C20   S    
C11   C18   S    
O2    C1    A    
C25   C26   S    
C10   C35   S    
O17   V3    S    
C11   C12   S    
C29   C30   T    
O13   V3    S    
C19   C26   S    
O3    C4    A    
C22   C23   S    
C25   Cl1   S    
O12   C33   A    
C23   C26   S    
C24   C25   S    
O2    V1    S    
C31   C32   T    
O14   V3    S    
C20   H5    S    
C14   H2    S    
O1    C2    A    
C15   C18   S    
C38   C39   S    
O5    V1    S    
O8    C3    A    
C33   O16   A    
O6    V2    S    
O13   C36   A    
O15   V3    S    
O17   V4    S    
C2    C27   S    
O9    V2    S    
C19   C22   S    
O7    V2    S    
O4    V1    S    
O3    V1    S    
V1    O10   S    
O18   C35   A    
O16   V4    S    
C27   C28   T    
C21   C34   S    
C39   H12   S    
C24   H9    S    
C12   C17   S    
C37   C38   S    
C8    C9    S    
C13   C16   S    
C28   C29   S    
C14   C15   S    
C20   C25   S    
C9    C10   T    
O15   C35   A    
