data_mof_unit_59930.cif
_audit_creation_date              2012-12-11T14:40:12-0500
_audit_creation_method            fapswitch 2.2
_symmetry_space_group_name_H-M    P1
_symmetry_Int_Tables_number       1
_space_group_crystal_system       triclinic
_cell_length_a                    19.89991
_cell_length_b                    11.356014
_cell_length_c                    19.355769
_cell_angle_alpha                 89.262105
_cell_angle_beta                  96.045853
_cell_angle_gamma                 89.708625
_cell_volume                      4349.30645369

loop_
_atom_site_label
_atom_site_type_symbol
_atom_type_description
_atom_site_fract_x
_atom_site_fract_y
_atom_site_fract_z
_atom_type_partial_charge
C1    C     C_R   0.725868 0.949362 0.357378 0.529551
C2    C     C_R   0.274494 0.951137 0.641917 0.536782
C3    C     C_R   0.225760 0.449567 0.357413 0.528486
C4    C     C_R   0.774604 0.451447 0.641588 0.539742
C5    C     C_3   0.725436 0.264961 0.507301 -0.130271
C6    C     C_3   0.293768 0.291001 0.500950 -0.138197
C7    C     C_3   0.229049 0.772267 0.504329 -0.126704
C8    C     C_3   0.795654 0.789365 0.500543 -0.137624
C9    C     C_3   0.735648 0.344660 0.443874 0.025036
C10   C     C_3   0.264592 0.360880 0.558472 0.028217
C11   C     C_3   0.238475 0.855846 0.442638 0.025893
C12   C     C_3   0.765153 0.857186 0.558130 0.028473
C13   C     C_3   0.698708 0.446194 0.474366 -0.111589
C14   C     C_3   0.282312 0.477935 0.525485 -0.114473
C15   C     C_3   0.199963 0.953491 0.474627 -0.113484
C16   C     C_3   0.781759 0.975291 0.525803 -0.113611
C17   C     C_3   0.767044 0.488580 0.510547 -0.137143
C18   C     C_3   0.211447 0.479532 0.482844 -0.136726
C19   C     C_3   0.267683 0.996875 0.512114 -0.134834
C20   C     C_3   0.711390 0.975066 0.483079 -0.138781
C21   C     C_3   0.804708 0.387040 0.479571 -0.111773
C22   C     C_3   0.193919 0.363596 0.516994 -0.111809
C23   C     C_3   0.307214 0.899030 0.479376 -0.113984
C24   C     C_3   0.694929 0.857904 0.516294 -0.110908
C25   C     C_3   0.793868 0.308359 0.543409 0.022801
C26   C     C_3   0.222755 0.296067 0.458732 0.011600
C27   C     C_3   0.296884 0.815821 0.541366 0.025097
C28   C     C_3   0.724896 0.792916 0.457825 0.009378
C29   C     C_3   0.756506 0.409888 0.573028 0.074194
C30   C     C_3   0.242076 0.410444 0.426647 0.082651
C31   C     C_3   0.257879 0.913045 0.572815 0.075132
C32   C     C_3   0.743084 0.908634 0.426519 0.080924
C33   C     C_3   0.527517 0.266068 0.971362 0.039459
C34   C     C_3   0.474134 0.263554 0.025312 0.036559
C35   C     C_3   0.041480 0.759716 0.963355 0.040021
C36   C     C_3   0.993923 0.772309 0.022654 0.048351
C37   C     C_3   0.569504 0.168491 0.013045 -0.026076
C38   C     C_3   0.437569 0.159056 0.985760 -0.042542
C39   C     C_3   0.080427 0.658917 0.004834 -0.057612
C40   C     C_3   0.947805 0.672271 0.989132 -0.031698
C41   C     C_3   0.517072 0.168961 0.067209 0.036075
C42   C     C_3   0.489177 0.166312 0.931502 0.023675
C43   C     C_3   0.034757 0.673120 0.063845 0.028407
C44   C     C_3   0.994078 0.665014 0.929829 0.027395
C45   C     C_R   0.534767 0.179400 0.336830 0.532671
C46   C     C_R   0.462695 0.180288 0.661400 0.532404
C47   C     C_R   0.034317 0.679264 0.336519 0.540617
C48   C     C_R   0.962162 0.680276 0.661002 0.531387
C49   C     C_3   0.481825 0.068456 0.028025 -0.041340
C50   C     C_3   0.529758 0.071842 0.972524 -0.042910
C51   C     C_3   0.990359 0.576843 0.029736 -0.030611
C52   C     C_3   0.032859 0.566956 0.969863 -0.044176
C53   C     C_1   0.767076 0.439599 0.909759 -0.022214
C54   C     C_1   0.242388 0.423517 0.096921 -0.030243
C55   C     C_1   0.262647 0.934115 0.906978 -0.036313
C56   C     C_1   0.738650 0.930412 0.094106 -0.020612
C57   C     C_1   0.762337 0.442394 0.045384 -0.056104
C58   C     C_1   0.248422 0.423843 0.961251 -0.060763
C59   C     C_1   0.255046 0.939276 0.042092 -0.057108
C60   C     C_1   0.742213 0.931334 0.958106 -0.050211
C61   C     C_1   0.763858 0.439974 0.972141 -0.071362
C62   C     C_1   0.248643 0.420328 0.035130 -0.071660
C63   C     C_1   0.257161 0.936576 0.968854 -0.075454
C64   C     C_1   0.742651 0.928602 0.031852 -0.064196
C65   C     C_1   0.755118 0.424349 0.106211 -0.006585
C66   C     C_1   0.250248 0.411280 0.899220 -0.012138
C67   C     C_1   0.250936 0.920876 0.103410 -0.011296
C68   C     C_1   0.747092 0.915645 0.896848 -0.000157
C69   C     C_R   0.725888 0.314006 0.368978 0.553697
C70   C     C_R   0.273315 0.321084 0.631270 0.551094
C71   C     C_R   0.227331 0.819762 0.369336 0.551885
C72   C     C_R   0.773587 0.819461 0.631424 0.553175
C73   C     C_R   0.722810 0.953562 0.163858 0.523770
C74   C     C_R   0.277453 0.953458 0.836524 0.524049
C75   C     C_R   0.223648 0.451694 0.164937 0.518514
C76   C     C_R   0.778906 0.456370 0.838070 0.532473
C77   C     C_R   0.533215 0.179179 0.140784 0.536505
C78   C     C_R   0.467095 0.178019 0.858689 0.540209
C79   C     C_R   0.058844 0.682330 0.136517 0.547993
C80   C     C_R   0.967272 0.677724 0.858486 0.530063
C81   C     C_R   0.740272 0.371402 0.171080 0.535093
C82   C     C_R   0.261051 0.366737 0.831514 0.536817
C83   C     C_R   0.239222 0.869379 0.169526 0.535640
C84   C     C_R   0.760548 0.867558 0.830808 0.536396
C85   C     C_1   0.480830 0.169273 0.592746 -0.022842
C86   C     C_1   0.508930 0.166336 0.402111 -0.028481
C87   C     C_1   0.978967 0.668845 0.591771 -0.022223
C88   C     C_1   0.006975 0.665485 0.401064 -0.030595
C89   C     C_1   0.496469 0.157635 0.461409 -0.078896
C90   C     C_1   0.488515 0.159399 0.532326 -0.071737
C91   C     C_1   0.993646 0.656176 0.460118 -0.079628
C92   C     C_1   0.985788 0.658183 0.531150 -0.072086
C93   C     C_3   0.689539 0.369616 0.538015 -0.003964
C94   C     C_3   0.311214 0.408566 0.467533 0.012154
C95   C     C_3   0.191343 0.872531 0.536798 -0.006226
C96   C     C_3   0.812104 0.908477 0.467812 0.016660
Cr1   Cr    Cr6+3 0.765830 0.160660 0.268180 1.007230
Cr2   Cr    Cr6+3 0.234170 0.160660 0.731820 1.008416
Cr3   Cr    Cr6+3 0.265830 0.660660 0.268180 1.004518
Cr4   Cr    Cr6+3 0.734170 0.660660 0.731820 1.010790
Cr5   Cr    Cr6+3 0.612110 0.009150 0.248770 1.020676
Cr6   Cr    Cr6+3 0.387890 0.009150 0.751230 1.013527
Cr7   Cr    Cr6+3 0.112110 0.509150 0.248770 1.023570
Cr8   Cr    Cr6+3 0.887890 0.509150 0.751230 1.013214
Cr9   Cr    Cr6+3 0.615930 0.324050 0.248450 0.977688
Cr10  Cr    Cr6+3 0.384070 0.324050 0.751550 0.991544
Cr11  Cr    Cr6+3 0.115930 0.824050 0.248450 0.978900
Cr12  Cr    Cr6+3 0.884070 0.824050 0.751550 0.988709
H1    H     H_    0.700525 0.182548 0.515817 0.104430
H2    H     H_    0.337782 0.230307 0.509803 0.090493
H3    H     H_    0.206180 0.686518 0.510400 0.105031
H4    H     H_    0.838756 0.727665 0.508970 0.092202
H5    H     H_    0.655704 0.479148 0.439118 0.131473
H6    H     H_    0.314850 0.540120 0.552948 0.135376
H7    H     H_    0.156738 0.984939 0.439219 0.130969
H8    H     H_    0.807132 0.043798 0.554994 0.136635
H9    H     H_    0.281934 0.084609 0.529459 0.117339
H10   H     H_    0.668035 0.034114 0.466487 0.108319
H11   H     H_    0.783419 0.577752 0.521995 0.115229
H12   H     H_    0.167248 0.536745 0.463848 0.107882
H13   H     H_    0.852773 0.397823 0.455763 0.129618
H14   H     H_    0.144652 0.347492 0.537598 0.131806
H15   H     H_    0.355011 0.914660 0.455619 0.126697
H16   H     H_    0.645520 0.839517 0.536186 0.131957
O1    O     O_R   0.783230 0.287800 0.346510 -0.518904
O2    O     O_R   0.216770 0.287800 0.653490 -0.518688
O3    O     O_R   0.283230 0.787800 0.346510 -0.517472
O4    O     O_R   0.716770 0.787800 0.653490 -0.519600
O5    O     O_R   0.554500 0.081650 0.170370 -0.495890
O6    O     O_R   0.445500 0.081650 0.829630 -0.495543
O7    O     O_R   0.054500 0.581650 0.170370 -0.487860
O8    O     O_R   0.945500 0.581650 0.829630 -0.495082
O9    O     O_R   0.545430 0.285140 0.163100 -0.532375
O10   O     O_R   0.454570 0.285140 0.836900 -0.535866
O11   O     O_R   0.045430 0.785140 0.163100 -0.526570
O12   O     O_R   0.954570 0.785140 0.836900 -0.532435
O13   O     O_R   0.677850 0.374730 0.185500 -0.516964
O14   O     O_R   0.322150 0.374730 0.814500 -0.505674
O15   O     O_R   0.177850 0.874730 0.185500 -0.523360
O16   O     O_R   0.822150 0.874730 0.814500 -0.509655
O17   O     O_3   0.664630 0.164620 0.255130 -0.289013
O18   O     O_3   0.335370 0.164620 0.744870 -0.281266
O19   O     O_3   0.164630 0.664620 0.255130 -0.293139
O20   O     O_3   0.835370 0.664620 0.744870 -0.287635
O21   O     O_R   0.760130 0.037060 0.338610 -0.522841
O22   O     O_R   0.239870 0.037060 0.661390 -0.530396
O23   O     O_R   0.260130 0.537060 0.338610 -0.519885
O24   O     O_R   0.739870 0.537060 0.661390 -0.529693
O25   O     O_R   0.666620 0.921370 0.332440 -0.531927
O26   O     O_R   0.333380 0.921370 0.667560 -0.535878
O27   O     O_R   0.166620 0.421370 0.332440 -0.534616
O28   O     O_R   0.833380 0.421370 0.667560 -0.535913
O29   O     O_R   0.557170 0.082420 0.312350 -0.491098
O30   O     O_R   0.442830 0.082420 0.687650 -0.494939
O31   O     O_R   0.057170 0.582420 0.312350 -0.487742
O32   O     O_R   0.942830 0.582420 0.687650 -0.495143
O33   O     O_R   0.548310 0.285980 0.316250 -0.523076
O34   O     O_R   0.451690 0.285980 0.683750 -0.521304
O35   O     O_R   0.048310 0.785980 0.316250 -0.519722
O36   O     O_R   0.951690 0.785980 0.683750 -0.521908
O37   O     O_R   0.680520 0.375500 0.327470 -0.520263
O38   O     O_R   0.319480 0.375500 0.672530 -0.510540
O39   O     O_R   0.180520 0.875500 0.327470 -0.520001
O40   O     O_R   0.819480 0.875500 0.672530 -0.511109
O41   O     O_R   0.780350 0.286970 0.193350 -0.494259
O42   O     O_R   0.219650 0.286970 0.806650 -0.492913
O43   O     O_R   0.280350 0.786970 0.193350 -0.494232
O44   O     O_R   0.719650 0.786970 0.806650 -0.490519
O45   O     O_R   0.757460 0.036290 0.196640 -0.502491
O46   O     O_R   0.242540 0.036290 0.803360 -0.502138
O47   O     O_R   0.257460 0.536290 0.196640 -0.506654
O48   O     O_R   0.742540 0.536290 0.803360 -0.498595
O49   O     O_R   0.663740 0.920540 0.179290 -0.503394
O50   O     O_R   0.336260 0.920540 0.820710 -0.511704
O51   O     O_R   0.163740 0.420540 0.179290 -0.507551
O52   O     O_R   0.836260 0.420540 0.820710 -0.508609
C97   C     C_3   0.624058 0.374278 0.573791 -0.275416
C98   C     C_3   0.563671 0.402846 0.521661 -0.441402
H17   H     H_    0.564924 0.496355 0.504767 0.131131
H18   H     H_    0.565116 0.347586 0.475097 0.175133
H19   H     H_    0.516080 0.388955 0.545373 0.160616
H20   H     H_    0.617035 0.289144 0.600729 0.146187
H21   H     H_    0.627496 0.445181 0.613083 0.169628
C99   C     C_3   0.377734 0.421826 0.434412 -0.264348
C100  C     C_3   0.414336 0.535370 0.453814 -0.443047
H22   H     H_    0.381086 0.612415 0.438998 0.177943
H23   H     H_    0.430630 0.533494 0.510454 0.135658
H24   H     H_    0.460188 0.542243 0.426125 0.138072
H25   H     H_    0.411847 0.347545 0.451813 0.146565
H26   H     H_    0.368176 0.417027 0.377066 0.159676
C101  C     C_3   0.125817 0.873792 0.571923 -0.277035
C102  C     C_3   0.065362 0.895305 0.518530 -0.438881
H27   H     H_    0.064974 0.987502 0.498679 0.130150
H28   H     H_    0.068900 0.835922 0.473862 0.176127
H29   H     H_    0.017918 0.882263 0.542242 0.161079
H30   H     H_    0.120806 0.789409 0.600622 0.145061
H31   H     H_    0.127094 0.947533 0.609571 0.168947
C103  C     C_3   0.878425 0.924834 0.434657 -0.263424
C104  C     C_3   0.915416 0.035991 0.457815 -0.444007
H32   H     H_    0.882671 0.114195 0.444600 0.174279
H33   H     H_    0.931032 0.029242 0.514568 0.140086
H34   H     H_    0.961522 0.045040 0.430683 0.136667
H35   H     H_    0.912177 0.848841 0.449130 0.147234
H36   H     H_    0.868678 0.926102 0.377205 0.162435
C105  C     C_3   0.853491 0.241728 0.585542 -0.254895
C106  C     C_3   0.834136 0.175204 0.651208 -0.397411
H37   H     H_    0.843656 0.225755 0.700523 0.184186
H38   H     H_    0.779608 0.149559 0.645291 0.146709
H39   H     H_    0.866451 0.094596 0.660164 0.147247
H40   H     H_    0.876461 0.181500 0.551339 0.106516
H41   H     H_    0.895924 0.302473 0.600519 0.176108
C107  C     C_3   0.175157 0.213487 0.418168 -0.273033
C108  C     C_3   0.209621 0.152639 0.361362 -0.407131
H42   H     H_    0.225198 0.217853 0.323137 0.158897
H43   H     H_    0.255544 0.104374 0.383588 0.161547
H44   H     H_    0.173505 0.092085 0.333001 0.169889
H45   H     H_    0.154169 0.158091 0.457024 0.123101
H46   H     H_    0.129665 0.261122 0.394234 0.174643
C109  C     C_3   0.355709 0.746313 0.582680 -0.250818
C110  C     C_3   0.334993 0.677175 0.647169 -0.394290
H47   H     H_    0.340591 0.726267 0.697692 0.183522
H48   H     H_    0.280765 0.648285 0.638194 0.145633
H49   H     H_    0.369422 0.598398 0.657237 0.143006
H50   H     H_    0.378110 0.687581 0.547068 0.106176
H51   H     H_    0.398374 0.805916 0.598991 0.175226
C111  C     C_3   0.679038 0.708634 0.416634 -0.276311
C112  C     C_3   0.715313 0.648562 0.360967 -0.406211
H52   H     H_    0.732796 0.714705 0.324321 0.156087
H53   H     H_    0.760084 0.598462 0.384386 0.162663
H54   H     H_    0.679630 0.589726 0.330729 0.174827
H55   H     H_    0.658351 0.652649 0.455239 0.124523
H56   H     H_    0.633402 0.754505 0.391687 0.174927
C113  C     C_3   0.641193 0.129306 0.021142 -0.309757
C114  C     C_3   0.682715 0.216781 0.059031 -0.407557
H57   H     H_    0.673007 0.300066 0.028277 0.166155
H58   H     H_    0.663859 0.220818 0.111611 0.209067
H59   H     H_    0.737209 0.190374 0.062640 0.170177
H60   H     H_    0.640448 0.048090 0.053039 0.182216
H61   H     H_    0.659750 0.114422 0.969601 0.161455
C115  C     C_3   0.368414 0.109237 0.973182 -0.300513
C116  C     C_3   0.319599 0.201553 0.951419 -0.421708
H62   H     H_    0.310184 0.245078 0.000653 0.149678
H63   H     H_    0.344679 0.261613 0.916409 0.194968
H64   H     H_    0.271522 0.165643 0.925461 0.179646
H65   H     H_    0.370797 0.041757 0.932857 0.195562
H66   H     H_    0.353916 0.070835 0.022367 0.166738
C117  C     C_3   0.149773 0.611407 0.015360 -0.311109
C118  C     C_3   0.197420 0.697847 0.047272 -0.413589
H67   H     H_    0.211300 0.750486 0.002874 0.159882
H68   H     H_    0.170207 0.749657 0.084075 0.173500
H69   H     H_    0.244278 0.656746 0.074134 0.181602
H70   H     H_    0.144581 0.536833 0.051282 0.181598
H71   H     H_    0.164683 0.585121 0.964414 0.168050
C119  C     C_3   0.875379 0.633335 0.986757 -0.305447
C120  C     C_3   0.830563 0.723529 0.953418 -0.419288
H72   H     H_    0.838210 0.802773 0.986958 0.151199
H73   H     H_    0.847394 0.739746 0.900980 0.207088
H74   H     H_    0.777124 0.692104 0.949523 0.165324
H75   H     H_    0.871733 0.552866 0.954738 0.179259
H76   H     H_    0.860691 0.615131 0.039955 0.166008
C121  C     C_3   0.564299 0.368494 0.937256 -0.255152
C122  C     C_3   0.586738 0.468653 0.986881 -0.429524
H77   H     H_    0.547628 0.539731 0.981804 0.156447
H78   H     H_    0.596646 0.437193 0.041899 0.173158
H79   H     H_    0.633397 0.510721 0.970834 0.155006
H80   H     H_    0.609410 0.329889 0.915049 0.135629
H81   H     H_    0.532162 0.410996 0.892855 0.185756
C123  C     C_3   0.428075 0.361992 0.051353 -0.244059
C124  C     C_3   0.459737 0.474989 0.083661 -0.392266
H82   H     H_    0.511058 0.463885 0.112231 0.191405
H83   H     H_    0.461683 0.545091 0.043543 0.145495
H84   H     H_    0.425856 0.511470 0.121365 0.146100
H85   H     H_    0.392440 0.392591 0.006690 0.151239
H86   H     H_    0.397620 0.320249 0.089946 0.140206
C125  C     C_3   0.082934 0.845001 0.921097 -0.255171
C126  C     C_3   0.086762 0.969642 0.949280 -0.414244
H87   H     H_    0.036273 0.012592 0.937742 0.165833
H88   H     H_    0.104384 0.967752 0.005700 0.163555
H89   H     H_    0.123291 0.022273 0.922202 0.158946
H90   H     H_    0.134842 0.808897 0.919388 0.134967
H91   H     H_    0.063014 0.851475 0.865154 0.173207
C127  C     C_3   0.956483 0.883392 0.046939 -0.234322
C128  C     C_3   0.996942 0.987547 0.080332 -0.390768
H92   H     H_    0.046368 0.964456 0.109146 0.194114
H93   H     H_    0.006313 0.055812 0.041580 0.135502
H94   H     H_    0.965657 0.032639 0.116883 0.148001
H95   H     H_    0.925142 0.921500 0.001167 0.143145
H96   H     H_    0.921551 0.851941 0.084448 0.154824
C129  C     C_1   0.461625 0.956969 0.060671 0.209662
N1    N     N_1   0.445712 0.869830 0.085568 -0.295267
C130  C     C_1   0.555444 0.964864 0.940760 0.203110
N2    N     N_1   0.575582 0.881176 0.916346 -0.289532
C131  C     C_1   0.965768 0.470828 0.064981 0.224450
N3    N     N_1   0.946414 0.388047 0.091623 -0.289728
C132  C     C_1   0.052108 0.454791 0.939061 0.207004
N4    N     N_1   0.067500 0.367041 0.915377 -0.292774

loop_
_geom_bond_atom_site_label_1
_geom_bond_atom_site_label_2
_ccdc_geom_bond_type
C120  H73   S    
C80   O8    A    
C130  N2    T    
C20   H10   S    
C117  H70   S    
Cr12  O40   S    
C127  C128  S    
C71   O39   A    
Cr3   O19   S    
C105  H41   S    
C97   H20   S    
C4    O24   A    
C9    C13   S    
C101  H30   S    
C55   C74   S    
C11   C15   S    
C12   C16   S    
C6    C94   S    
C40   C44   S    
C40   C119  S    
C70   O2    A    
C104  H32   S    
C35   C125  S    
C114  H58   S    
C70   O38   A    
C41   C49   S    
C118  H68   S    
Cr10  O18   S    
Cr3   O43   S    
C108  H43   S    
C25   C29   S    
C27   C31   S    
C101  C102  S    
C102  H29   S    
C28   C32   S    
Cr4   O20   S    
C106  H37   S    
C14   H6    S    
C17   C21   S    
C114  H59   S    
C19   C23   S    
C84   O44   A    
C66   C82   S    
C112  H52   S    
C16   C20   S    
C48   C87   S    
C77   O5    A    
C57   C61   S    
C78   O10   A    
C5    C25   S    
C124  H83   S    
C103  H36   S    
C115  H65   S    
C8    C28   S    
C15   H7    S    
Cr11  O19   S    
Cr12  O20   S    
Cr9   O9    S    
Cr3   O23   S    
C56   C73   S    
Cr1   O21   S    
Cr6   O6    S    
Cr7   O19   S    
C122  H78   S    
C85   C90   T    
C37   C113  S    
C59   C63   S    
C60   C64   S    
Cr8   O28   S    
C125  H90   S    
C113  H61   S    
C121  H80   S    
C82   O14   A    
C37   C50   S    
C9    C21   S    
C119  H75   S    
C111  H56   S    
C11   C23   S    
C106  H38   S    
C38   C115  S    
C107  C108  S    
C30   C94   S    
C123  H86   S    
C21   H13   S    
C26   C107  S    
C50   C130  S    
C2    O26   A    
C29   C93   S    
C3    O23   A    
Cr4   O48   S    
Cr5   O49   S    
C44   C80   S    
C98   H17   S    
Cr8   O52   S    
C47   O35   A    
C96   C103  S    
C48   O36   A    
C33   C42   S    
C74   O50   A    
C121  C122  S    
C31   C95   S    
C100  H23   S    
C46   O34   A    
C99   C100  S    
C116  H62   S    
C76   O48   A    
C59   C67   T    
C109  H50   S    
C53   C61   T    
C55   C63   T    
C104  H34   S    
C56   C64   T    
C113  C114  S    
C44   C52   S    
C127  H95   S    
Cr2   O18   S    
C128  H94   S    
C110  H47   S    
C4    O28   A    
C16   C96   S    
C45   O33   A    
C10   C14   S    
C91   C92   S    
C93   C97   S    
C23   H15   S    
C81   O13   A    
C83   O43   A    
C109  H51   S    
C102  H28   S    
C5    C9    S    
C131  N3    T    
C88   C91   T    
C8    C12   S    
C79   O7    A    
C129  N1    T    
C60   C68   T    
Cr2   O42   S    
C42   C50   S    
C112  H53   S    
Cr11  O39   S    
C26   C30   S    
Cr8   O8    S    
C99   H26   S    
C20   C32   S    
C21   C25   S    
Cr4   O4    S    
C24   C28   S    
C36   C43   S    
C122  H77   S    
C40   C51   S    
C12   C24   S    
C13   C17   S    
C116  H64   S    
C45   C86   S    
C78   O6    A    
C6    C26   S    
C105  H40   S    
C115  C116  S    
Cr9   O37   S    
C37   C41   S    
C12   C72   S    
Cr9   O13   S    
C54   C75   S    
Cr2   O46   S    
Cr10  O10   S    
C126  H87   S    
C49   C50   S    
C128  H92   S    
Cr6   O18   S    
C87   C92   T    
Cr7   O7    S    
C110  H49   S    
Cr5   O5    S    
C58   C62   S    
C27   C109  S    
C17   C29   S    
C125  C126  S    
C19   C31   S    
C122  H79   S    
C83   O15   A    
C38   C49   S    
C108  H42   S    
C10   C22   S    
C15   C19   S    
C9    C69   S    
C8    H4    S    
C15   C95   S    
C11   C71   S    
C107  H45   S    
C33   C121  S    
C7    C27   S    
Cr11  O11   S    
C1    O21   A    
Cr9   O33   S    
C1    O25   A    
Cr6   O30   S    
C4    C29   S    
Cr7   O27   S    
C46   C85   S    
C48   O32   A    
C120  H74   S    
C69   O1    A    
C18   C22   S    
C124  H82   S    
C115  H66   S    
C71   O3    A    
C34   C41   S    
C94   C99   S    
C25   C105  S    
C16   H8    S    
C46   O30   A    
C75   O51   A    
C68   C84   S    
C76   O52   A    
Cr1   O1    S    
C109  C110  S    
Cr3   O3    S    
C54   C62   T    
C97   H21   S    
C33   C37   S    
C51   C52   S    
C13   C93   S    
C35   C39   S    
C113  H60   S    
C119  C120  S    
Cr11  O35   S    
C126  H89   S    
C119  H76   S    
Cr7   O51   S    
C72   O40   A    
Cr1   O17   S    
Cr6   O26   S    
C39   C117  S    
C10   C70   S    
Cr7   O31   S    
C53   C76   S    
C2    O22   A    
C114  H57   S    
C73   O45   A    
C132  N4    T    
C118  H67   S    
C82   O42   A    
C108  H44   S    
C57   C65   T    
C86   C89   T    
C6    C10   S    
C98   H18   S    
Cr12  O12   S    
C79   O11   A    
C80   O12   A    
C36   C127  S    
C47   C88   S    
C41   C77   S    
C43   C51   S    
C100  H22   S    
C5    H1    S    
Cr1   O41   S    
C7    H3    S    
Cr10  O38   S    
C52   C132  S    
C98   H19   S    
C17   H11   S    
Cr2   O2    S    
C123  C124  S    
C19   H9    S    
C97   C98   S    
C22   C26   S    
C124  H84   S    
C103  H35   S    
C104  H33   S    
C22   H14   S    
C89   C90   S    
C14   C94   S    
C127  H96   S    
C128  H93   S    
C14   C18   S    
C49   C129  S    
C8    C96   S    
C110  H48   S    
C105  C106  S    
C7    C11   S    
C107  H46   S    
C72   O4    A    
C34   C123  S    
C69   O37   A    
C121  H81   S    
Cr9   O17   S    
Cr10  O14   S    
Cr3   O47   S    
C43   C79   S    
C111  H55   S    
C24   H16   S    
Cr1   O45   S    
Cr5   O17   S    
C58   C66   T    
C20   C24   S    
C123  H85   S    
Cr8   O20   S    
C103  C104  S    
C18   C30   S    
C23   C27   S    
C99   H25   S    
C118  H69   S    
C95   C101  S    
C39   C52   S    
Cr11  O15   S    
C6    H2    S    
C77   O9    A    
C125  H91   S    
C74   O46   A    
C36   C40   S    
C28   C111  S    
Cr12  O16   S    
C100  H24   S    
C39   C43   S    
Cr2   O22   S    
Cr10  O34   S    
C1    C32   S    
C2    C31   S    
C116  H63   S    
C3    C30   S    
Cr5   O29   S    
C33   C34   S    
C111  C112  S    
C67   C83   S    
Cr8   O32   S    
C35   C44   S    
C117  H71   S    
C32   C96   S    
C126  H88   S    
C42   C78   S    
C75   O47   A    
C120  H72   S    
C18   H12   S    
C34   C38   S    
C101  H31   S    
C5    C93   S    
C117  C118  S    
Cr12  O36   S    
Cr6   O50   S    
C7    C95   S    
C3    O27   A    
Cr4   O44   S    
C102  H27   S    
C106  H39   S    
C47   O31   A    
Cr4   O24   S    
Cr5   O25   S    
C73   O49   A    
C51   C131  S    
C38   C42   S    
C112  H54   S    
C45   O29   A    
C84   O16   A    
C81   O41   A    
C65   C81   S    
C35   C36   S    
C13   H5    S    
