data_mof_unit_54039.cif
_audit_creation_date              2012-12-10T16:51:27-0500
_audit_creation_method            fapswitch 2.2
_symmetry_space_group_name_H-M    P1
_symmetry_Int_Tables_number       1
_space_group_crystal_system       triclinic
_cell_length_a                    7.885715
_cell_length_b                    8.565267
_cell_length_c                    12.547932
_cell_angle_alpha                 93.608932
_cell_angle_beta                  102.401493
_cell_angle_gamma                 93.836408
_cell_volume                      823.294091436

loop_
_atom_site_label
_atom_site_type_symbol
_atom_type_description
_atom_site_fract_x
_atom_site_fract_y
_atom_site_fract_z
_atom_type_partial_charge
C1    C     C_R   0.043847 0.794231 0.496931 0.962410
C2    C     C_R   0.190374 0.587346 0.822812 -0.131521
C3    C     C_2   0.066320 0.957800 0.494516 -0.381951
C4    C     C_R   0.114270 0.531054 0.707601 0.864409
C5    C     C_2   0.932609 0.042003 0.503225 -0.382229
C6    C     C_R   0.955792 0.205721 0.502305 0.966973
C7    C     C_R   0.890009 0.486677 0.291882 0.860884
C8    C     C_R   0.849238 0.400324 0.992093 -0.180813
C9    C     C_R   0.825453 0.476137 0.175267 -0.051653
C10   C     C_R   0.084672 0.647807 0.889085 -0.217946
C11   C     C_R   0.148460 0.675826 0.001430 -0.119456
C12   C     C_R   0.427216 0.581483 0.983353 0.079742
C13   C     C_R   0.314138 0.634816 0.049328 -0.198481
C14   C     C_3   0.466645 0.312129 0.414083 -0.140234
C15   C     C_3   0.332020 0.272484 0.306397 -0.382626
C16   C     C_3   0.383919 0.137752 0.237513 -0.962045
C17   C     C_R   0.370080 0.577592 0.868996 0.098680
C18   C     C_R   0.594288 0.529534 0.025257 0.077949
C19   C     C_R   0.694454 0.469353 0.952715 0.162431
C20   C     C_R   0.645989 0.491222 0.842707 -0.284045
C21   C     C_R   0.495575 0.561951 0.804914 -0.182507
C22   C     C_R   0.665536 0.535623 0.136300 -0.265851
C23   C     C_R   0.915191 0.403906 0.103852 -0.220742
H1    H     H_    0.036749 0.353422 0.133984 0.158086
H2    H     H_    0.192478 0.008392 0.485933 0.175657
H3    H     H_    0.508735 0.171546 0.214148 0.273863
H4    H     H_    0.398251 0.031418 0.283975 0.267562
H5    H     H_    0.281474 0.109484 0.161564 0.266437
H6    H     H_    0.203308 0.235899 0.322363 0.262035
H7    H     H_    0.321480 0.377434 0.258295 0.229806
H8    H     H_    0.589355 0.323085 0.389109 0.240855
H9    H     H_    0.465521 0.214392 0.468165 0.156822
H10   H     H_    0.728531 0.461662 0.787127 0.185657
H11   H     H_    0.806305 0.991397 0.511536 0.176564
H12   H     H_    0.530518 0.643911 0.565015 0.162525
H13   H     H_    0.922701 0.350066 0.936569 0.151980
H14   H     H_    0.600943 0.590732 0.194132 0.162172
H15   H     H_    0.952284 0.671867 0.854311 0.163845
H16   H     H_    0.348659 0.646680 0.137439 0.130684
H17   H     H_    0.065150 0.720759 0.052433 0.156313
H18   H     H_    0.481365 0.606439 0.726008 0.171260
N1    N     N_2   0.434800 0.456690 0.470850 -0.075191
N2    N     N_2   0.565200 0.543310 0.529150 -0.172033
O1    O     O_R   0.893060 0.738880 0.507150 -0.613725
O2    O     O_R   0.172250 0.711130 0.488470 -0.635467
O3    O     O_R   0.944700 0.520730 0.667600 -0.627025
O4    O     O_R   0.223890 0.492980 0.648920 -0.620626
O5    O     O_R   0.827750 0.288870 0.511530 -0.653494
O6    O     O_R   0.106940 0.261120 0.492850 -0.617786
O7    O     O_R   0.776110 0.507020 0.351080 -0.644709
O8    O     O_R   0.055300 0.479270 0.332400 -0.637823
Zn1   Zn    Zn3+2 0.813580 0.518530 0.512470 0.912235
Zn2   Zn    Zn3+2 0.186420 0.481470 0.487530 0.922146

loop_
_geom_bond_atom_site_label_1
_geom_bond_atom_site_label_2
_ccdc_geom_bond_type
C12   C17   A    
C16   H5    S    
O7    Zn1   S    
C23   H1    S    
C8    H13   S    
H12   N2    S    
C1    O1    A    
C2    C4    S    
C19   C20   A    
C10   H15   S    
C14   H8    S    
C14   N1    S    
C5    H11   S    
O1    Zn1   S    
C16   H4    S    
C7    O8    A    
C6    O6    A    
C4    O3    A    
C20   C21   A    
C2    C17   A    
C11   C13   A    
C1    O2    A    
C5    C6    S    
C6    O5    A    
C21   H18   S    
O4    Zn2   S    
C15   H6    S    
O5    Zn1   S    
N1    Zn2   S    
C16   H3    S    
C11   H17   S    
N2    Zn1   S    
O6    Zn2   S    
C9    C22   A    
C13   H16   S    
C8    C19   A    
N1    N2    D    
C20   H10   S    
O8    Zn2   S    
O2    Zn2   S    
C15   C16   S    
C2    C10   A    
O3    Zn1   S    
C3    H2    S    
C8    C23   A    
C12   C13   A    
C15   H7    S    
C18   C19   A    
C10   C11   A    
C12   C18   A    
C7    C9    S    
C14   C15   S    
C9    C23   A    
C3    C5    D    
C18   C22   A    
C22   H14   S    
C17   C21   A    
C7    O7    A    
C14   H9    S    
C1    C3    S    
C4    O4    A    
