data_mof_unit_62067.cif
_audit_creation_date              2012-12-10T20:37:16-0500
_audit_creation_method            fapswitch 2.2
_symmetry_space_group_name_H-M    P1
_symmetry_Int_Tables_number       1
_space_group_crystal_system       triclinic
_cell_length_a                    36.135478
_cell_length_b                    39.791923
_cell_length_c                    26.815371
_cell_angle_alpha                 89.997758
_cell_angle_beta                  131.996458
_cell_angle_gamma                 90.00222
_cell_volume                      28655.643901

loop_
_atom_site_label
_atom_site_type_symbol
_atom_type_description
_atom_site_fract_x
_atom_site_fract_y
_atom_site_fract_z
_atom_type_partial_charge
C1    C     C_R   0.400337 0.749913 0.000113 0.513449
C2    C     C_3   0.749791 0.720777 0.024232 0.193158
C3    C     C_R   0.197121 0.275569 0.362379 0.218878
C4    C     C_R   0.709051 0.235088 0.362260 0.218309
C5    C     C_R   0.290916 0.764850 0.637742 0.218349
C6    C     C_R   0.302764 0.224475 0.637621 0.218863
C7    C     C_R   0.709644 0.764544 0.362101 0.218020
C8    C     C_R   0.197219 0.749799 0.397691 0.038154
C9    C     C_R   0.802783 0.250194 0.602311 0.038141
C10   C     C_R   0.802803 0.750192 0.602314 0.038882
C11   C     C_R   0.199118 0.248491 0.397664 0.038556
C12   C     C_R   0.697243 0.249767 0.397711 0.038165
C13   C     C_3   0.746084 0.280514 0.016729 0.193777
C14   C     C_R   0.302762 0.750230 0.602292 0.038171
C15   C     C_R   0.300858 0.251503 0.602326 0.038562
C16   C     C_R   0.698875 0.748505 0.397736 0.038548
C17   C     C_1   0.234501 0.749916 0.469855 0.063905
C18   C     C_1   0.765503 0.250075 0.530147 0.063837
C19   C     C_1   0.766576 0.749151 0.530157 0.065427
C20   C     C_1   0.235043 0.249603 0.469851 0.064460
C21   C     C_1   0.734530 0.249863 0.469875 0.063886
C22   C     C_1   0.265475 0.750129 0.530128 0.063936
C23   C     C_1   0.264923 0.250389 0.530139 0.064479
C24   C     C_3   0.251615 0.720235 0.978616 0.193484
C25   C     C_1   0.736070 0.748758 0.469881 0.065401
C26   C     C_R   0.498120 0.431327 0.043767 0.211201
C27   C     C_R   0.501964 0.568677 0.956286 0.211033
C28   C     C_R   0.501730 0.431323 0.956058 0.211220
C29   C     C_R   0.497956 0.568669 0.043621 0.211051
C30   C     C_R   0.998154 0.931325 0.043812 0.211246
C31   C     C_R   0.001838 0.068675 0.956183 0.211275
C32   C     C_R   0.001797 0.931327 0.956133 0.211227
C33   C     C_R   0.998239 0.068674 0.043903 0.211265
C34   C     C_R   0.498150 0.395998 0.043469 -0.127431
C35   C     C_3   0.750220 0.779219 0.975791 0.193494
C36   C     C_R   0.501969 0.604006 0.956629 -0.127451
C37   C     C_R   0.501740 0.395993 0.956405 -0.124925
C38   C     C_R   0.497989 0.603999 0.043324 -0.127213
C39   C     C_R   0.998163 0.895995 0.043487 -0.127448
C40   C     C_R   0.001824 0.104004 0.956502 -0.127399
C41   C     C_R   0.001785 0.895997 0.956454 -0.125099
C42   C     C_R   0.998247 0.104004 0.043577 -0.124879
C43   C     C_R   0.499962 0.378190 0.999956 -0.026096
C44   C     C_R   0.499988 0.621809 0.999987 -0.026340
C45   C     C_R   0.999980 0.878190 0.999977 -0.026103
C46   C     C_3   0.247047 0.219773 0.018684 0.193475
C47   C     C_R   0.000026 0.121810 0.000029 -0.026077
C48   C     C_R   0.499920 0.448779 0.999906 0.108260
C49   C     C_R   0.499949 0.551219 0.999941 0.108276
C50   C     C_R   0.999982 0.948780 0.999979 0.108306
C51   C     C_R   0.000034 0.051220 0.000039 0.108291
C52   C     C_1   0.499923 0.484898 0.999907 0.155583
C53   C     C_1   0.499932 0.515100 0.999919 0.155496
C54   C     C_1   0.000001 0.984899 0.999999 0.155752
C55   C     C_1   0.000017 0.015101 0.000021 0.155760
C56   C     C_R   0.499999 0.658894 1.000000 0.513930
C57   C     C_3   0.248410 0.779773 0.021431 0.193523
C58   C     C_R   0.499991 0.341105 0.999990 0.516802
C59   C     C_R   0.000007 0.158895 0.000009 0.516837
C60   C     C_R   0.999994 0.841106 0.999993 0.516564
C61   C     C_R   0.500000 0.841000 0.000000 0.574031
C62   C     C_R   0.499999 0.158999 0.999998 0.572543
C63   C     C_R   0.000000 0.341001 0.000001 0.572559
C64   C     C_R   0.999999 0.658999 0.999998 0.572649
C65   C     C_R   0.459021 0.068561 0.981705 -0.116070
C66   C     C_R   0.540953 0.931435 0.018202 -0.115652
C67   C     C_R   0.540971 0.068564 0.018259 -0.115810
C68   C     C_3   0.753916 0.219485 0.983270 0.193780
C69   C     C_R   0.459045 0.931435 0.981779 -0.115648
C70   C     C_R   0.959040 0.568563 0.981769 -0.116152
C71   C     C_R   0.040966 0.431437 0.018248 -0.116131
C72   C     C_R   0.040954 0.568565 0.018211 -0.115857
C73   C     C_R   0.959040 0.431435 0.981767 -0.115903
C74   C     C_R   0.458533 0.103896 0.981565 0.201005
C75   C     C_R   0.541443 0.896100 0.018351 0.201641
C76   C     C_R   0.541461 0.103899 0.018409 0.201284
C77   C     C_R   0.458558 0.896100 0.981640 0.201659
C78   C     C_R   0.958551 0.603898 0.981625 0.200940
C79   C     C_3   0.706669 0.754034 0.937340 0.195251
C80   C     C_R   0.041455 0.396102 0.018393 0.200973
C81   C     C_R   0.041443 0.603900 0.018357 0.201257
C82   C     C_R   0.958551 0.396100 0.981623 0.201251
C83   C     C_R   0.499998 0.121765 0.999991 0.112419
C84   C     C_R   0.500000 0.878233 0.999998 0.112717
C85   C     C_R   0.999998 0.621766 0.999993 0.112426
C86   C     C_R   0.000002 0.378234 0.000006 0.112427
C87   C     C_R   0.499996 0.051123 0.999980 -0.025298
C88   C     C_R   0.499999 0.948875 0.999988 -0.025236
C89   C     C_R   0.999997 0.551125 0.999991 -0.025326
C90   C     C_3   0.292835 0.243059 0.061641 0.194995
C91   C     C_R   0.000002 0.448876 0.000006 -0.025331
C92   C     C_1   0.499996 0.015100 0.999981 0.004398
C93   C     C_1   0.499998 0.984897 0.999984 0.004459
C94   C     C_1   0.999999 0.515102 0.999996 0.004200
C95   C     C_1   0.000000 0.484899 0.000001 0.004195
C96   C     C_3   0.293126 0.755532 0.062236 0.195208
C97   C     C_R   0.599665 0.250088 0.999890 0.510679
C98   C     C_3   0.707399 0.242069 0.938839 0.194812
C99   C     C_3   0.207164 0.256941 0.938358 0.194994
C100  C     C_3   0.793342 0.745961 0.062683 0.195006
C101  C     C_3   0.792601 0.257930 0.061161 0.194810
C102  C     C_3   0.206899 0.744475 0.937811 0.194819
C103  C     C_1   0.639075 0.749830 0.999709 0.066217
C104  C     C_1   0.360927 0.250168 0.000296 0.067309
C105  C     C_1   0.360932 0.749832 0.000305 0.065899
C106  C     C_1   0.639074 0.250171 0.999707 0.064140
C107  C     C_1   0.139072 0.249832 0.999704 0.067333
C108  C     C_R   0.599664 0.749914 0.999888 0.513969
C109  C     C_1   0.860929 0.750167 0.000300 0.067181
C110  C     C_1   0.860926 0.249829 0.000293 0.064131
C111  C     C_1   0.139078 0.750173 0.999714 0.064387
C112  C     C_3   0.756586 0.775088 0.038288 0.194723
C113  C     C_3   0.241181 0.226808 0.957216 0.194890
C114  C     C_3   0.242268 0.774148 0.959395 0.194971
C115  C     C_3   0.759546 0.227512 0.044257 0.195075
C116  C     C_3   0.258818 0.273192 0.042783 0.194886
C117  C     C_3   0.743424 0.724908 0.961734 0.195020
C118  C     C_3   0.740453 0.272488 0.955743 0.195070
C119  C     C_R   0.400336 0.250086 0.000112 0.515556
C120  C     C_3   0.257757 0.725859 0.040652 0.194946
C121  C     C_3   0.712720 0.749901 0.999833 0.039226
C122  C     C_3   0.287284 0.250097 0.000178 0.039224
C123  C     C_3   0.287298 0.749905 0.000204 0.039371
C124  C     C_3   0.712715 0.250098 0.999820 0.039447
C125  C     C_3   0.212715 0.249903 0.999821 0.039224
C126  C     C_3   0.787290 0.750095 0.000190 0.039300
C127  C     C_3   0.787285 0.249901 0.000179 0.039446
C128  C     C_3   0.212726 0.750102 0.999843 0.039364
C129  C     C_1   0.672304 0.749831 0.999704 0.091705
C130  C     C_R   0.900335 0.249912 0.000110 0.510660
C131  C     C_1   0.327700 0.250167 0.000304 0.092505
C132  C     C_1   0.327709 0.749834 0.000322 0.091446
C133  C     C_1   0.672300 0.250169 0.999697 0.090385
C134  C     C_1   0.172299 0.249833 0.999695 0.092515
C135  C     C_1   0.827704 0.750165 0.000312 0.092370
C136  C     C_1   0.827699 0.249831 0.000303 0.090378
C137  C     C_1   0.172308 0.750172 0.999711 0.090604
C138  C     C_R   0.149552 0.764068 0.362997 0.211737
C139  C     C_R   0.850450 0.235924 0.637007 0.211739
C140  C     C_R   0.836356 0.777537 0.636971 0.213307
C141  C     C_R   0.099665 0.750088 0.999890 0.510838
C142  C     C_R   0.166289 0.220806 0.362801 0.212690
C143  C     C_R   0.649715 0.264273 0.363038 0.211715
C144  C     C_R   0.350328 0.735789 0.636970 0.211743
C145  C     C_R   0.333792 0.279140 0.637178 0.212672
C146  C     C_R   0.651996 0.733001 0.363304 0.212306
C147  C     C_R   0.114119 0.763906 0.291972 0.288933
C148  C     C_R   0.885883 0.236090 0.708031 0.288971
C149  C     C_R   0.870875 0.777992 0.707964 0.290903
C150  C     C_R   0.130962 0.220872 0.291771 0.290502
C151  C     C_R   0.614278 0.264132 0.292012 0.288985
C152  C     C_R   0.099664 0.249914 0.999887 0.515618
C153  C     C_R   0.385764 0.735933 0.707996 0.288999
C154  C     C_R   0.369131 0.279076 0.708209 0.290496
C155  C     C_R   0.615953 0.733827 0.292326 0.289419
C156  C     C_R   0.126610 0.749738 0.256463 -0.001228
C157  C     C_R   0.873391 0.250261 0.743538 -0.001233
C158  C     C_R   0.872021 0.751081 0.743515 -0.000347
C159  C     C_R   0.128586 0.248479 0.256433 0.000093
C160  C     C_R   0.626626 0.249747 0.256478 -0.001329
C161  C     C_R   0.373377 0.750256 0.743525 -0.001299
C162  C     C_R   0.371414 0.251518 0.743560 0.000040
C163  C     C_R   0.900336 0.750086 0.000113 0.515498
C164  C     C_R   0.627214 0.749644 0.256539 -0.001673
C165  C     C_R   0.173698 0.735357 0.291882 -0.175779
C166  C     C_R   0.826303 0.264641 0.708117 -0.175835
C167  C     C_R   0.838220 0.724472 0.708112 -0.176010
C168  C     C_R   0.161911 0.275303 0.292001 -0.175158
C169  C     C_R   0.673581 0.235143 0.291884 -0.175833
C170  C     C_R   0.326386 0.764799 0.708117 -0.175854
C171  C     C_R   0.337987 0.224742 0.708000 -0.175165
C172  C     C_R   0.673703 0.764972 0.291747 -0.176556
C173  C     C_R   0.590745 0.749994 0.182162 0.539754
C174  C     C_3   0.252953 0.280227 0.981315 0.193467
C175  C     C_R   0.408782 0.250429 0.817871 0.540652
C176  C     C_R   0.409345 0.750083 0.817861 0.540087
C177  C     C_R   0.590656 0.249918 0.182140 0.540010
C178  C     C_R   0.091218 0.249570 0.182126 0.540703
C179  C     C_R   0.908859 0.750372 0.817859 0.540357
C180  C     C_R   0.909350 0.250085 0.817865 0.540129
C181  C     C_R   0.090650 0.749915 0.182135 0.540158
C182  C     C_R   0.209168 0.735327 0.362256 0.218386
C183  C     C_R   0.790834 0.264669 0.637742 0.218329
C184  C     C_R   0.803584 0.723809 0.637745 0.218423
H1    H     H_    0.427516 0.054627 0.967845 0.122257
H2    H     H_    0.503516 0.617539 0.923006 0.148765
H3    H     H_    0.503126 0.382461 0.922630 0.151472
H4    H     H_    0.496456 0.617527 0.076963 0.149088
H5    H     H_    0.996765 0.882464 0.077253 0.148726
H6    H     H_    0.003203 0.117535 0.922718 0.148807
H7    H     H_    0.003177 0.882467 0.922683 0.151334
H8    H     H_    0.996871 0.117534 0.077363 0.151486
H9    H     H_    0.183180 0.724449 0.264649 0.149428
H10   H     H_    0.816821 0.275552 0.735348 0.149475
H11   H     H_    0.839074 0.703905 0.735346 0.149116
H12   H     H_    0.572441 0.945368 0.032007 0.122332
H13   H     H_    0.160133 0.296385 0.264887 0.148585
H14   H     H_    0.682960 0.224068 0.264646 0.149654
H15   H     H_    0.316979 0.775828 0.735355 0.149446
H16   H     H_    0.339691 0.203697 0.735118 0.148673
H17   H     H_    0.682304 0.777104 0.264371 0.150150
H18   H     H_    0.495241 0.433295 0.113630 0.340130
H19   H     H_    0.505154 0.566718 0.886717 0.340073
H20   H     H_    0.504591 0.433285 0.886178 0.340532
H21   H     H_    0.494768 0.566698 0.113191 0.340165
H22   H     H_    0.995251 0.933288 0.113651 0.340131
H23   H     H_    0.572475 0.054633 0.032114 0.122246
H24   H     H_    0.004706 0.066711 0.886310 0.340196
H25   H     H_    0.004685 0.933293 0.886278 0.340496
H26   H     H_    0.995389 0.066708 0.113793 0.340560
H27   H     H_    0.393009 0.105108 0.953695 0.333765
H28   H     H_    0.606928 0.894886 0.046108 0.334027
H29   H     H_    0.606982 0.105116 0.046272 0.333665
H30   H     H_    0.393072 0.894883 0.953884 0.333937
H31   H     H_    0.893059 0.605112 0.953848 0.333863
H32   H     H_    0.106957 0.394889 0.046201 0.333736
H33   H     H_    0.106932 0.605117 0.046125 0.333829
H34   H     H_    0.427557 0.945367 0.967971 0.122308
H35   H     H_    0.893050 0.394884 0.953822 0.333616
H36   H     H_    0.669643 0.760143 0.843586 0.361570
H37   H     H_    0.329114 0.232603 0.153857 0.361508
H38   H     H_    0.329816 0.763879 0.155301 0.360911
H39   H     H_    0.671476 0.230126 0.847346 0.360615
H40   H     H_    0.170886 0.267397 0.846142 0.361492
H41   H     H_    0.830367 0.739853 0.156437 0.361053
H42   H     H_    0.828524 0.269874 0.152653 0.360602
H43   H     H_    0.170211 0.736128 0.844748 0.360779
H44   H     H_    0.229490 0.325439 0.953213 0.361229
H45   H     H_    0.927549 0.554630 0.967954 0.122170
H46   H     H_    0.777355 0.677071 0.060628 0.361214
H47   H     H_    0.768103 0.326155 0.041901 0.360761
H48   H     H_    0.226130 0.675710 0.946436 0.360877
H49   H     H_    0.722656 0.822925 0.939397 0.361299
H50   H     H_    0.270510 0.174561 0.046786 0.361259
H51   H     H_    0.273896 0.824298 0.053613 0.361141
H52   H     H_    0.731896 0.173844 0.958098 0.360799
H53   H     H_    0.200078 0.191994 0.892985 0.361969
H54   H     H_    0.794337 0.812746 0.095766 0.361652
H55   H     H_    0.801737 0.193749 0.110690 0.361595
H56   H     H_    0.072461 0.445371 0.032077 0.122192
H57   H     H_    0.202776 0.810393 0.898397 0.361581
H58   H     H_    0.705674 0.687249 0.904258 0.361687
H59   H     H_    0.299922 0.308006 0.107014 0.361954
H60   H     H_    0.297250 0.689616 0.101653 0.361688
H61   H     H_    0.698263 0.306251 0.889310 0.361577
H62   H     H_    0.163326 0.776478 0.445198 0.363822
H63   H     H_    0.836675 0.223506 0.554808 0.363810
H64   H     H_    0.811992 0.800724 0.554826 0.358223
H65   H     H_    0.193935 0.195867 0.444846 0.363603
H66   H     H_    0.663609 0.276854 0.445256 0.363876
H67   H     H_    0.072444 0.554634 0.032025 0.122225
H68   H     H_    0.336468 0.723260 0.554755 0.363907
H69   H     H_    0.306221 0.304037 0.555123 0.363632
H70   H     H_    0.668148 0.717187 0.445607 0.358581
H71   H     H_    0.062723 0.785806 0.286459 0.386726
H72   H     H_    0.937279 0.214186 0.713548 0.386609
H73   H     H_    0.898633 0.821749 0.713351 0.384201
H74   H     H_    0.104475 0.176467 0.285962 0.384142
H75   H     H_    0.563113 0.286418 0.286546 0.386558
H76   H     H_    0.436992 0.713753 0.713473 0.386751
H77   H     H_    0.395784 0.323404 0.713994 0.384140
H78   H     H_    0.927544 0.445367 0.967938 0.122134
H79   H     H_    0.566017 0.709807 0.287352 0.386338
H80   H     H_    0.258301 0.712381 0.365360 0.341537
H81   H     H_    0.741701 0.287619 0.634634 0.341517
H82   H     H_    0.775532 0.681209 0.634646 0.339947
H83   H     H_    0.223583 0.319008 0.365727 0.340540
H84   H     H_    0.757961 0.211785 0.365335 0.341525
H85   H     H_    0.241944 0.788053 0.634661 0.341458
H86   H     H_    0.276143 0.181114 0.634290 0.340553
H87   H     H_    0.757217 0.789739 0.364866 0.340890
H88   H     H_    0.496772 0.382468 0.077255 0.148810
O1    O     O_3   0.500000 0.749970 0.000000 -0.474666
O2    O     O_R   0.101800 0.730420 0.039220 -0.520786
O3    O     O_3   0.639783 0.717020 0.396575 -0.685405
O4    O     O_3   0.066737 0.776903 0.255880 -0.639589
O5    O     O_3   0.933265 0.223093 0.744126 -0.639727
O6    O     O_3   0.903485 0.804590 0.743964 -0.644210
O7    O     O_3   0.098833 0.194095 0.255494 -0.645082
O8    O     O_3   0.567031 0.277371 0.255951 -0.639665
O9    O     O_3   0.433048 0.722760 0.744065 -0.639376
O10   O     O_3   0.401365 0.305809 0.744471 -0.645016
O11   O     O_3   0.569208 0.719769 0.256591 -0.639186
O12   O     O_3   0.255873 0.721454 0.397530 -0.674388
O13   O     O_R   0.101800 0.269580 0.039220 -0.518492
O14   O     O_3   0.744129 0.278543 0.602466 -0.674527
O15   O     O_3   0.770171 0.697602 0.602476 -0.670703
O16   O     O_3   0.229811 0.302112 0.397804 -0.674800
O17   O     O_3   0.755622 0.220988 0.397516 -0.674424
O18   O     O_3   0.244307 0.778888 0.602482 -0.674433
O19   O     O_3   0.269972 0.197979 0.602206 -0.674748
O20   O     O_3   0.755607 0.779597 0.397159 -0.669714
O21   O     O_R   0.898200 0.730420 0.960780 -0.518652
O22   O     O_R   0.553280 0.730340 0.149660 -0.469925
O23   O     O_R   0.446720 0.269660 0.850340 -0.470284
O24   O     O_R   0.446720 0.730340 0.850340 -0.470888
O25   O     O_R   0.553280 0.269660 0.149660 -0.471232
O26   O     O_R   0.053280 0.230340 0.149660 -0.470361
O27   O     O_R   0.946720 0.769660 0.850340 -0.469635
O28   O     O_R   0.946720 0.230340 0.850340 -0.471403
O29   O     O_3   0.500000 0.250030 0.000000 -0.474762
O30   O     O_R   0.053280 0.769660 0.149660 -0.471330
O31   O     O_R   0.498080 0.675140 0.039250 -0.537868
O32   O     O_R   0.501920 0.324860 0.960750 -0.530992
O33   O     O_R   0.501920 0.675140 0.960750 -0.538482
O34   O     O_R   0.498080 0.324860 0.039250 -0.538724
O35   O     O_R   0.998080 0.175140 0.039250 -0.530939
O36   O     O_R   0.001920 0.824860 0.960750 -0.531368
O37   O     O_R   0.001920 0.175140 0.960750 -0.538792
O38   O     O_R   0.998080 0.824860 0.039250 -0.538812
O39   O     O_R   0.458830 0.824790 0.960760 -0.490539
O40   O     O_3   0.000000 0.249970 0.000000 -0.474760
O41   O     O_R   0.541170 0.175210 0.039240 -0.490492
O42   O     O_R   0.541170 0.824790 0.039240 -0.490694
O43   O     O_R   0.458830 0.175210 0.960760 -0.493206
O44   O     O_R   0.958830 0.324790 0.960760 -0.490506
O45   O     O_R   0.041170 0.675210 0.039240 -0.490484
O46   O     O_R   0.041170 0.324790 0.039240 -0.493235
O47   O     O_R   0.958830 0.675210 0.960760 -0.493156
O48   O     O_R   0.596370 0.769570 0.149640 -0.554020
O49   O     O_R   0.403630 0.230430 0.850360 -0.553600
O50   O     O_R   0.403630 0.769570 0.850360 -0.553545
O51   O     O_3   0.000000 0.750030 0.000000 -0.474772
O52   O     O_R   0.596370 0.230430 0.149640 -0.553239
O53   O     O_R   0.096370 0.269570 0.149640 -0.553570
O54   O     O_R   0.903630 0.730430 0.850360 -0.553942
O55   O     O_R   0.903630 0.269570 0.850360 -0.553171
O56   O     O_R   0.096370 0.730430 0.149640 -0.553202
O57   O     O_R   0.437440 0.730340 0.039250 -0.522316
O58   O     O_R   0.562560 0.269660 0.960750 -0.529522
O59   O     O_R   0.562560 0.730340 0.960750 -0.521704
O60   O     O_R   0.437440 0.269660 0.039250 -0.521667
O61   O     O_R   0.937440 0.230340 0.039250 -0.529549
O62   O     O_R   0.398200 0.769580 0.960780 -0.521300
O63   O     O_R   0.062560 0.769660 0.960750 -0.529035
O64   O     O_R   0.062560 0.230340 0.960750 -0.521586
O65   O     O_R   0.937440 0.769660 0.039250 -0.521626
O66   O     O_3   0.496362 0.449267 0.086273 -0.653089
O67   O     O_3   0.503895 0.550742 0.913940 -0.653082
O68   O     O_3   0.503465 0.449260 0.913526 -0.652680
O69   O     O_3   0.496007 0.550727 0.085945 -0.653114
O70   O     O_3   0.996391 0.949262 0.086314 -0.652921
O71   O     O_3   0.003581 0.050737 0.913662 -0.652885
O72   O     O_3   0.003558 0.949267 0.913628 -0.652662
O73   O     O_R   0.601800 0.230420 0.039220 -0.520733
O74   O     O_3   0.996503 0.050734 0.086432 -0.652592
O75   O     O_3   0.418518 0.121325 0.965023 -0.658752
O76   O     O_3   0.581435 0.878670 0.034829 -0.658184
O77   O     O_3   0.581476 0.121331 0.034952 -0.659130
O78   O     O_3   0.418566 0.878668 0.965167 -0.658308
O79   O     O_3   0.918555 0.621329 0.965138 -0.658683
O80   O     O_3   0.081457 0.378672 0.034900 -0.658797
O81   O     O_3   0.081437 0.621333 0.034841 -0.658939
O82   O     O_3   0.918549 0.378669 0.965119 -0.659189
O83   O     O_3   0.661165 0.758250 0.871804 -0.653666
O84   O     O_R   0.601800 0.769580 0.039220 -0.521217
O85   O     O_3   0.337817 0.235807 0.126102 -0.654082
O86   O     O_3   0.338397 0.761308 0.127293 -0.654452
O87   O     O_3   0.662663 0.233782 0.874880 -0.657383
O88   O     O_3   0.162183 0.264193 0.873897 -0.654094
O89   O     O_3   0.838846 0.741746 0.128219 -0.654045
O90   O     O_3   0.837336 0.266217 0.125120 -0.657419
O91   O     O_3   0.161629 0.738700 0.872754 -0.656652
O92   O     O_3   0.256232 0.311838 0.961789 -0.659634
O93   O     O_3   0.749374 0.690217 0.049548 -0.660852
O94   O     O_3   0.741797 0.312425 0.034211 -0.660928
O95   O     O_R   0.398200 0.230420 0.960780 -0.518497
O96   O     O_3   0.253483 0.689103 0.956242 -0.660999
O97   O     O_3   0.750636 0.809779 0.950475 -0.659921
O98   O     O_3   0.243767 0.188162 0.038211 -0.659582
O99   O     O_3   0.246542 0.810905 0.043805 -0.660785
O100  O     O_3   0.758203 0.187574 0.965788 -0.660852
O101  O     O_3   0.232150 0.202554 0.912475 -0.655908
O102  O     O_3   0.763277 0.801326 0.078315 -0.657007
O103  O     O_3   0.769339 0.203995 0.090538 -0.657561
O104  O     O_3   0.234360 0.799397 0.916907 -0.657262
O105  O     O_3   0.736733 0.698669 0.921708 -0.656082
O106  O     O_R   0.898200 0.269580 0.960780 -0.520763
O107  O     O_3   0.267850 0.297445 0.087524 -0.655927
O108  O     O_3   0.265665 0.700610 0.083140 -0.657261
O109  O     O_3   0.730661 0.296005 0.909461 -0.657606
O110  O     O_3   0.136078 0.778342 0.396034 -0.683994
O111  O     O_3   0.863924 0.221647 0.603972 -0.684056
O112  O     O_3   0.836658 0.804171 0.603916 -0.686154
O113  O     O_3   0.167311 0.193429 0.395677 -0.684944
O114  O     O_3   0.636385 0.278761 0.396095 -0.684136
O115  O     O_3   0.363698 0.721361 0.603917 -0.683906
O116  O     O_3   0.332865 0.306467 0.604291 -0.684968
Zn1   Zn    Zn3+2 0.558810 0.777990 0.056050 0.994090
Zn2   Zn    Zn3+2 0.502750 0.278070 0.943930 0.995159
Zn3   Zn    Zn3+2 0.502750 0.721930 0.943930 0.995104
Zn4   Zn    Zn3+2 0.497250 0.278070 0.056070 0.997459
Zn5   Zn    Zn3+2 0.997250 0.221930 0.056070 0.995156
Zn6   Zn    Zn3+2 0.002750 0.778070 0.943930 0.995383
Zn7   Zn    Zn3+2 0.002750 0.221930 0.943930 0.997478
Zn8   Zn    Zn3+2 0.997250 0.778070 0.056070 0.997280
Zn9   Zn    Zn3+2 0.441190 0.222010 0.943950 0.994704
Zn10  Zn    Zn3+2 0.441190 0.777990 0.943950 0.994196
Zn11  Zn    Zn3+2 0.558810 0.222010 0.056050 0.992010
Zn12  Zn    Zn3+2 0.058810 0.277990 0.056050 0.994750
Zn13  Zn    Zn3+2 0.941190 0.722010 0.943950 0.994348
Zn14  Zn    Zn3+2 0.941190 0.277990 0.943950 0.992021
Zn15  Zn    Zn3+2 0.058810 0.722010 0.056050 0.992175
Zn16  Zn    Zn3+2 0.497250 0.721930 0.056070 0.995152

loop_
_geom_bond_atom_site_label_1
_geom_bond_atom_site_label_2
_ccdc_geom_bond_type
C62   C83   S    
C140  O112  S    
C76   O77   S    
C18   C21   T    
C10   C184  A    
C77   O78   S    
C78   O79   S    
C57   C128  S    
C145  O116  S    
C79   C121  S    
C124  C133  S    
C113  O101  S    
O61   Zn5   S    
C115  O103  S    
O62   Zn10  S    
C60   O38   A    
O59   Zn3   S    
C61   O39   A    
H25   O72   S    
C148  O5    S    
H38   O86   S    
O27   Zn6   S    
C8    C138  A    
C89   C94   S    
C4    O17   S    
H46   O93   S    
C80   C86   A    
H62   O110  S    
C43   C58   S    
H82   O15   S    
C175  O49   A    
C106  C133  T    
O38   Zn8   S    
C113  C122  S    
O36   Zn6   S    
C90   C116  S    
C4    C12   A    
C117  C126  S    
C74   C83   A    
C1    O57   A    
H54   O102  S    
C143  C151  A    
C7    C172  A    
O29   Zn9   S    
C34   H88   S    
C10   C140  A    
H47   O94   S    
C76   C83   A    
H49   O97   S    
C2    C117  S    
C158  C167  A    
C65   C87   A    
O42   Zn1   S    
C3    O16   S    
C14   C144  A    
C11   C20   S    
C24   C120  S    
C150  C159  A    
O41   Zn11  S    
C69   H34   S    
C64   O47   A    
C127  C136  S    
H55   O103  S    
C109  C163  S    
H33   O81   S    
H86   O19   S    
C59   O37   A    
C13   C124  S    
H29   O77   S    
C153  C161  A    
C174  O92   S    
C102  C114  S    
C7    O20   S    
H21   O69   S    
C164  C173  S    
C57   O99   S    
C100  O89   S    
C69   C88   A    
O35   Zn5   S    
C61   O42   A    
H39   O87   S    
C101  C115  S    
C36   C44   A    
H59   O107  S    
C98   O87   S    
C64   C85   S    
C111  C137  T    
C2    C121  S    
H37   O85   S    
C16   C25   S    
H48   O96   S    
C117  O105  S    
O31   Zn16  S    
C167  H11   S    
H66   O114  S    
C61   C84   S    
C139  O111  S    
C8    C17   S    
H71   O4    S    
C71   H56   S    
C179  O27   A    
C99   O88   S    
O45   Zn15  S    
C122  C174  S    
C182  O12   S    
H58   O105  S    
C37   H3    S    
C99   C174  S    
C49   C53   S    
C51   C55   S    
C155  O11   S    
C68   C98   S    
C3    C11   A    
C119  O60   A    
C47   C59   S    
C48   C52   S    
O55   Zn14  S    
O29   Zn11  S    
C41   C45   A    
O21   Zn13  S    
O25   Zn4   S    
C1    C105  S    
C74   O75   S    
C123  C132  S    
C109  C135  T    
C63   O46   A    
H27   O75   S    
C173  O48   A    
C69   C77   A    
H42   O90   S    
C59   O35   A    
C13   C118  S    
O60   Zn4   S    
C29   C49   A    
C98   C124  S    
O29   Zn2   S    
C75   O76   S    
C100  C126  S    
C33   C42   A    
C116  O107  S    
C107  C134  T    
C102  C128  S    
C56   O33   A    
H35   O82   S    
C66   C88   A    
C39   H5    S    
C38   H4    S    
C75   C84   A    
C28   O68   S    
C56   O31   A    
C150  O7    S    
C138  O110  S    
C183  O14   S    
C104  C131  T    
H63   O111  S    
C29   C38   A    
C5    C170  A    
H32   O80   S    
H28   O76   S    
C149  C158  A    
C39   C45   A    
C104  C119  S    
O39   Zn10  S    
C33   O74   S    
H61   O109  S    
C170  H15   S    
H87   O20   S    
C98   C118  S    
O24   Zn3   S    
C139  C148  A    
C41   H7    S    
O57   Zn16  S    
H72   O5    S    
H36   O83   S    
C161  C176  S    
C162  C175  S    
C77   C84   A    
O73   Zn11  S    
O13   Zn12  S    
C24   C123  S    
C114  O104  S    
C65   C74   A    
C120  O108  S    
C151  O8    S    
C171  H16   S    
C167  C184  A    
C20   C23   T    
O54   Zn13  S    
O51   Zn8   S    
H69   O116  S    
O22   Zn16  S    
C114  C123  S    
C78   C85   A    
C184  O15   S    
C116  C125  S    
C130  O106  A    
H44   O92   S    
C70   C89   A    
C118  C127  S    
C145  C154  A    
C159  C178  S    
C122  C131  S    
C52   C53   T    
C54   C55   T    
C28   C48   A    
O29   Zn4   S    
C96   C123  S    
C154  C162  A    
C34   C43   A    
C166  H10   S    
O46   Zn12  S    
C142  O113  S    
H70   O3    S    
C30   O70   S    
O64   Zn7   S    
C12   C143  A    
C14   C22   S    
C70   H45   S    
C112  C121  S    
O34   Zn4   S    
C28   C37   A    
O58   Zn2   S    
C27   O67   S    
C101  C127  S    
C181  O30   A    
C148  C157  A    
O106  Zn14  S    
C72   H67   S    
C30   C50   A    
C97   O73   A    
C164  C172  A    
C111  C141  S    
C91   C95   S    
C9    C18   S    
H84   O17   S    
C140  C149  A    
C81   C85   A    
C35   C112  S    
C27   C49   A    
O23   Zn2   S    
C125  C134  S    
O65   Zn8   S    
C112  O102  S    
H64   O112  S    
C90   O85   S    
C13   O94   S    
C163  O65   A    
C46   C125  S    
C5    O18   S    
H76   O9    S    
C130  O61   A    
O84   Zn1   S    
C50   C54   S    
C81   O81   S    
C68   O100  S    
C165  C182  A    
O32   Zn2   S    
H43   O91   S    
C31   C40   A    
O52   Zn11  S    
O51   Zn6   S    
C108  O84   A    
C176  O50   A    
O48   Zn1   S    
C181  O56   A    
C110  C136  T    
C146  C155  A    
H68   O115  S    
C62   O43   A    
C57   C96   S    
C176  O24   A    
C160  C169  A    
C177  O52   A    
H24   O71   S    
C72   C81   A    
C46   C113  S    
C26   C48   A    
H20   O68   S    
O33   Zn3   S    
H53   O101  S    
C87   C92   S    
O26   Zn5   S    
C177  O25   A    
O44   Zn14  S    
H50   O98   S    
C9    C139  A    
C163  O21   A    
C35   O97   S    
C105  C132  T    
C146  O3    S    
C168  H13   S    
C31   C51   A    
C152  O13   A    
H30   O78   S    
C82   C86   A    
O1    Zn10  S    
C157  C180  S    
C37   C43   A    
C158  C179  S    
C2    O93   S    
C38   C44   A    
C9    C183  A    
C96   O86   S    
O49   Zn9   S    
C44   C56   S    
C24   O96   S    
C10   C19   S    
H22   O70   S    
C147  C156  A    
C103  C129  T    
C68   C127  S    
C119  O95   A    
C5    C14   A    
H18   O66   S    
C97   C106  S    
C79   O83   S    
C7    C16   A    
C126  C135  S    
C100  C112  S    
O28   Zn7   S    
C63   C86   S    
O51   Zn15  S    
H80   O12   S    
C80   O80   S    
C73   C82   A    
C6    O19   S    
C8    C182  A    
C115  C124  S    
O37   Zn7   S    
C67   C87   A    
C166  C183  A    
C121  C129  S    
C99   C113  S    
C120  C128  S    
C46   C90   S    
C27   C36   A    
C33   C51   A    
O56   Zn15  S    
C17   C22   T    
C116  C174  S    
C142  C150  A    
O40   Zn5   S    
C82   O82   S    
C156  C165  A    
C62   O41   A    
C66   C75   A    
C79   C117  S    
C92   C93   T    
C110  C130  S    
C24   C102  S    
C94   C95   T    
C160  C177  S    
C31   O71   S    
C68   C115  S    
C71   C91   A    
C26   O66   S    
C144  O115  S    
H60   O108  S    
O47   Zn13  S    
H31   O79   S    
C40   C47   A    
C45   C60   S    
C72   C89   A    
C70   C78   A    
C175  O23   A    
H26   O74   S    
C180  O55   A    
H52   O100  S    
C102  O91   S    
C99   C125  S    
O53   Zn12  S    
H19   O67   S    
C144  C153  A    
H79   O11   S    
C159  C168  A    
C16   C146  A    
C63   O44   A    
C35   C79   S    
C101  O90   S    
C6    C15   A    
C26   C34   A    
C30   C39   A    
C141  O63   A    
C103  C108  S    
C147  O4    S    
C97   O58   A    
C15   C23   S    
C2    C100  S    
H73   O6    S    
C90   C122  S    
H75   O8    S    
C141  O2    A    
C71   C80   A    
C178  O53   A    
C3    C168  A    
C6    C171  A    
C65   H1    S    
C4    C169  A    
C153  O9    S    
O1    Zn3   S    
O1    Zn16  S    
C73   C91   A    
O2    Zn15  S    
C15   C145  A    
O40   Zn7   S    
C46   O98   S    
C161  C170  A    
C12   C21   S    
C152  O64   A    
H65   O113  S    
C35   C126  S    
C128  C137  S    
O51   Zn13  S    
C179  O54   A    
C60   O36   A    
C138  C147  A    
C32   C41   A    
H41   O89   S    
C180  O28   A    
C178  O26   A    
C149  O6    S    
C32   C50   A    
C143  O114  S    
H81   O14   S    
C107  C152  S    
H83   O16   S    
C13   C101  S    
C32   O72   S    
C67   H23   S    
C73   H78   S    
O30   Zn8   S    
C88   C93   S    
C96   C120  S    
C165  H9    S    
C157  C166  A    
C66   H12   S    
C156  C181  S    
C57   C114  S    
O50   Zn10  S    
C118  O109  S    
C155  C164  A    
H57   O104  S    
C173  O22   A    
C29   O69   S    
C151  C160  A    
C64   O45   A    
H85   O18   S    
C58   O34   A    
O1    Zn1   S    
C1    O62   A    
H51   O99   S    
C108  O59   A    
C36   H2    S    
C42   C47   A    
H40   O88   S    
O40   Zn14  S    
C172  H17   S    
C19   C25   T    
C11   C142  A    
C58   O32   A    
C154  O10   S    
O95   Zn9   S    
H77   O10   S    
O40   Zn12  S    
C42   H8    S    
C162  C171  A    
O63   Zn6   S    
C40   H6    S    
O43   Zn9   S    
H74   O7    S    
C67   C76   A    
C169  H14   S    
