data_mof_unit_20027.cif
_audit_creation_date              2012-12-11T15:44:59-0500
_audit_creation_method            fapswitch 2.2
_symmetry_space_group_name_H-M    P1
_symmetry_Int_Tables_number       1
_space_group_crystal_system       triclinic
_cell_length_a                    6.928957
_cell_length_b                    16.805107
_cell_length_c                    17.091409
_cell_angle_alpha                 100.265508
_cell_angle_beta                  88.843351
_cell_angle_gamma                 91.68873
_cell_volume                      1957.22191192

loop_
_atom_site_label
_atom_site_type_symbol
_atom_type_description
_atom_site_fract_x
_atom_site_fract_y
_atom_site_fract_z
_atom_type_partial_charge
O1    O     O_R   0.494370 0.415690 0.413450 -0.547013
O2    O     O_R   0.819420 0.429360 0.578420 -0.536526
O3    O     O_R   0.994280 0.584310 0.586550 -0.533782
C1    C     C_R   0.647663 0.413420 0.604792 0.711696
O4    O     O_R   0.823790 0.406230 0.413570 -0.546338
O5    O     O_R   0.998670 0.561000 0.420530 -0.543074
C2    C     C_R   0.654432 0.383292 0.385201 0.686085
O6    O     O_R   0.489970 0.439000 0.579470 -0.533314
O7    O     O_3   0.662300 0.550810 0.502470 -0.347234
V1    V     V_3+5 0.935380 0.490570 0.499540 1.491632
O8    O     O_R   0.328650 0.570640 0.421580 -0.539634
C3    C     C_R   0.163376 0.586785 0.395069 0.678914
O9    O     O_R   0.324290 0.593770 0.586430 -0.510146
C4    C     C_R   0.156653 0.617828 0.614245 0.734499
V2    V     V_3+5 0.435930 0.509430 0.500460 1.530095
O10   O     O_3   0.159140 0.449190 0.497530 -0.371093
C5    C     C_R   0.293218 0.748945 0.697675 -0.007602
C6    C     C_R   0.272591 0.812141 0.762810 -0.140425
H1    H     H_    0.382043 0.860260 0.772093 0.138624
C7    C     C_R   0.114905 0.814566 0.816035 -0.089074
C8    C     C_R   0.971363 0.751673 0.801679 -0.009114
C9    C     C_R   0.992031 0.688469 0.736586 -0.144835
H2    H     H_    0.882526 0.640375 0.727315 0.144917
C10   C     C_R   0.149845 0.685964 0.683422 -0.077750
C11   C     C_R   0.168522 0.639563 0.333572 -0.095616
C12   C     C_R   0.093477 0.861502 0.167462 -0.054366
C13   C     C_R   0.905977 0.813708 0.274672 -0.023227
C14   C     C_R   0.934484 0.866868 0.220306 -0.221802
C15   C     C_R   0.229985 0.802357 0.170542 -0.245947
C16   C     C_R   0.205556 0.747889 0.224264 0.124662
C17   C     C_R   0.043601 0.752911 0.277462 0.128561
C18   C     C_R   0.029299 0.698531 0.332493 -0.191171
C19   C     C_R   0.323886 0.634861 0.279076 -0.095651
C20   C     C_R   0.342061 0.688119 0.225153 -0.116470
H3    H     H_    0.917153 0.703095 0.377519 0.182928
H4    H     H_    0.433766 0.590270 0.278877 0.118096
H5    H     H_    0.465386 0.683265 0.184711 0.116501
H6    H     H_    0.828061 0.912423 0.217918 0.124949
H7    H     H_    0.352144 0.797097 0.129450 0.122588
C21   C     C_R   0.627729 0.360156 0.665964 -0.147838
C22   C     C_R   0.637200 0.132348 0.828701 -0.145791
C23   C     C_R   0.792437 0.159917 0.706484 -0.137295
C24   C     C_R   0.762541 0.108565 0.762551 -0.023587
C25   C     C_R   0.539664 0.205346 0.835229 -0.184303
C26   C     C_R   0.569685 0.256263 0.778792 0.131425
C27   C     C_R   0.698105 0.234181 0.713724 0.067069
C28   C     C_R   0.727144 0.286285 0.657114 -0.101730
C29   C     C_R   0.501509 0.381129 0.732181 -0.049751
C30   C     C_R   0.473695 0.329478 0.787441 -0.196409
H8    H     H_    0.888787 0.140919 0.656433 0.171859
H9    H     H_    0.376503 0.346712 0.837817 0.129036
H10   H     H_    0.443872 0.223627 0.885812 0.156431
C31   C     C_R   0.785536 0.257560 0.303181 -0.181661
H11   H     H_    0.903288 0.261065 0.344654 0.144179
C32   C     C_R   0.776222 0.193557 0.238347 -0.063167
C33   C     C_R   0.623884 0.187781 0.182559 -0.107902
C34   C     C_R   0.482910 0.249233 0.194857 0.009073
C35   C     C_R   0.490639 0.310112 0.262852 -0.220924
H12   H     H_    0.382124 0.356223 0.271798 0.105413
C36   C     C_R   0.642670 0.315644 0.316522 -0.046204
O11   O     O_R   0.774880 0.061150 0.920630 -0.548206
O12   O     O_R   0.440980 0.093710 0.086500 -0.514637
O13   O     O_R   0.266190 0.938890 0.079390 -0.542287
C37   C     C_R   0.610733 0.117795 0.114424 0.732395
O14   O     O_R   0.445420 0.070740 0.921670 -0.525842
O15   O     O_R   0.270660 0.915760 0.913380 -0.535200
C38   C     C_R   0.616893 0.084447 0.893659 0.701501
O16   O     O_R   0.770400 0.084270 0.086640 -0.544397
O17   O     O_3   0.602590 0.949210 0.997500 -0.360876
V3    V     V_3+5 0.329470 0.009420 0.000470 1.535292
O18   O     O_R   0.940650 0.906250 0.913470 -0.524234
C39   C     C_R   0.108263 0.882475 0.885418 0.695437
O19   O     O_R   0.936210 0.929220 0.078300 -0.547413
C40   C     C_R   0.101279 0.913229 0.104990 0.726436
V4    V     V_3+5 0.828930 0.990510 0.999490 1.500814
O20   O     O_3   0.105680 0.050790 0.002500 -0.359553
C41   C     C_2   0.463512 0.754318 0.645298 0.390382
H13   H     H_    0.486017 0.807349 0.617806 0.050203
O21   O     O_2   0.587256 0.703219 0.637559 -0.509479
C42   C     C_1   0.852599 0.262805 0.588356 0.295633
N1    N     N_1   0.952587 0.244127 0.533479 -0.349633
C43   C     C_1   0.401677 0.456805 0.746257 0.307166
N2    N     N_1   0.321761 0.517390 0.757702 -0.370133
C44   C     C_2   0.857315 0.028828 0.749158 0.371053
H14   H     H_    0.810809 0.982130 0.782245 0.055872
O22   O     O_2   0.987792 0.013810 0.700088 -0.530811
C45   C     C_1   0.924665 0.134047 0.232657 0.297746
N3    N     N_1   0.044216 0.086748 0.228492 -0.369736
C46   C     C_2   0.330636 0.256326 0.136945 0.376991
H15   H     H_    0.191782 0.280554 0.158149 0.038658
O23   O     O_2   0.362235 0.240615 0.065397 -0.537079
C47   C     C_2   0.800710 0.746432 0.853886 0.380188
H16   H     H_    0.778075 0.693558 0.881603 0.032954
O24   O     O_2   0.676875 0.797477 0.861239 -0.517661
C48   C     C_2   0.728032 0.825260 0.325147 0.345148
H17   H     H_    0.662230 0.884134 0.336653 0.069557
O25   O     O_2   0.646384 0.769683 0.350654 -0.537721

loop_
_geom_bond_atom_site_label_1
_geom_bond_atom_site_label_2
_ccdc_geom_bond_type
C21   C28   A    
C32   C33   A    
C20   H5    S    
O19   V4    S    
O19   C40   A    
C13   C48   S    
C48   H17   S    
C1    O6    A    
C22   C38   S    
C41   H13   S    
O11   V4    S    
O16   V4    S    
C34   C46   S    
C37   O16   A    
C44   O22   D    
O5    C3    A    
C16   C17   A    
C35   C36   A    
V2    O10   S    
C19   H4    S    
C33   C34   A    
O12   V3    S    
C6    H1    S    
C23   C27   A    
C4    C10   S    
O12   C37   A    
O8    V2    S    
O15   C39   A    
C1    C21   S    
O14   C38   A    
C33   C37   S    
O1    V2    S    
C14   H6    S    
C46   O23   D    
O7    V1    S    
C25   H10   S    
C11   C18   A    
C41   O21   D    
C8    C9    A    
C24   C44   S    
C22   C24   A    
C28   C42   S    
C47   O24   D    
C31   C36   A    
C19   C20   A    
C31   C32   A    
C5    C10   A    
C16   C20   A    
C13   C17   A    
C18   H3    S    
C44   H14   S    
O4    C2    A    
C30   H9    S    
C35   H12   S    
C31   H11   S    
C45   N3    T    
O2    C1    A    
V4    O20   S    
C15   C16   A    
O11   C38   A    
C17   C18   A    
O13   V3    S    
C26   C30   A    
C15   H7    S    
C5    C41   S    
C5    C6    A    
O3    C4    A    
C23   H8    S    
C29   C30   A    
O6    V2    S    
O9    V2    S    
V3    O20   S    
C22   C25   A    
C9    C10   A    
C23   C24   A    
O2    V1    S    
C2    C36   S    
C25   C26   A    
C21   C29   A    
C27   C28   A    
O1    C2    A    
C42   N1    T    
O5    V1    S    
O8    C3    A    
C48   O25   D    
O13   C40   A    
C12   C14   A    
C3    C11   S    
O7    V2    S    
O18   C39   A    
O3    V1    S    
V1    O10   S    
O18   V4    S    
C34   C35   A    
O15   V3    S    
C47   H16   S    
C12   C40   S    
C29   C43   S    
O17   V4    S    
C6    C7    A    
C32   C45   S    
O17   V3    S    
C26   C27   A    
O4    V1    S    
C7    C8    A    
C12   C15   A    
C43   N2    T    
C13   C14   A    
C9    H2    S    
C7    C39   S    
C46   H15   S    
O9    C4    A    
O14   V3    S    
C11   C19   A    
C8    C47   S    
