data_mof_unit_36996.cif
_audit_creation_date              2012-12-11T15:20:29-0500
_audit_creation_method            fapswitch 2.2
_symmetry_space_group_name_H-M    P1
_symmetry_Int_Tables_number       1
_space_group_crystal_system       triclinic
_cell_length_a                    12.981094
_cell_length_b                    13.045229
_cell_length_c                    15.385117
_cell_angle_alpha                 116.301121
_cell_angle_beta                  63.959798
_cell_angle_gamma                 96.482676
_cell_volume                      2087.7277798

loop_
_atom_site_label
_atom_site_type_symbol
_atom_type_description
_atom_site_fract_x
_atom_site_fract_y
_atom_site_fract_z
_atom_type_partial_charge
C1    C     C_R   0.002191 0.833928 0.049056 0.518595
C2    C     C_R   0.306873 0.579368 0.785156 -0.082969
C3    C     C_R   0.260565 0.410753 0.040998 0.572241
C4    C     C_R   0.678561 0.470841 0.218459 0.550597
C5    C     C_R   0.045923 0.281232 0.684560 -0.123471
C6    C     C_R   0.363959 0.430131 0.969140 -0.008556
C7    C     C_R   0.023199 0.173465 0.677420 0.107611
C8    C     C_R   0.306322 0.540065 0.686586 0.138125
C9    C     C_R   0.991626 0.159502 0.060300 0.070586
C10   C     C_R   0.995607 0.982759 0.430754 -0.325450
C11   C     C_R   0.976693 0.075171 0.526727 0.497888
C12   C     C_R   0.667691 0.545310 0.319676 -0.262037
C13   C     C_R   0.041239 0.076099 0.579694 -0.208719
C14   C     C_R   0.124049 0.985542 0.538120 0.374708
C15   C     C_R   0.142006 0.891462 0.440908 0.440488
C16   C     C_R   0.756609 0.517928 0.891335 -0.017745
C17   C     C_R   0.076711 0.891834 0.389002 -0.116666
C18   C     C_R   0.591484 0.481508 0.458761 -0.315713
C19   C     C_R   0.504079 0.482083 0.552387 0.613252
C20   C     C_R   0.398197 0.543491 0.594189 -0.067059
C21   C     C_R   0.379150 0.604767 0.546728 -0.252446
C22   C     C_R   0.468238 0.606644 0.455676 -0.065103
C23   C     C_R   0.664679 0.458015 0.922657 0.075513
C24   C     C_R   0.573771 0.546063 0.413596 0.136152
C25   C     C_2   0.478907 0.394031 0.943991 -0.126195
C26   C     C_2   0.570734 0.437272 0.892445 -0.137322
C27   C     C_2   0.837577 0.960402 0.080750 -0.105822
C28   C     C_R   0.022716 0.700744 0.299627 0.600148
C29   C     C_2   0.811329 0.038099 0.182064 -0.148108
C30   C     C_R   0.678846 0.419934 0.986870 -0.029654
C31   C     C_R   0.098457 0.798024 0.204632 -0.169361
C32   C     C_R   0.777985 0.564075 0.312926 0.476973
C33   C     C_R   0.905645 0.750127 0.951969 0.505103
C34   C     C_R   0.079679 0.794293 0.296864 0.009049
C35   C     C_R   0.914768 0.854560 0.027823 -0.156908
C36   C     C_3   0.165029 0.922408 0.028692 -0.282941
C37   C     C_3   0.305127 0.235588 0.027841 -0.249605
C38   C     C_3   0.621755 0.290748 0.161082 -0.228374
C39   C     C_3   0.620173 0.418546 0.602149 -0.168743
C40   C     C_3   0.065447 0.549419 0.319605 0.023560
C41   C     C_3   0.748663 0.725963 0.468357 -0.089019
C42   C     C_3   0.917697 0.702619 0.787621 -0.201462
C43   C     C_R   0.338385 0.514338 0.948869 -0.163206
C44   C     C_R   0.956423 0.180725 0.778849 0.509870
C45   C     C_R   0.204992 0.494723 0.690390 -0.139686
C46   C     C_R   0.038237 0.260334 0.099707 -0.107203
C47   C     C_R   0.944195 0.175748 0.002090 -0.096999
Cl1   Cl    Cl    0.864702 0.078021 0.805632 -0.695190
Cl2   Cl    Cl    0.867959 0.185322 0.580347 -0.680034
Cl3   Cl    Cl    0.204705 0.990410 0.607134 -0.579880
Cl4   Cl    Cl    0.245758 0.775426 0.384036 -0.608017
H1    H     H_    0.173247 0.469441 0.630262 0.104062
H2    H     H_    0.484087 0.353128 0.989272 0.143505
H3    H     H_    0.568250 0.478826 0.846045 0.118208
H4    H     H_    0.792853 0.971327 0.039690 0.171147
H5    H     H_    0.848602 0.029618 0.229651 0.188022
H6    H     H_    0.780232 0.541174 0.826421 0.137295
H7    H     H_    0.636423 0.353001 0.007913 0.143280
H8    H     H_    0.154827 0.852710 0.172877 0.189944
H9    H     H_    0.397143 0.555738 0.902355 0.128712
H10   H     H_    0.160019 0.944841 0.968627 0.156015
H11   H     H_    0.220116 0.839931 0.987131 0.135043
H12   H     H_    0.062943 0.283892 0.163998 0.152924
H13   H     H_    0.207395 0.990553 0.072408 0.169942
H14   H     H_    0.382392 0.227069 0.038377 0.162510
H15   H     H_    0.328229 0.207215 0.941077 0.145930
H16   H     H_    0.247866 0.173958 0.052151 0.158644
H17   H     H_    0.637972 0.276648 0.220518 0.144524
H18   H     H_    0.697805 0.255069 0.081064 0.143125
H19   H     H_    0.548403 0.242376 0.151657 0.178045
H20   H     H_    0.644978 0.507925 0.630675 0.113428
H21   H     H_    0.688701 0.360403 0.522969 0.164311
H22   H     H_    0.612452 0.386462 0.660225 0.188733
H23   H     H_    0.884671 0.121406 0.976570 0.163339
H24   H     H_    0.061216 0.524067 0.380943 0.150190
H25   H     H_    0.158140 0.548569 0.267902 0.151644
H26   H     H_    0.022718 0.485616 0.273414 0.108513
H27   H     H_    0.657127 0.724855 0.521039 0.124455
H28   H     H_    0.755648 0.775618 0.423113 0.102273
H29   H     H_    0.790811 0.772615 0.522148 0.193016
H30   H     H_    0.967839 0.618161 0.750212 0.114609
H31   H     H_    0.977038 0.769644 0.778146 0.170162
H32   H     H_    0.866661 0.693404 0.743075 0.182885
H33   H     H_    0.367681 0.632517 0.810906 0.081477
H34   H     H_    0.086652 0.305651 0.619426 0.138247
H35   H     H_    0.944022 0.979687 0.390188 0.199789
H36   H     H_    0.672790 0.429866 0.419308 0.148132
H37   H     H_    0.296048 0.651114 0.580649 0.179339
H38   H     H_    0.455519 0.654627 0.418344 0.184420
N1    N     N_R   0.037310 0.720000 0.995790 -0.135306
N2    N     N_R   0.824890 0.517960 0.936420 -0.057277
N3    N     N_R   0.003210 0.648190 0.211380 -0.128154
N4    N     N_R   0.774330 0.457010 0.995840 -0.067790
N5    N     N_R   0.053760 0.709140 0.151960 -0.081035
N6    N     N_R   0.853860 0.498840 0.211410 -0.133033
N7    N     N_R   0.974240 0.667310 0.936390 -0.140981
N8    N     N_R   0.225670 0.542990 0.004160 -0.075166
N9    N     N_R   0.946240 0.290860 0.848040 -0.097611
N10   N     N_R   0.146140 0.501160 0.788590 -0.043569
N11   N     N_R   0.025760 0.332690 0.063610 -0.054660
N12   N     N_R   0.962690 0.280000 0.004210 -0.053484
N13   N     N_R   0.209210 0.553840 0.847990 -0.043534
N14   N     N_R   0.175110 0.482040 0.063580 -0.116429
N15   N     N_R   0.996790 0.351810 0.788620 -0.072352
N16   N     N_R   0.790790 0.446160 0.152010 -0.144354
Ni1   Ni    Ni4+2 0.130310 0.630310 0.999970 0.187102
Ni2   Ni    Ni4+2 0.869690 0.369690 0.000030 0.219985
Ni3   Ni    Ni4+2 0.985640 0.509470 0.863740 0.207592
Ni4   Ni    Ni4+2 0.014360 0.490530 0.136260 0.209874
O1    O     O_3   0.054223 0.918426 0.104075 -0.620491
O2    O     O_3   0.248310 0.348387 0.097576 -0.657666
O3    O     O_3   0.592040 0.408136 0.197432 -0.609397
O4    O     O_3   0.513278 0.413768 0.597734 -0.616201
O5    O     O_3   0.007459 0.659904 0.373144 -0.598203
O6    O     O_3   0.805005 0.613350 0.399311 -0.598341
O7    O     O_3   0.841160 0.735162 0.896890 -0.620152

loop_
_geom_bond_atom_site_label_1
_geom_bond_atom_site_label_2
_ccdc_geom_bond_type
N12   Ni2   S    
C38   H19   S    
C1    N1    A    
C47   N12   A    
C27   C29   D    
C2    H33   S    
C19   C20   A    
C42   H31   S    
C3    C6    A    
C41   H29   S    
N10   Ni3   S    
N16   Ni2   S    
C8    C20   S    
C18   C24   A    
C25   H2    S    
C30   N4    A    
C27   H4    S    
N3    Ni4   S    
C6    C25   S    
C19   O4    S    
C10   C17   A    
C30   H7    S    
C18   C19   A    
C23   C26   S    
C31   H8    S    
C8    C45   A    
N6    N16   A    
C13   C14   A    
C44   N9    A    
C40   O5    S    
C3    O2    S    
C39   O4    S    
C37   H14   S    
C39   H21   S    
C15   Cl4   S    
C4    C12   A    
C5    H34   S    
C4    O3    S    
C21   H37   S    
C28   C34   A    
N11   Ni4   S    
C21   C22   A    
C12   C32   A    
C42   H30   S    
C41   O6    S    
C36   H11   S    
C26   H3    S    
C37   O2    S    
C23   C30   A    
N1    Ni1   S    
C45   N10   A    
C41   H27   S    
C5    C7    A    
C45   H1    S    
C27   C35   S    
C25   C26   D    
N9    Ni2   S    
C40   H25   S    
C11   Cl2   S    
C1    O1    S    
N2    N4    A    
C7    C13   S    
C37   H15   S    
N10   N13   A    
N3    N5    A    
C31   C34   A    
C28   N3    A    
C7    C44   A    
N8    N14   A    
C28   O5    S    
C43   H9    S    
N8    Ni1   S    
C42   O7    S    
C38   H17   S    
C9    C47   A    
C16   C23   A    
C6    C43   A    
C36   O1    S    
C22   C24   A    
C17   C34   S    
C38   O3    S    
C36   H10   S    
C33   N7    A    
N15   Ni3   S    
C1    C35   A    
C3    N14   A    
C15   C17   A    
C46   N11   A    
N5    Ni1   S    
C33   O7    S    
C39   H20   S    
C14   C15   A    
N2    Ni3   S    
C2    C8    A    
C42   H32   S    
C43   N8    A    
C47   H23   S    
C41   H28   S    
N1    N7    A    
C29   H5    S    
C31   N5    A    
C4    N16   A    
C12   C24   S    
C18   H36   S    
C40   H24   S    
C46   H12   S    
N14   Ni4   S    
N4    Ni2   S    
C38   H18   S    
C11   C13   A    
C10   H35   S    
C14   Cl3   S    
N9    N15   A    
C37   H16   S    
N11   N12   A    
C33   C35   A    
C22   H38   S    
N13   Ni1   S    
C16   H6    S    
C39   H22   S    
C32   O6    S    
N7    Ni3   S    
C5    N15   A    
C10   C11   A    
C9    C46   A    
C32   N6    A    
C20   C21   A    
C16   N2    A    
C2    N13   A    
C40   H26   S    
N6    Ni4   S    
C36   H13   S    
C44   Cl1   S    
