data_mof_unit_36634.cif
_audit_creation_date              2012-12-10T17:35:04-0500
_audit_creation_method            fapswitch 2.2
_symmetry_space_group_name_H-M    P1
_symmetry_Int_Tables_number       1
_space_group_crystal_system       triclinic
_cell_length_a                    12.09123
_cell_length_b                    12.83449
_cell_length_c                    15.709806
_cell_angle_alpha                 90.85576
_cell_angle_beta                  87.406897
_cell_angle_gamma                 94.935116
_cell_volume                      2426.24818343

loop_
_atom_site_label
_atom_site_type_symbol
_atom_type_description
_atom_site_fract_x
_atom_site_fract_y
_atom_site_fract_z
_atom_type_partial_charge
C1    C     C_R   0.523027 0.700152 0.493664 0.971416
C2    C     C_R   0.539215 0.812272 0.485170 -0.186510
C3    C     C_R   0.635135 0.972984 0.532679 -0.192289
C4    C     C_R   0.501069 0.499820 0.661438 0.895130
C5    C     C_R   0.630847 0.865851 0.522286 -0.250375
C6    C     C_R   0.456452 0.867024 0.449676 0.405759
C7    C     C_R   0.453062 0.972826 0.470954 -0.016030
C8    C     C_R   0.545012 0.025913 0.510170 0.127384
C9    C     C_R   0.547461 0.132139 0.524312 -0.319329
C10   C     C_R   0.361048 0.134035 0.471602 0.453023
C11   C     C_R   0.359688 0.026531 0.455756 -0.246449
C12   C     C_3   0.411242 0.566303 0.052013 -0.496893
C13   C     C_R   0.954685 0.456397 0.391655 0.391240
C14   C     C_R   0.837629 0.451344 0.407612 -0.220743
C15   C     C_R   0.861393 0.514844 0.549644 0.512117
C16   C     C_R   0.476457 0.299420 0.501718 0.893493
C17   C     C_R   0.977205 0.505495 0.539762 -0.100053
C18   C     C_R   0.024866 0.487047 0.458397 -0.080124
C19   C     C_R   0.142567 0.496469 0.447506 0.094962
C20   C     C_R   0.161733 0.526118 0.595373 -0.007207
C21   C     C_R   0.047438 0.515638 0.609082 -0.185264
C22   C     C_R   0.498571 0.497571 0.338652 0.951416
C23   C     C_3   0.497592 0.494524 0.083065 0.193706
C24   C     C_3   0.411817 0.562910 0.953618 -0.522315
C25   C     C_3   0.618238 0.542205 0.949637 0.365538
C26   C     C_3   0.613439 0.540554 0.048609 -0.487496
C27   C     C_1   0.495816 0.495511 0.249877 -0.141175
C28   C     C_3   0.504362 0.495626 0.917202 0.231026
C29   C     C_3   0.621500 0.278745 0.062979 0.133622
C30   C     C_3   0.688940 0.262689 0.140377 -0.854282
C31   C     C_3   0.171407 0.145995 0.486737 0.108443
C32   C     C_3   0.089366 0.229316 0.493629 -0.810121
C33   C     C_3   0.952227 0.346889 0.272726 0.080086
C34   C     C_3   0.466710 0.381967 0.047201 0.372360
C35   C     C_3   0.033584 0.305720 0.206408 -0.796208
C36   C     C_3   0.807771 0.545044 0.914361 0.141813
C37   C     C_3   0.901346 0.474467 0.897339 -0.770243
C38   C     C_3   0.479220 0.381270 0.948183 -0.487195
C39   C     C_1   0.495091 0.494652 0.174568 -0.011927
C40   C     C_1   0.505269 0.497518 0.825606 -0.023729
C41   C     C_1   0.503777 0.498809 0.750285 -0.136637
C42   C     C_R   0.459352 0.186873 0.500592 -0.137077
H1    H     H_    0.431205 0.648227 0.074388 0.214723
H2    H     H_    0.213375 0.535716 0.649606 0.146170
H3    H     H_    0.015586 0.512625 0.674446 0.199363
H4    H     H_    0.782766 0.429687 0.356822 0.167070
H5    H     H_    0.630446 0.625335 0.928186 0.055324
H6    H     H_    0.629517 0.622268 0.072706 0.154936
H7    H     H_    0.680608 0.497755 0.073787 0.188871
H8    H     H_    0.400050 0.346950 0.921708 0.148089
H9    H     H_    0.544042 0.331865 0.922421 0.198935
H10   H     H_    0.375737 0.366278 0.061539 0.118291
H11   H     H_    0.667201 0.340020 0.023577 0.178653
H12   H     H_    0.329202 0.529503 0.932840 0.199730
H13   H     H_    0.616049 0.205301 0.024491 0.158643
H14   H     H_    0.649490 0.196245 0.178562 0.276565
H15   H     H_    0.774548 0.245491 0.119593 0.206213
H16   H     H_    0.693122 0.334619 0.180721 0.244489
H17   H     H_    0.180567 0.115778 0.552087 0.130398
H18   H     H_    0.135940 0.081759 0.445317 0.161063
H19   H     H_    0.078559 0.261759 0.429720 0.259378
H20   H     H_    0.007579 0.194831 0.519530 0.202140
H21   H     H_    0.120547 0.293189 0.537015 0.255404
H22   H     H_    0.384022 0.690385 0.272025 0.377202
H23   H     H_    0.326500 0.540734 0.078635 0.191215
H24   H     H_    0.877509 0.366332 0.239747 0.150834
H25   H     H_    0.928810 0.283433 0.319613 0.134859
H26   H     H_    0.109464 0.285246 0.237430 0.266455
H27   H     H_    0.994509 0.234740 0.174817 0.208037
H28   H     H_    0.057250 0.366081 0.157429 0.253423
H29   H     H_    0.692878 0.689458 0.684646 0.353692
H30   H     H_    0.822336 0.586657 0.976109 0.112959
H31   H     H_    0.810532 0.603608 0.862656 0.198142
H32   H     H_    0.890182 0.431381 0.836113 0.282320
H33   H     H_    0.982424 0.522273 0.893837 0.201255
H34   H     H_    0.620257 0.173062 0.551375 0.178470
H35   H     H_    0.901772 0.417212 0.949635 0.230465
H36   H     H_    0.706349 0.013670 0.561869 0.153550
H37   H     H_    0.285579 0.985803 0.431701 0.205099
H38   H     H_    0.697553 0.824968 0.545700 0.229464
H39   H     H_    0.182252 0.481950 0.385885 0.175307
H40   H     H_    0.425380 0.644052 0.928852 0.192229
N1    N     N_R   0.207800 0.519340 0.515510 -0.103756
N2    N     N_R   0.792190 0.480660 0.484490 -0.166416
O1    O     O_R   0.421690 0.658830 0.504140 -0.567996
O2    O     O_3   0.273354 0.190193 0.449828 -0.589375
O3    O     O_2   0.262249 0.760981 0.412628 -0.293967
O4    O     O_2   0.343598 0.886872 0.306490 -0.309547
O5    O     O_3   0.433651 0.713584 0.318395 -0.584622
O6    O     O_3   0.002704 0.437985 0.311309 -0.607815
O7    O     O_2   0.775419 0.505189 0.710064 -0.335423
O8    O     O_2   0.907756 0.655459 0.678147 -0.347010
O9    O     O_3   0.714419 0.662666 0.627294 -0.547533
O10   O     O_3   0.704873 0.483573 0.916065 -0.610301
O11   O     O_R   0.609320 0.646410 0.494190 -0.562211
O12   O     O_R   0.406150 0.506210 0.627840 -0.665342
O13   O     O_R   0.593770 0.493790 0.617880 -0.514778
O14   O     O_R   0.390680 0.353590 0.505810 -0.578355
O15   O     O_R   0.578310 0.341170 0.495860 -0.636451
O16   O     O_R   0.406230 0.506210 0.382120 -0.595076
O17   O     O_R   0.593850 0.493790 0.372160 -0.636621
O18   O     O_3   0.512988 0.300435 0.090903 -0.603245
S1    S     S_3+6 0.369019 0.807476 0.370677 0.012012
S2    S     S_3+6 0.814713 0.584269 0.643385 0.007340
Zn1   Zn    Zn3+2 0.374720 0.508290 0.506640 1.010423
Zn2   Zn    Zn3+2 0.625280 0.491710 0.493360 1.023779

loop_
_geom_bond_atom_site_label_1
_geom_bond_atom_site_label_2
_ccdc_geom_bond_type
C37   H32   S    
C13   O6    S    
C10   C42   A    
C14   N2    A    
O7    S2    D    
O12   Zn1   S    
C7    C8    A    
C14   H4    S    
C25   C28   S    
C7    C11   A    
C12   C23   S    
O16   Zn1   S    
C34   O18   S    
O14   Zn1   S    
C13   C18   A    
C36   C37   S    
C32   H19   S    
C18   C19   A    
C12   H1    S    
O1    Zn1   S    
C4    C41   S    
C28   C40   S    
C24   H12   S    
C30   H15   S    
C1    C2    S    
C23   C26   S    
C31   H17   S    
C24   H40   S    
C4    O12   A    
C35   H28   S    
C27   C39   T    
C8    C9    A    
N2    Zn2   S    
C9    H34   S    
C15   S2    S    
C25   H5    S    
C26   H6    S    
C37   H33   S    
C25   O10   S    
C31   O2    S    
C13   C14   A    
O5    S1    S    
C2    C6    A    
H22   O5    S    
C19   N1    A    
O9    S2    S    
C20   H2    S    
C33   H24   S    
C21   H3    S    
C1    O1    A    
C22   O16   A    
C38   H8    S    
C3    C8    A    
C10   C11   A    
C26   H7    S    
C38   H9    S    
C29   H13   S    
C25   C26   S    
C30   H14   S    
C17   C21   A    
N1    Zn1   S    
C31   H18   S    
C29   C30   S    
O11   Zn2   S    
C31   C32   S    
C28   C38   S    
C1    O11   A    
C23   C34   S    
C17   C18   A    
C9    C42   A    
C6    S1    S    
C5    H38   S    
C22   O17   A    
C15   N2    A    
C11   H37   S    
O3    S1    D    
O13   Zn2   S    
C40   C41   T    
C22   C27   S    
C2    C5    A    
C16   C42   S    
O4    S1    D    
C33   H25   S    
O17   Zn2   S    
C15   C17   A    
O15   Zn2   S    
C37   H35   S    
C10   O2    S    
C34   C38   S    
C24   C28   S    
C32   H21   S    
C3    C5    A    
C16   O15   A    
C6    C7    A    
H29   O9    S    
C12   H23   S    
C12   C24   S    
C34   H10   S    
C32   H20   S    
C19   H39   S    
C33   O6    S    
C16   O14   A    
C29   H11   S    
C35   H26   S    
C23   C39   S    
C30   H16   S    
C33   C35   S    
C29   O18   S    
C36   H31   S    
O8    S2    D    
C36   O10   S    
C20   C21   A    
C35   H27   S    
C20   N1    A    
C4    O13   A    
C3    H36   S    
C36   H30   S    
