data_mof_unit_67358.cif
_audit_creation_date              2012-12-11T19:24:47-0500
_audit_creation_method            fapswitch 2.2
_symmetry_space_group_name_H-M    P1
_symmetry_Int_Tables_number       1
_space_group_crystal_system       triclinic
_cell_length_a                    19.491105
_cell_length_b                    22.955472
_cell_length_c                    8.700511
_cell_angle_alpha                 90.062375
_cell_angle_beta                  103.996279
_cell_angle_gamma                 89.940964
_cell_volume                      3777.27152867

loop_
_atom_site_label
_atom_site_type_symbol
_atom_type_description
_atom_site_fract_x
_atom_site_fract_y
_atom_site_fract_z
_atom_type_partial_charge
Ba1   Ba    Ba6+2 0.999900 0.457470 0.844900 1.892765
Ba2   Ba    Ba6+2 0.999900 0.542530 0.344900 1.927209
Ba3   Ba    Ba6+2 0.499900 0.957470 0.844900 1.934658
Ba4   Ba    Ba6+2 0.499900 0.042530 0.344900 1.911579
Br1   Br    Br    0.385008 0.524880 0.341263 -0.334294
Br2   Br    Br    0.934251 0.879373 0.182239 -0.371105
Br3   Br    Br    0.474131 0.613248 0.619149 -0.351784
Br4   Br    Br    0.457022 0.379918 0.056774 -0.412090
Br5   Br    Br    0.187771 0.419708 0.181058 -0.580324
Br6   Br    Br    0.229384 0.586708 0.683460 -0.520000
Br7   Br    Br    0.734753 0.913264 0.188476 -0.478994
Br8   Br    Br    0.690493 0.081272 0.681175 -0.588089
Br9   Br    Br    0.383655 0.497256 0.797471 -0.315220
Br10  Br    Br    0.883319 0.012037 0.309768 -0.298486
Br11  Br    Br    0.885372 0.972333 0.868180 -0.357594
Br12  Br    Br    0.734812 0.583988 0.815932 -0.628254
Br13  Br    Br    0.764878 0.408507 0.475215 -0.691238
Br14  Br    Br    0.231822 0.084219 0.826487 -0.597542
Br15  Br    Br    0.264783 0.907771 0.473294 -0.695758
Br16  Br    Br    0.973501 0.115289 0.566901 -0.390932
C1    C     C_3   0.046693 0.173042 0.639894 0.922991
C2    C     C_R   0.790311 0.679317 0.534505 -0.052027
C3    C     C_R   0.290451 0.820004 0.037914 -0.048369
C4    C     C_R   0.287557 0.177656 0.537513 -0.035600
C5    C     C_R   0.750556 0.323352 0.879227 -0.022395
C6    C     C_R   0.750673 0.676238 0.376991 0.011005
C7    C     C_R   0.255339 0.819981 0.877175 -0.024188
C8    C     C_R   0.246991 0.173653 0.381019 -0.006312
C9    C     C_R   0.208951 0.775711 0.809862 -0.022902
C10   C     C_R   0.197700 0.216293 0.315275 0.005451
C11   C     C_R   0.700325 0.281458 0.814293 0.015378
C12   C     C_3   0.018085 0.836856 0.167440 0.876027
C13   C     C_R   0.703156 0.720012 0.309974 0.005290
C14   C     C_R   0.839127 0.365344 0.105529 -0.005634
C15   C     C_R   0.842021 0.635875 0.602286 0.010060
C16   C     C_R   0.340023 0.864794 0.105974 0.024398
C17   C     C_R   0.340120 0.134826 0.604378 -0.013498
C18   C     C_R   0.875880 0.359563 0.265788 0.205252
C19   C     C_R   0.879037 0.642275 0.763006 0.219016
C20   C     C_R   0.376866 0.858935 0.266513 0.201170
C21   C     C_R   0.376647 0.140919 0.765450 0.215379
C22   C     C_R   0.157504 0.638870 0.094177 0.057132
C23   C     C_3   0.547196 0.671917 0.653837 0.919407
C24   C     C_R   0.157907 0.361835 0.589679 0.027437
C25   C     C_R   0.658039 0.138187 0.090880 0.002464
C26   C     C_R   0.657388 0.861198 0.591178 0.063688
C27   C     C_R   0.213645 0.679682 0.158461 -0.104291
C28   C     C_R   0.212209 0.319609 0.655843 -0.069965
C29   C     C_R   0.713672 0.179463 0.156025 -0.120451
C30   C     C_R   0.712604 0.819535 0.654915 -0.093208
C31   C     C_R   0.226114 0.728014 0.064800 -0.035715
C32   C     C_R   0.222400 0.269564 0.564200 0.033558
C33   C     C_R   0.723737 0.229457 0.064610 -0.001373
C34   C     C_3   0.536606 0.328450 0.144665 0.864866
C35   C     C_R   0.724544 0.770759 0.561662 0.039044
C36   C     C_R   0.259590 0.673988 0.311113 0.466030
C37   C     C_R   0.256756 0.324487 0.810887 0.452777
C38   C     C_R   0.759076 0.174138 0.310291 0.455873
C39   C     C_R   0.757853 0.824895 0.807637 0.439993
C40   C     C_3   0.999331 0.217048 0.143861 0.657558
C41   C     C_3   0.011029 0.779168 0.680015 0.607094
C42   C     C_3   0.509148 0.720974 0.149861 0.709915
C43   C     C_3   0.499725 0.282279 0.651476 0.661218
C44   C     C_R   0.803376 0.220035 0.377223 -0.142935
C45   C     C_R   0.190613 0.730863 0.902186 -0.025391
C46   C     C_R   0.801562 0.778959 0.876078 -0.155950
C47   C     C_R   0.302897 0.720195 0.379794 -0.129990
C48   C     C_R   0.300186 0.278216 0.878154 -0.144642
C49   C     C_R   0.813997 0.268699 0.290300 -0.127727
C50   C     C_R   0.814593 0.731531 0.787533 -0.135407
C51   C     C_R   0.313938 0.768719 0.292547 -0.127201
C52   C     C_R   0.312623 0.230505 0.789661 -0.137363
C53   C     C_R   0.775427 0.273266 0.131029 0.097445
C54   C     C_R   0.776980 0.727361 0.627438 0.092623
C55   C     C_R   0.276877 0.772403 0.131869 0.061795
C56   C     C_R   0.182920 0.263688 0.404934 -0.012116
C57   C     C_R   0.274492 0.225994 0.630172 0.110476
C58   C     C_R   0.864241 0.311579 0.358938 -0.016817
C59   C     C_R   0.866120 0.689576 0.855373 -0.013388
C60   C     C_R   0.364826 0.811160 0.360590 -0.038726
C61   C     C_R   0.363747 0.188245 0.857528 0.000180
C62   C     C_R   0.117657 0.647465 0.936489 0.138989
C63   C     C_R   0.115737 0.351443 0.434005 0.181526
C64   C     C_R   0.615453 0.148853 0.935783 0.139500
C65   C     C_R   0.617700 0.852888 0.433194 0.184017
C66   C     C_3   0.936793 0.179616 0.050502 0.975503
C67   C     C_R   0.684196 0.235206 0.905194 -0.018567
C68   C     C_3   0.955008 0.826427 0.613360 1.058566
C69   C     C_3   0.444499 0.685513 0.061434 1.023172
C70   C     C_3   0.435499 0.318846 0.561500 0.975981
C71   C     C_3   0.241022 0.479275 0.304535 0.733961
C72   C     C_3   0.240248 0.519211 0.819083 0.755397
C73   C     C_3   0.741339 0.981130 0.321452 0.756566
C74   C     C_3   0.741181 0.020567 0.805903 0.731533
C75   C     C_3   0.321346 0.461808 0.351955 0.546423
C76   C     C_3   0.316829 0.518617 0.921235 0.605118
C77   C     C_3   0.817192 0.984267 0.427765 0.616255
C78   C     C_R   0.687207 0.766621 0.400715 0.009777
C79   C     C_3   0.821661 0.037228 0.858158 0.549698
C80   C     C_3   0.748720 0.500385 0.817847 0.479729
C81   C     C_3   0.767522 0.480036 0.359601 0.357023
C82   C     C_3   0.249801 0.001325 0.819072 0.532814
C83   C     C_3   0.269472 0.978807 0.357349 0.457173
C84   C     C_3   0.675181 0.470959 0.767753 0.696947
C85   C     C_3   0.694949 0.485804 0.241806 0.697301
C86   C     C_3   0.178075 0.969835 0.760328 0.709455
C87   C     C_3   0.198586 0.984852 0.235347 0.685714
C88   C     C_3   0.015712 0.234280 0.596623 0.659840
C89   C     C_R   0.788350 0.321397 0.037999 -0.068505
C90   C     C_3   0.997472 0.774423 0.106167 0.738071
C91   C     C_3   0.513752 0.731356 0.596914 0.662925
C92   C     C_3   0.512964 0.263926 0.121158 0.756306
C93   C     C_R   0.136567 0.690091 0.836588 -0.020558
C94   C     C_R   0.129434 0.304709 0.339089 0.024875
C95   C     C_R   0.630010 0.194777 0.839699 -0.003679
C96   C     C_R   0.634567 0.808494 0.334835 -0.023887
H1    H     H_    0.336298 0.447481 0.477903 0.096464
H2    H     H_    0.652354 0.476402 0.303106 0.151613
H3    H     H_    0.186013 0.922735 0.783450 0.003385
H4    H     H_    0.154636 0.982195 0.296995 0.076797
H5    H     H_    0.004103 0.238959 0.466647 -0.015623
H6    H     H_    0.978608 0.776248 0.975754 -0.096130
H7    H     H_    0.497175 0.730225 0.466313 -0.027882
H8    H     H_    0.512181 0.251419 0.997017 -0.112995
H9    H     H_    0.759108 0.357078 0.800975 0.117299
H10   H     H_    0.755482 0.640137 0.301754 0.131038
H11   H     H_    0.263562 0.853594 0.798706 0.124594
H12   H     H_    0.321838 0.485616 0.016133 0.117952
H13   H     H_    0.252215 0.137496 0.305931 0.148677
H14   H     H_    0.185261 0.778973 0.684421 0.115441
H15   H     H_    0.170259 0.210564 0.192678 0.097310
H16   H     H_    0.673701 0.286651 0.690967 0.092749
H17   H     H_    0.677443 0.715450 0.185925 0.100995
H18   H     H_    0.832157 0.215110 0.498682 0.126432
H19   H     H_    0.829659 0.783945 0.997965 0.117218
H20   H     H_    0.331841 0.714896 0.501162 0.118256
H21   H     H_    0.327519 0.282498 0.000662 0.126617
H22   H     H_    0.976197 0.252026 0.204474 -0.145087
H23   H     H_    0.818702 0.015876 0.524310 0.105198
H24   H     H_    0.983457 0.743054 0.725894 -0.129382
H25   H     H_    0.488311 0.756499 0.213410 -0.153267
H26   H     H_    0.478690 0.247310 0.716094 -0.153958
H27   H     H_    0.062186 0.282100 0.774298 0.345741
H28   H     H_    0.090807 0.751897 0.090850 0.278279
H29   H     H_    0.568071 0.783317 0.756222 0.334539
H30   H     H_    0.608143 0.236401 0.209173 0.258533
H31   H     H_    0.326076 0.379601 0.303093 0.337421
H32   H     H_    0.307762 0.582214 0.063001 0.320701
H33   H     H_    0.813686 0.919386 0.569494 0.317042
H34   H     H_    0.833981 0.055060 0.980835 0.097454
H35   H     H_    0.830200 0.117643 0.795906 0.341764
H36   H     H_    0.637297 0.513833 0.572944 0.342814
H37   H     H_    0.723562 0.552538 0.135044 0.351556
H38   H     H_    0.135450 0.018169 0.578388 0.340044
H39   H     H_    0.145296 0.047487 0.112534 0.345561
H40   H     H_    0.582924 0.473723 0.814790 0.355439
H41   H     H_    0.697208 0.406738 0.161985 0.291506
H42   H     H_    0.086755 0.963812 0.810832 0.343430
H43   H     H_    0.179534 0.903923 0.171066 0.298556
H44   H     H_    0.114103 0.121762 0.576258 0.344385
H45   H     H_    0.781033 0.490851 0.733347 0.054180
H46   H     H_    0.054660 0.907545 0.094801 0.352745
H47   H     H_    0.608899 0.616001 0.586877 0.353442
H48   H     H_    0.587134 0.377931 0.027324 0.366030
H49   H     H_    0.117859 0.186799 0.837163 0.332387
H50   H     H_    0.112434 0.826388 0.306208 0.316537
H51   H     H_    0.626585 0.691871 0.830680 0.327085
H52   H     H_    0.609890 0.327804 0.343432 0.327208
H53   H     H_    0.895981 0.170371 0.232006 0.290401
H54   H     H_    0.903708 0.825761 0.778717 0.273994
H55   H     H_    0.404755 0.686333 0.246608 0.258720
H56   H     H_    0.810269 0.478761 0.295471 0.016792
H57   H     H_    0.395628 0.324934 0.744601 0.289507
H58   H     H_    0.311052 0.621737 0.475107 0.366154
H59   H     H_    0.298544 0.372733 0.994790 0.361285
H60   H     H_    0.802600 0.124825 0.490541 0.351571
H61   H     H_    0.807457 0.876946 0.972134 0.373409
H62   H     H_    0.904923 0.418438 0.423847 0.311703
H63   H     H_    0.891379 0.565281 0.845391 0.292635
H64   H     H_    0.406774 0.918211 0.422508 0.307035
H65   H     H_    0.389286 0.063296 0.843395 0.288847
H66   H     H_    0.078946 0.585718 0.796217 0.316418
H67   H     H_    0.284297 0.994783 0.737174 0.008497
H68   H     H_    0.082226 0.424944 0.346163 0.316412
H69   H     H_    0.581285 0.076356 0.842610 0.317720
H70   H     H_    0.582017 0.915156 0.292288 0.316487
H71   H     H_    0.067296 0.153720 0.200623 0.313148
H72   H     H_    0.087238 0.834034 0.761828 0.306236
H73   H     H_    0.576166 0.656771 0.202191 0.331978
H74   H     H_    0.568582 0.345075 0.702087 0.308645
H75   H     H_    0.900998 0.239221 0.893062 0.333869
H76   H     H_    0.911600 0.783563 0.421057 0.338887
H77   H     H_    0.354464 0.699384 0.912332 0.348555
H78   H     H_    0.313498 0.977310 0.297146 0.021423
H79   H     H_    0.401199 0.259523 0.401313 0.332603
H80   H     H_    0.984442 0.109978 0.997994 0.348124
H81   H     H_    0.010229 0.897476 0.607814 0.338254
H82   H     H_    0.484799 0.609907 0.027002 0.368186
H83   H     H_    0.480240 0.390345 0.512349 0.352956
H84   H     H_    0.219383 0.444561 0.477368 0.217074
H85   H     H_    0.195124 0.562576 0.942472 0.205961
H86   H     H_    0.698930 0.937046 0.447339 0.203724
H87   H     H_    0.716705 0.055461 0.975292 0.220571
H88   H     H_    0.680327 0.424755 0.803993 0.019472
O1    O     O_2   0.860260 0.414960 0.826400 -0.481686
O2    O     O_3   0.042704 0.758612 0.560391 -0.576245
O3    O     O_3   0.455776 0.356318 0.452864 -0.605584
O4    O     O_3   0.216896 0.485049 0.439255 -0.696011
O5    O     O_3   0.193193 0.521708 0.913724 -0.734271
O6    O     O_3   0.692836 0.977254 0.412132 -0.740217
O7    O     O_3   0.715157 0.014931 0.938030 -0.694658
O8    O     O_3   0.545904 0.743427 0.042224 -0.585912
O9    O     O_3   0.535758 0.258934 0.543218 -0.583306
O10   O     O_3   0.081330 0.529680 0.090830 -0.404264
O11   O     O_3   0.081330 0.470320 0.590830 -0.452317
O12   O     O_3   0.581330 0.029680 0.090830 -0.446126
O13   O     O_3   0.581330 0.970320 0.590830 -0.407620
O14   O     O_3   0.918600 0.470180 0.098890 -0.402120
O15   O     O_3   0.918600 0.529820 0.598890 -0.447788
O16   O     O_3   0.418600 0.970180 0.098890 -0.410189
O17   O     O_2   0.860260 0.585040 0.326400 -0.475759
O18   O     O_3   0.418600 0.029820 0.598890 -0.455369
O19   O     O_3   0.975750 0.362410 0.628650 -0.414257
O20   O     O_3   0.975750 0.637590 0.128650 -0.365289
O21   O     O_3   0.475750 0.862410 0.628650 -0.419008
O22   O     O_3   0.475750 0.137590 0.128650 -0.374915
O23   O     O_2   0.859922 0.318234 0.678835 -0.448087
O24   O     O_2   0.851276 0.671726 0.159069 -0.467921
O25   O     O_2   0.360561 0.818710 0.680075 -0.418416
O26   O     O_2   0.354590 0.176947 0.170384 -0.468163
O27   O     O_3   0.783334 0.485653 0.974363 -0.641923
O28   O     O_2   0.360260 0.914960 0.826400 -0.490362
O29   O     O_3   0.774437 0.525369 0.469353 -0.637257
O30   O     O_3   0.282726 0.984929 0.975143 -0.596689
O31   O     O_3   0.275019 0.024318 0.466560 -0.648912
O32   O     O_3   0.952763 0.241903 0.647350 -0.631408
O33   O     O_3   0.942617 0.753331 0.170146 -0.621234
O34   O     O_3   0.453837 0.742346 0.656643 -0.592054
O35   O     O_3   0.445230 0.257109 0.149097 -0.615401
O36   O     O_2   0.139400 0.414340 0.863230 -0.332725
O37   O     O_2   0.139400 0.585660 0.363230 -0.355412
O38   O     O_2   0.639400 0.914340 0.863230 -0.357733
O39   O     O_2   0.360260 0.085040 0.326400 -0.446791
O40   O     O_2   0.639400 0.085660 0.363230 -0.330156
O41   O     O_3   0.023740 0.362300 0.060930 -0.407577
O42   O     O_3   0.023740 0.637700 0.560930 -0.450296
O43   O     O_3   0.523740 0.862300 0.060930 -0.442406
O44   O     O_3   0.523740 0.137700 0.560930 -0.407547
O45   O     O_2   0.138116 0.310451 0.022583 -0.457362
O46   O     O_2   0.137627 0.687100 0.509734 -0.416619
O47   O     O_2   0.641722 0.817490 0.014921 -0.457041
O48   O     O_2   0.636742 0.190026 0.519264 -0.410948
O49   O     O_3   0.066532 0.275715 0.664847 -0.772379
O50   O     O_3   0.229667 0.468995 0.727868 -0.580044
O51   O     O_3   0.056310 0.737486 0.148713 -0.723446
O52   O     O_3   0.564851 0.774700 0.643209 -0.779826
O53   O     O_3   0.560787 0.228267 0.226212 -0.684238
O54   O     O_3   0.337522 0.416917 0.257367 -0.682107
O55   O     O_3   0.336751 0.573605 0.986778 -0.657708
O56   O     O_3   0.840984 0.929612 0.491073 -0.615920
O57   O     O_3   0.840903 0.078656 0.758014 -0.686646
O58   O     O_3   0.649247 0.472705 0.602700 -0.726720
O59   O     O_3   0.683597 0.542673 0.182102 -0.653300
O60   O     O_3   0.151920 0.977303 0.596517 -0.720276
O61   O     O_3   0.230257 0.530979 0.218054 -0.582382
O62   O     O_3   0.195927 0.039083 0.160332 -0.656680
O63   O     O_3   0.626526 0.497781 0.841144 -0.600241
O64   O     O_3   0.688880 0.446366 0.116502 -0.723999
O65   O     O_3   0.128194 0.990193 0.840331 -0.634674
O66   O     O_3   0.191058 0.940349 0.121795 -0.720682
O67   O     O_3   0.102454 0.163784 0.566263 -0.728090
O68   O     O_3   0.049852 0.866154 0.061070 -0.731919
O69   O     O_3   0.597219 0.657741 0.567546 -0.710389
O70   O     O_3   0.591646 0.337623 0.068738 -0.784302
O71   O     O_3   0.071313 0.166978 0.804787 -0.651402
O72   O     O_3   0.730366 0.969065 0.718168 -0.586075
O73   O     O_3   0.064318 0.835493 0.319057 -0.644612
O74   O     O_3   0.579683 0.672923 0.816685 -0.645451
O75   O     O_3   0.560442 0.341858 0.306429 -0.631816
O76   O     O_3   0.910308 0.144215 0.154731 -0.680864
O77   O     O_3   0.933396 0.853805 0.738285 -0.649214
O78   O     O_3   0.413686 0.656805 0.171041 -0.679688
O79   O     O_3   0.408265 0.352367 0.668359 -0.683052
O80   O     O_3   0.266970 0.621787 0.389470 -0.645369
O81   O     O_3   0.260970 0.375316 0.895892 -0.674410
O82   O     O_3   0.762546 0.123533 0.395792 -0.678283
O83   O     O_3   0.729414 0.030547 0.226952 -0.580758
O84   O     O_3   0.763842 0.876755 0.886614 -0.643614
O85   O     O_3   0.921363 0.403255 0.332565 -0.670525
O86   O     O_3   0.922602 0.598676 0.837738 -0.660181
O87   O     O_3   0.423316 0.902101 0.332357 -0.672119
O88   O     O_3   0.420180 0.097338 0.840479 -0.662234
O89   O     O_3   0.063372 0.609784 0.876099 -0.669708
O90   O     O_3   0.060785 0.388044 0.370029 -0.670479
O91   O     O_3   0.560122 0.112552 0.872641 -0.673998
O92   O     O_3   0.565073 0.891933 0.371612 -0.669185
O93   O     O_3   0.044548 0.182493 0.257680 -0.740196
O94   O     O_3   0.036970 0.240718 0.039417 -0.618426
O95   O     O_3   0.062535 0.802744 0.805666 -0.760938
O96   O     O_3   0.554114 0.685366 0.261207 -0.740747
O97   O     O_3   0.545697 0.317454 0.761849 -0.751887
O98   O     O_3   0.881967 0.215827 0.968827 -0.763521
O99   O     O_3   0.895587 0.801184 0.510263 -0.726207
O100  O     O_3   0.395059 0.723572 0.968434 -0.733909
O101  O     O_3   0.381786 0.281896 0.478592 -0.773962
O102  O     O_3   0.959158 0.144012 0.940323 -0.610800
O103  O     O_3   0.983904 0.868659 0.530627 -0.573280
O104  O     O_3   0.465055 0.644236 0.961809 -0.584387
P1    P     P_3+3 0.853370 0.434890 0.996520 1.027455
P2    P     P_3+3 0.086782 0.692651 0.620972 1.080424
P3    P     P_3+3 0.588114 0.808320 0.117715 1.033492
P4    P     P_3+3 0.582107 0.195922 0.621498 1.099927
P5    P     P_3+3 0.908744 0.688790 0.073300 1.080187
P6    P     P_3+3 0.912540 0.308247 0.574262 1.022078
P7    P     P_3+3 0.409495 0.189690 0.073307 1.072555
P8    P     P_3+3 0.413192 0.807766 0.576450 1.061885
P9    P     P_3+3 0.853370 0.565110 0.496520 1.025812
P10   P     P_3+3 0.353370 0.934890 0.996520 1.039298
P11   P     P_3+3 0.353370 0.065110 0.496520 1.034900
P12   P     P_3+3 0.146350 0.434230 0.693140 1.201078
P13   P     P_3+3 0.146350 0.565770 0.193140 1.228782
P14   P     P_3+3 0.646350 0.934230 0.693140 1.217405
P15   P     P_3+3 0.646350 0.065770 0.193140 1.213313
P16   P     P_3+3 0.082150 0.303849 0.121111 1.038808

loop_
_geom_bond_atom_site_label_1
_geom_bond_atom_site_label_2
_ccdc_geom_bond_type
Br2   C12   S    
O22   P7    S    
C88   O49   S    
H82   O104  S    
C71   O4    S    
C72   O5    S    
C90   O33   S    
O43   P3    S    
C85   O64   S    
O44   P4    S    
C30   C39   A    
C84   H88   S    
C92   H8    S    
C39   C46   A    
Ba3   P14   S    
C10   H15   S    
C80   C84   S    
C6    H10   S    
C69   O100  S    
H72   O95   S    
C50   C54   A    
C80   H45   S    
Ba4   O39   S    
C67   C95   A    
O26   P7    D    
C41   O2    S    
Br7   C73   S    
H84   O4    S    
H62   O85   S    
C63   C94   A    
C84   O58   S    
Br1   C75   S    
O8    P3    S    
Ba1   O36   S    
H28   O51   S    
C44   H18   S    
C11   C67   A    
O29   P9    S    
H54   O77   S    
C14   P1    S    
H79   O101  S    
C40   C66   S    
C18   C58   A    
C65   O92   S    
Ba2   O17   S    
H33   O56   S    
C10   C56   A    
C85   O59   S    
C86   O60   S    
C34   C92   S    
H49   O71   S    
O15   P9    S    
C26   P14   S    
Ba3   O18   S    
C85   H2    S    
H66   O89   S    
C32   C57   A    
C87   H4    S    
O18   P11   S    
O38   P14   D    
C50   C59   A    
C45   C93   A    
O20   P5    S    
C65   C96   A    
Ba1   O19   S    
H31   O54   S    
C47   H20   S    
C60   P8    S    
O41   P16   S    
Ba1   O41   S    
C46   C50   A    
C76   O55   S    
C29   C33   A    
C35   C78   A    
C43   H26   S    
C95   P4    S    
C4    C57   A    
C66   O102  S    
Br16  C1    S    
C79   O57   S    
C3    C16   A    
Ba1   O10   S    
Ba2   O14   S    
C42   O8    S    
C83   C87   S    
C71   O61   S    
C12   O73   S    
C24   C28   A    
C40   H22   S    
O11   P12   S    
C5    C11   A    
Ba4   O12   S    
C7    C9    A    
O14   P1    S    
C24   C63   A    
C28   C37   A    
C64   O91   S    
C75   H1    S    
O83   P15   S    
C69   O78   S    
C52   C57   A    
H42   O65   S    
O72   P14   S    
C72   C76   S    
C20   O87   S    
H59   O81   S    
C82   O30   S    
C66   O98   S    
H65   O88   S    
C83   H78   S    
C66   O76   S    
O25   P8    D    
O45   P16   D    
O35   P7    S    
C5    C89   A    
C40   O94   S    
H81   O103  S    
C87   O66   S    
O94   P16   S    
C35   C54   A    
H87   O7    S    
C23   C91   S    
H85   O5    S    
O42   P2    S    
C38   C44   A    
Br9   C76   S    
C69   O104  S    
O31   P11   S    
C37   O81   S    
Br12  C80   S    
O33   P5    S    
H74   O97   S    
C18   O85   S    
C6    C13   A    
H51   O74   S    
C28   C32   A    
C34   O70   S    
Ba2   P13   S    
Ba2   O20   S    
C4    C17   A    
C33   C67   A    
C44   C49   A    
C24   P12   S    
O50   P12   S    
C9    C45   A    
C2    C54   A    
C37   C48   A    
Ba3   Ba4   S    
C73   C77   S    
C38   O82   S    
H36   O58   S    
H41   O64   S    
C83   O31   S    
C70   O79   S    
C80   O27   S    
C4    C8    A    
C62   C93   A    
C32   C56   A    
C41   H24   S    
H57   O79   S    
H58   O80   S    
C16   P10   S    
C40   O93   S    
C17   C21   A    
H37   O59   S    
C1    C88   S    
H38   O60   S    
C71   C75   S    
C96   P3    S    
C86   O65   S    
H27   O49   S    
C73   O6    S    
O30   P10   S    
H71   O93   S    
Ba4   O40   S    
C77   O56   S    
C27   C36   A    
C72   O50   S    
C75   O54   S    
C88   O32   S    
C34   O75   S    
C41   O95   S    
C86   H3    S    
C84   O63   S    
C88   H5    S    
C70   O101  S    
H73   O96   S    
O34   P8    S    
C12   C90   S    
C58   P6    S    
C82   H67   S    
H48   O70   S    
H77   O100  S    
C74   O72   S    
C63   O90   S    
C42   C69   S    
C76   H12   S    
H63   O86   S    
C31   C45   A    
C5    H9    S    
C7    H11   S    
C13   C78   A    
Ba4   O16   S    
Ba4   P15   S    
C49   C53   A    
H69   O91   S    
Ba4   O22   S    
H55   O78   S    
H70   O92   S    
H50   O73   S    
C52   C61   A    
C26   C65   A    
Br6   C72   S    
Ba2   O11   S    
O12   P15   S    
Br8   C74   S    
C48   H21   S    
Ba3   O43   S    
C1    O71   S    
C79   H34   S    
C91   O34   S    
C91   H7    S    
H68   O90   S    
C73   O83   S    
C27   C31   A    
Ba3   O12   S    
O23   P6    D    
Ba3   O38   S    
C19   C59   A    
C15   C19   A    
O36   P12   D    
C25   C29   A    
C90   O51   S    
C21   C61   A    
C87   O62   S    
H53   O76   S    
O10   P13   S    
C81   O29   S    
C12   O68   S    
H32   O55   S    
C1    O67   S    
H75   O98   S    
H47   O69   S    
C21   O88   S    
C91   O52   S    
Ba1   P1    S    
H44   O67   S    
O37   P13   D    
C3    C55   A    
C62   O89   S    
O1    P1    D    
C53   C89   A    
C23   O69   S    
O17   P9    D    
C39   O84   S    
C93   P2    S    
C36   O80   S    
O24   P5    D    
Ba2   O42   S    
C90   H6    S    
O13   P14   S    
C17   P11   S    
O48   P4    D    
C47   C51   A    
O61   P13   S    
H39   O62   S    
H35   O57   S    
C46   H19   S    
C2    C6    A    
C59   P5    S    
H52   O75   S    
O21   P8    S    
C42   O96   S    
C22   C62   A    
C68   O77   S    
Br5   C71   S    
C15   P9    S    
H76   O99   S    
C2    C15   A    
C23   O74   S    
H46   O68   S    
C81   H56   S    
C31   C55   A    
Ba1   Ba2   S    
O9    P4    S    
Br14  C82   S    
Ba1   P12   S    
C8    H13   S    
Ba3   P10   S    
Br13  C81   S    
Ba4   O44   S    
O27   P1    S    
Br15  C83   S    
C61   P7    S    
Ba1   O11   S    
C56   C94   A    
C20   C60   A    
C3    C7    A    
H29   O52   S    
Ba1   O1    S    
Ba3   O21   S    
C48   C52   A    
H43   O66   S    
C74   O7    S    
C19   O86   S    
C49   C58   A    
C68   O99   S    
C94   P16   S    
H86   O6    S    
C51   C60   A    
O16   P10   S    
C81   C85   S    
H64   O87   S    
C16   C20   A    
Br4   C34   S    
C29   C38   A    
O19   P6    S    
C11   H16   S    
C41   C68   S    
C92   O53   S    
C78   C96   A    
C9    H14   S    
Ba3   O13   S    
C92   O35   S    
O28   P10   D    
H83   O3    S    
Ba1   O15   S    
C43   O9    S    
Ba4   P11   S    
O32   P6    S    
C43   O97   S    
C64   C95   A    
Br3   C23   S    
C25   C64   A    
C42   H25   S    
Br10  C77   S    
O47   P3    D    
C14   C18   A    
O40   P15   D    
C33   C53   A    
Br11  C79   S    
Ba3   O28   S    
C25   P15   S    
C22   P13   S    
H61   O84   S    
Ba2   O10   S    
C36   C47   A    
C26   C30   A    
C30   C35   A    
Ba2   P9    S    
O39   P11   D    
C8    C10   A    
C51   C55   A    
H40   O63   S    
C74   C79   S    
C43   C70   S    
H80   O102  S    
C77   H23   S    
C82   C86   S    
C22   C27   A    
Ba2   O37   S    
C70   O3    S    
C13   H17   S    
O46   P2    D    
C68   O103  S    
Ba4   O13   S    
C14   C89   A    
H30   O53   S    
H60   O82   S    
O2    P2    S    
