data_mof_unit_68069.cif
_audit_creation_date              2012-12-11T14:39:40-0500
_audit_creation_method            fapswitch 2.2
_symmetry_space_group_name_H-M    P1
_symmetry_Int_Tables_number       1
_space_group_crystal_system       triclinic
_cell_length_a                    7.257795
_cell_length_b                    14.421416
_cell_length_c                    16.123153
_cell_angle_alpha                 90.117437
_cell_angle_beta                  97.52183
_cell_angle_gamma                 90.134503
_cell_volume                      1673.0422281

loop_
_atom_site_label
_atom_site_type_symbol
_atom_type_description
_atom_site_fract_x
_atom_site_fract_y
_atom_site_fract_z
_atom_type_partial_charge
O1    O     O_R   0.525340 0.338340 0.164530 -0.560131
O2    O     O_R   0.474660 0.661660 0.835470 -0.560139
O3    O     O_R   0.974660 0.838340 0.835470 -0.558242
O4    O     O_R   0.025340 0.161660 0.164530 -0.558237
O5    O     O_R   0.253520 0.352000 0.336710 -0.561715
O6    O     O_R   0.746480 0.648000 0.663290 -0.561684
O7    O     O_R   0.246480 0.852000 0.663290 -0.533280
O8    O     O_R   0.753520 0.148000 0.336710 -0.533259
O9    O     O_R   0.083330 0.168380 0.337300 -0.543788
O10   O     O_R   0.916670 0.831620 0.662700 -0.543743
O11   O     O_R   0.416670 0.668380 0.662700 -0.510638
O12   O     O_R   0.583330 0.331620 0.337300 -0.510607
C1    C     C_R   0.432909 0.365326 0.366167 0.821071
C2    C     C_R   0.567092 0.634666 0.633840 0.821166
C3    C     C_R   0.068005 0.863688 0.632524 0.808735
C4    C     C_R   0.931994 0.136307 0.367473 0.808732
O13   O     O_R   0.195840 0.349670 0.165140 -0.521316
O14   O     O_R   0.804160 0.650330 0.834860 -0.521320
O15   O     O_R   0.304160 0.849670 0.834860 -0.522791
O16   O     O_R   0.695840 0.150330 0.165140 -0.522791
C5    C     C_R   0.357709 0.372871 0.138712 0.612318
C6    C     C_R   0.642291 0.627128 0.861287 0.612297
C7    C     C_R   0.142522 0.872932 0.861329 0.614061
C8    C     C_R   0.857477 0.127069 0.138671 0.614069
O17   O     O_3   0.387830 0.193120 0.250910 -0.388589
O18   O     O_3   0.612170 0.806880 0.749090 -0.388566
O19   O     O_3   0.112170 0.693120 0.749090 -0.391601
O20   O     O_3   0.887830 0.306880 0.250910 -0.391586
V1    V     V_3+5 0.113010 0.264540 0.250910 1.404917
V2    V     V_3+5 0.886990 0.735460 0.749090 1.404990
V3    V     V_3+5 0.386990 0.764540 0.749090 1.450107
V4    V     V_3+5 0.613010 0.235460 0.250910 1.450124
H1    H     H_    0.055800 0.845392 0.242167 0.126132
H2    H     H_    0.944153 0.154597 0.757827 0.126130
H3    H     H_    0.468672 0.337775 0.755396 0.124799
H4    H     H_    0.531165 0.662238 0.244601 0.124793
C9    C     C_R   0.924976 0.187484 0.547265 0.436647
C10   C     C_R   0.075015 0.812508 0.452731 0.436499
C11   C     C_R   0.527148 0.691615 0.454874 0.436201
C12   C     C_R   0.472899 0.308388 0.545137 0.436132
C13   C     C_R   0.915592 0.206174 0.632820 -0.211247
C14   C     C_R   0.084380 0.793817 0.367174 -0.211381
C15   C     C_R   0.534976 0.712970 0.369347 -0.240734
C16   C     C_R   0.465005 0.287036 0.630660 -0.240725
C17   C     C_R   0.951317 0.138343 0.692740 -0.210012
C18   C     C_R   0.048644 0.861647 0.307254 -0.209978
C19   C     C_R   0.524562 0.644247 0.309294 -0.196987
C20   C     C_R   0.475323 0.355763 0.690706 -0.196989
C21   C     C_R   0.993777 0.049568 0.669744 -0.162494
C22   C     C_R   0.006195 0.950423 0.330252 -0.162497
C23   C     C_R   0.501121 0.552968 0.331168 -0.167432
C24   C     C_R   0.498771 0.447040 0.668832 -0.167471
C25   C     C_R   0.997742 0.025036 0.584903 -0.017584
C26   C     C_R   0.002240 0.974956 0.415093 -0.017586
C27   C     C_R   0.495740 0.526913 0.415325 -0.034077
C28   C     C_R   0.504226 0.473090 0.584678 -0.034090
C29   C     C_R   0.960996 0.094243 0.521783 -0.038331
C30   C     C_R   0.038988 0.905748 0.478213 -0.038255
C31   C     C_R   0.517977 0.596083 0.478976 -0.006513
C32   C     C_R   0.482032 0.403918 0.521029 -0.006502
C33   C     C_R   0.034151 0.931879 0.563602 -0.163124
C34   C     C_R   0.965841 0.068113 0.436395 -0.163210
C35   C     C_R   0.471837 0.432476 0.435716 -0.157139
C36   C     C_R   0.528165 0.567522 0.564289 -0.157148
H5    H     H_    0.877788 0.273502 0.654469 0.123070
H6    H     H_    0.122186 0.726489 0.345526 0.123099
H7    H     H_    0.546854 0.782839 0.346672 0.112655
H8    H     H_    0.453173 0.217166 0.653340 0.112675
H9    H     H_    0.020244 0.000042 0.720032 0.096776
H10   H     H_    0.979726 0.999949 0.279965 0.096769
H11   H     H_    0.490456 0.502903 0.280785 0.095483
H12   H     H_    0.509388 0.497108 0.719212 0.095499
H13   H     H_    0.122444 0.079951 0.045662 0.172343
H14   H     H_    0.877556 0.920050 0.954338 0.172341
H15   H     H_    0.377187 0.579416 0.954327 0.171822
H16   H     H_    0.622813 0.420583 0.045672 0.171820
C37   C     C_2   0.148225 0.948254 0.925326 0.233225
C38   C     C_2   0.851774 0.051747 0.074673 0.233221
C39   C     C_2   0.352194 0.448019 0.074783 0.234507
C40   C     C_2   0.647804 0.551978 0.925214 0.234508
C41   C     C_2   0.000845 0.963134 0.967674 -0.214580
C42   C     C_2   0.999154 0.036867 0.032325 -0.214576
C43   C     C_2   0.499408 0.463237 0.032362 -0.215294
C44   C     C_2   0.500591 0.536761 0.967636 -0.215296
O21   O     O_3   0.883832 0.256836 0.487698 -0.547442
C45   C     C_3   0.959958 0.343904 0.515350 0.071497
H17   H     H_    0.104423 0.336525 0.547135 0.114477
H18   H     H_    0.873697 0.377665 0.558641 0.126692
C46   C     C_3   0.962309 0.408111 0.441022 -0.648077
H19   H     H_    0.842591 0.455778 0.434788 0.188410
H20   H     H_    0.091651 0.449647 0.447178 0.168417
H21   H     H_    0.953860 0.367411 0.383520 0.279107
O22   O     O_3   0.116204 0.743159 0.512297 -0.547485
C47   C     C_3   0.040076 0.656089 0.484652 0.071500
H22   H     H_    0.126348 0.622323 0.441367 0.126675
H23   H     H_    0.895614 0.663465 0.452859 0.114543
C48   C     C_3   0.037702 0.591892 0.558985 -0.648071
H24   H     H_    0.046144 0.632600 0.616482 0.279111
H25   H     H_    0.908355 0.550360 0.552829 0.168419
H26   H     H_    0.157412 0.544221 0.565229 0.188406
O23   O     O_3   0.516268 0.759995 0.515639 -0.548003
C49   C     C_3   0.553498 0.850685 0.489955 0.087359
H27   H     H_    0.444748 0.873887 0.439514 0.125523
H28   H     H_    0.691748 0.853620 0.468146 0.114378
C50   C     C_3   0.553152 0.916837 0.563213 -0.639243
H29   H     H_    0.647621 0.975361 0.557002 0.163265
H30   H     H_    0.412411 0.944290 0.566513 0.195513
H31   H     H_    0.601447 0.882224 0.622153 0.271135
O24   O     O_3   0.484024 0.240001 0.484405 -0.547944
C51   C     C_3   0.446356 0.149351 0.510016 0.087182
H32   H     H_    0.307977 0.146543 0.531684 0.114430
H33   H     H_    0.554809 0.126050 0.560524 0.125527
C52   C     C_3   0.446820 0.083197 0.436772 -0.639249
H34   H     H_    0.398557 0.117803 0.377826 0.271106
H35   H     H_    0.587589 0.055767 0.433504 0.195623
H36   H     H_    0.352368 0.024660 0.442969 0.163225
O25   O     O_3   0.691434 0.999113 0.056317 -0.523759
C53   C     C_3   0.688987 0.930632 0.118666 0.142709
H37   H     H_    0.685678 0.962594 0.181387 0.102723
H38   H     H_    0.812677 0.884656 0.120613 0.092562
C54   C     C_3   0.515666 0.870917 0.098806 -0.653077
H39   H     H_    0.512751 0.838612 0.036032 0.223056
H40   H     H_    0.515592 0.815248 0.146304 0.142511
H41   H     H_    0.389337 0.913991 0.099850 0.236534
O26   O     O_3   0.308564 0.000889 0.943681 -0.523759
C55   C     C_3   0.311011 0.069368 0.881330 0.142705
H42   H     H_    0.187325 0.115347 0.879385 0.092565
H43   H     H_    0.314312 0.037405 0.818609 0.102720
C56   C     C_3   0.484337 0.129080 0.901186 -0.653073
H44   H     H_    0.610663 0.086003 0.900142 0.236535
H45   H     H_    0.484413 0.184748 0.853686 0.142510
H46   H     H_    0.487258 0.161388 0.963960 0.223056
O27   O     O_3   0.808207 0.499831 0.943408 -0.523502
C57   C     C_3   0.808845 0.430229 0.881701 0.141420
H47   H     H_    0.809736 0.461065 0.818475 0.104172
H48   H     H_    0.685618 0.383896 0.881196 0.092315
C58   C     C_3   0.982722 0.371318 0.901033 -0.651376
H49   H     H_    0.987609 0.339925 0.964148 0.224238
H50   H     H_    0.981627 0.314955 0.853912 0.142713
H51   H     H_    0.108583 0.414750 0.898901 0.236528
O28   O     O_3   0.191787 0.500163 0.056585 -0.523501
C59   C     C_3   0.191134 0.569765 0.118290 0.141411
H52   H     H_    0.314362 0.616098 0.118801 0.092305
H53   H     H_    0.190227 0.538929 0.181514 0.104181
C60   C     C_3   0.017259 0.628675 0.098949 -0.651371
H54   H     H_    0.891395 0.585244 0.101076 0.236535
H55   H     H_    0.018343 0.685038 0.146070 0.142713
H56   H     H_    0.012387 0.660068 0.035836 0.224237

loop_
_geom_bond_atom_site_label_1
_geom_bond_atom_site_label_2
_ccdc_geom_bond_type
O1    C5    A    
O22   C47   S    
C12   C32   A    
C27   C31   A    
O13   V1    S    
C50   H29   S    
O3    C7    A    
C40   C44   D    
O15   V3    S    
C48   H26   S    
C57   C58   S    
C60   H54   S    
C29   C34   A    
O21   C45   S    
C50   H30   S    
C31   C36   A    
C55   H42   S    
C4    C34   S    
C49   C50   S    
C32   C35   A    
C9    O21   S    
O20   V1    S    
C41   C42   S    
O9    C4    A    
C10   C14   A    
O10   C3    A    
O16   V4    S    
O4    C8    A    
O11   C2    A    
C45   H18   S    
H15   C44   S    
C48   H24   S    
H4    C19   S    
C14   C18   A    
C38   C42   D    
C51   H32   S    
C54   H41   S    
C48   H25   S    
C53   H37   S    
C25   C33   A    
O16   C8    A    
C27   C35   A    
O2    C6    A    
C28   C36   A    
O14   V2    S    
C37   C41   D    
C46   H20   S    
C12   C16   A    
O5    C1    A    
O4    V1    S    
O9    V1    S    
C47   H23   S    
C56   H46   S    
O17   V4    S    
O7    C3    A    
O11   V3    S    
O18   V3    S    
O8    C4    A    
C21   H9    S    
O12   V4    S    
O19   V2    S    
C9    C13   A    
H1    C18   S    
C59   C60   S    
C49   H27   S    
C23   H11   S    
H3    C20   S    
H16   C43   S    
C60   H55   S    
C11   O23   S    
O5    V1    S    
C50   H31   S    
O7    V3    S    
O8    V4    S    
O23   C49   S    
C38   O25   S    
C25   C29   A    
C45   H17   S    
C19   C23   A    
C26   C34   A    
C55   C56   S    
O1    V4    S    
O13   C5    A    
C40   O27   S    
C28   C32   A    
O2    V3    S    
C53   C54   S    
O3    V2    S    
O15   C7    A    
C57   H48   S    
C24   H12   S    
O6    C2    A    
O27   C57   S    
C58   H50   S    
O10   V2    S    
C43   C44   S    
C1    C35   S    
C17   C21   A    
C11   C31   A    
C5    C39   S    
C3    C33   S    
H2    C17   S    
C10   C30   A    
C7    C37   S    
C46   H21   S    
C49   H28   S    
C51   C52   S    
C54   H39   S    
C57   H47   S    
C2    C36   S    
C53   H38   S    
C8    C38   S    
O6    V2    S    
O28   C59   S    
O26   C55   S    
C59   H53   S    
C16   H8    S    
H14   C41   S    
H13   C42   S    
C60   H56   S    
C37   O26   S    
C52   H34   S    
C26   C30   A    
C55   H43   S    
O14   C6    A    
C45   C46   S    
C11   C15   A    
C12   O24   S    
C58   H49   S    
C18   C22   A    
C47   C48   S    
C52   H36   S    
C56   H44   S    
C6    C40   S    
C22   C26   A    
O25   C53   S    
C39   C43   D    
C39   O28   S    
C30   C33   A    
C21   C25   A    
C58   H51   S    
C10   O22   S    
C23   C27   A    
C13   H5    S    
C47   H22   S    
C51   H33   S    
C22   H10   S    
C54   H40   S    
C16   C20   A    
C20   C24   A    
O12   C1    A    
C15   H7    S    
C14   H6    S    
C13   C17   A    
C59   H52   S    
C52   H35   S    
C46   H19   S    
O24   C51   S    
C15   C19   A    
C9    C29   A    
C24   C28   A    
C56   H45   S    
