data_mof_unit_50492.cif
_audit_creation_date              2013-03-05T15:46:22-0500
_audit_creation_method            fapswitch 2.2
_symmetry_space_group_name_H-M    P1
_symmetry_Int_Tables_number       1
_space_group_crystal_system       triclinic
_cell_length_a                    10.160908
_cell_length_b                    10.639186
_cell_length_c                    10.863915
_cell_angle_alpha                 89.935176
_cell_angle_beta                  95.839053
_cell_angle_gamma                 81.574295
_cell_volume                      1155.57325197

loop_
_atom_site_label
_atom_site_type_symbol
_atom_site_description
_atom_site_fract_x
_atom_site_fract_y
_atom_site_fract_z
_atom_type_partial_charge
O1    O     O_R   0.568950 0.489660 0.307530 -0.643539
O2    O     O_R   0.348880 0.522640 0.340350 -0.533372
C1    C     C_R   0.443013 0.508490 0.267495 0.807062
O3    O     O_R   0.610060 0.300270 0.483590 -0.616977
O4    O     O_R   0.389990 0.333260 0.516410 -0.570378
C2    C     C_R   0.498459 0.261037 0.496726 0.874651
Zn1   Zn    Zn3+2 0.646940 0.477980 0.478090 0.993775
Zn2   Zn    Zn3+2 0.353060 0.522020 0.521910 1.073393
O5    O     O_R   0.651120 0.477360 0.659650 -0.597218
O6    O     O_R   0.431050 0.510340 0.692470 -0.606255
O7    O     O_R   0.610010 0.666740 0.483590 -0.616691
O8    O     O_R   0.389940 0.699730 0.516410 -0.577744
C3    C     C_R   0.556757 0.492655 0.732284 0.937848
C4    C     C_R   0.499983 0.739451 0.497825 0.910993
H1    H     H_    0.432714 0.126073 0.672726 0.183827
C5    C     C_R   0.558885 0.123067 0.275369 -0.191254
H2    H     H_    0.553121 0.225173 0.269053 0.154995
C6    C     C_R   0.595563 0.053242 0.172832 -0.182088
H3    H     H_    0.619149 0.103105 0.092865 0.187532
C7    C     C_R   0.601849 0.920997 0.173449 0.374472
C8    C     C_R   0.567408 0.860334 0.278003 -0.221477
H4    H     H_    0.567460 0.758909 0.274987 0.182483
C9    C     C_R   0.532856 0.929987 0.384178 0.003263
C10   C     C_R   0.529755 0.061950 0.382793 0.110569
C11   C     C_R   0.494742 0.129465 0.488904 -0.107776
C12   C     C_R   0.458998 0.071249 0.592321 -0.179402
C13   C     C_R   0.461473 0.942437 0.594924 0.271758
C14   C     C_R   0.499178 0.872201 0.491887 -0.154339
H5    H     H_    0.396648 0.571758 0.894256 0.228345
H6    H     H_    0.608284 0.449090 0.103157 0.193747
C15   C     C_2   0.408009 0.516917 0.135019 0.141295
C16   C     C_2   0.508060 0.489043 0.063785 -0.250155
H7    H     H_    0.687861 0.437422 0.903156 0.176823
C17   C     C_2   0.589651 0.483075 0.864245 -0.301258
C18   C     C_2   0.491568 0.520076 0.934207 -0.006484
H8    H     H_    0.893655 0.576472 0.579367 0.167355
N1    N     N_2   0.157290 0.551390 0.551110 -0.233324
C19   C     C_2   0.073443 0.487434 0.490929 0.345747
H9    H     H_    0.876243 0.384919 0.383703 0.231121
N2    N     N_2   0.842740 0.448550 0.448960 -0.173990
C20   C     C_2   0.928465 0.508632 0.510979 -0.169185
H10   H     H_    0.119689 0.617393 0.612807 0.166579
N3    N     N_R   0.271946 0.559678 0.084843 0.234490
O9    O     O_R   0.199436 0.650926 0.137718 -0.308414
O10   O     O_R   0.215210 0.496603 0.997117 -0.346935
N4    N     N_R   0.120126 0.394411 0.404203 0.226126
O11   O     O_R   0.135813 0.274712 0.435600 -0.378725
O12   O     O_R   0.109045 0.425644 0.287460 -0.324158
N5    N     N_R   0.643662 0.848585 0.068692 0.232677
O13   O     O_R   0.672015 0.905404 0.970654 -0.341865
O14   O     O_R   0.660988 0.724972 0.072942 -0.376299
Br1   Br    Br    0.419327 0.866627 0.744474 -0.401628

loop_
_geom_bond_atom_site_label_1
_geom_bond_atom_site_label_2
_geom_bond_distance
_ccdc_geom_bond_type
O1    C1    1.295457 A    
O4    Zn2   1.990339 S    
Zn1   O7    1.990340 S    
Zn1   N2    2.025364 S    
N1    C19   1.293773 D    
H6    C16   1.088490 S    
H5    C18   1.086189 S    
C15   C16   1.338872 D    
Zn2   O8    1.982582 S    
N5    O14   1.301186 A    
O2    C1    1.294635 A    
H8    C20   1.085307 S    
C3    C17   1.438584 S    
C5    C10   1.413288 A    
O1    Zn1   1.936154 S    
C9    C14   1.416256 A    
C10   C11   1.407782 A    
C1    C15   1.446390 S    
N3    O10   1.301536 A    
C12   C13   1.367199 A    
C7    N5    1.440027 S    
C15   N3    1.441271 S    
O3    Zn1   1.982583 S    
O3    C2    1.285294 A    
N2    C20   1.290745 D    
O8    C4    1.286001 A    
C17   C18   1.328811 D    
C6    C7    1.399024 A    
C8    C9    1.418103 A    
N3    O9    1.301166 A    
O4    C2    1.284921 A    
O7    C4    1.286166 A    
N4    O12   1.300260 A    
C19   N4    1.430964 S    
C2    C11   1.408283 S    
Zn2   N1    2.025255 S    
C9    C10   1.399744 A    
C16   C18   1.433004 S    
N1    H10   1.030961 S    
H7    C17   1.087239 S    
C7    C8    1.405207 A    
C13   Br1   1.927017 S    
C19   C20   1.495465 S    
C5    C6    1.391713 A    
N5    O13   1.301861 A    
H9    N2    1.029300 S    
Zn1   O5    1.968567 S    
O5    C3    1.294980 A    
N4    O11   1.300783 A    
C6    H3    1.082675 S    
H1    C12   1.085139 S    
C4    C14   1.412542 S    
C11   C12   1.387512 A    
C8    H4    1.079545 S    
Zn2   O6    1.936154 S    
O2    Zn2   1.968567 S    
C5    H2    1.081018 S    
C13   C14   1.401232 A    
O6    C3    1.292657 A    
