data_mof_unit_68177.cif
_audit_creation_date              2013-03-05T16:02:50-0500
_audit_creation_method            fapswitch 2.2
_symmetry_space_group_name_H-M    P1
_symmetry_Int_Tables_number       1
_space_group_crystal_system       triclinic
_cell_length_a                    7.317643
_cell_length_b                    15.54734
_cell_length_c                    16.466769
_cell_angle_alpha                 90.51853
_cell_angle_beta                  89.854909
_cell_angle_gamma                 90.476648
_cell_volume                      1873.27519563

loop_
_atom_site_label
_atom_site_type_symbol
_atom_site_description
_atom_site_fract_x
_atom_site_fract_y
_atom_site_fract_z
_atom_type_partial_charge
O1    O     O_R   0.611670 0.415650 0.164070 -0.534630
O2    O     O_R   0.388330 0.915650 0.835930 -0.506579
O3    O     O_R   0.940950 0.405490 0.337780 -0.569621
O4    O     O_R   0.059050 0.905490 0.662220 -0.533705
O5    O     O_R   0.111350 0.584350 0.338470 -0.538073
O6    O     O_R   0.888650 0.084350 0.661530 -0.522925
C1    C     C_R   0.771294 0.390541 0.371821 1.018323
C2    C     C_R   0.227563 0.886736 0.630878 0.975762
O7    O     O_R   0.941380 0.404630 0.164680 -0.582789
O8    O     O_R   0.058620 0.904630 0.835320 -0.598697
O9    O     O_R   0.111780 0.583470 0.164130 -0.584588
O10   O     O_R   0.888220 0.083470 0.835870 -0.606056
C3    C     C_R   0.773506 0.382128 0.136866 1.078302
C4    C     C_R   0.226412 0.882434 0.863800 0.988270
O11   O     O_R   0.611240 0.416530 0.338400 -0.508788
O12   O     O_R   0.388760 0.916530 0.661600 -0.526837
O13   O     O_3   0.778020 0.558680 0.251290 -0.224704
O14   O     O_3   0.221980 0.058680 0.748710 -0.215051
V1    V     V_3+5 0.052840 0.489110 0.251260 1.323294
V2    V     V_3+5 0.947160 0.989110 0.748740 1.360570
O15   O     O_R   0.441500 0.594510 0.164760 -0.549444
O16   O     O_R   0.558500 0.094510 0.835240 -0.547651
C5    C     C_R   0.274817 0.620182 0.139962 0.970062
C6    C     C_R   0.726159 0.119724 0.860576 1.015893
O17   O     O_R   0.441080 0.595370 0.337860 -0.559003
O18   O     O_R   0.558920 0.095370 0.662140 -0.504466
C7    C     C_R   0.272180 0.617206 0.365695 1.091347
C8    C     C_R   0.727407 0.115827 0.632273 1.035808
V3    V     V_3+5 0.552850 0.510890 0.251270 1.375885
V4    V     V_3+5 0.447150 0.010890 0.748730 1.404203
O19   O     O_3   0.277800 0.441320 0.251250 -0.267570
O20   O     O_3   0.722200 0.941320 0.748750 -0.231250
C9    C     C_3   0.060186 0.697676 0.470677 0.263711
C10   C     C_3   0.939187 0.210029 0.536811 0.158593
C11   C     C_3   0.058488 0.759456 0.550253 -0.321817
C12   C     C_3   0.945797 0.278285 0.464671 -0.405388
H1    H     H_    0.941501 0.801623 0.541752 0.216062
H2    H     H_    0.037746 0.330211 0.483545 0.192001
C13   C     C_3   0.300337 0.784923 0.396457 0.042927
C14   C     C_3   0.673179 0.283182 0.602653 0.080148
C15   C     C_3   0.387943 0.674428 0.511589 0.183157
C16   C     C_3   0.623071 0.170050 0.479296 0.144715
C17   C     C_3   0.257477 0.691370 0.433695 -0.480206
C18   C     C_3   0.737093 0.191801 0.564587 -0.358342
C19   C     C_3   0.238796 0.819263 0.555615 -0.337830
C20   C     C_3   0.753065 0.324103 0.447329 -0.297056
C21   C     C_3   0.274429 0.861947 0.466125 -0.514292
C22   C     C_3   0.675496 0.362303 0.534827 -0.582876
C23   C     C_3   0.406245 0.758850 0.562766 0.292244
C24   C     C_3   0.606218 0.252697 0.427399 0.369127
H3    H     H_    0.523801 0.792121 0.536407 0.177622
H4    H     H_    0.471232 0.276269 0.444173 0.101529
H5    H     H_    0.925686 0.619521 0.793430 0.153509
H6    H     H_    0.218953 0.155004 0.163168 0.133273
C25   C     C_R   0.376095 0.923961 0.034533 0.360472
C26   C     C_R   0.657737 0.424564 0.965865 0.395339
C27   C     C_R   0.465629 0.940920 0.108267 -0.334331
C28   C     C_R   0.575180 0.442709 0.891605 -0.359389
C29   C     C_R   0.549732 0.874193 0.148355 0.463238
C30   C     C_R   0.478093 0.377610 0.852293 0.449748
C31   C     C_R   0.508950 0.788583 0.127020 -0.318090
C32   C     C_R   0.503928 0.290843 0.873591 -0.281367
C33   C     C_R   0.365996 0.769871 0.071047 -0.010131
C34   C     C_R   0.641712 0.269790 0.930339 -0.009134
C35   C     C_R   0.325014 0.837693 0.013149 0.054640
C36   C     C_R   0.685780 0.337343 0.988579 0.027890
C37   C     C_R   0.276097 0.685760 0.067806 -0.190001
C38   C     C_R   0.728522 0.185450 0.932978 -0.157380
C39   C     C_R   0.185869 0.665461 0.993145 0.064506
C40   C     C_R   0.836181 0.169138 0.003551 0.092672
C41   C     C_R   0.166329 0.731213 0.931049 0.151662
C42   C     C_R   0.865057 0.237418 0.063364 0.063611
C43   C     C_R   0.234761 0.817841 0.938014 -0.164741
C44   C     C_R   0.769777 0.317380 0.063244 -0.217164
C45   C     C_R   0.125121 0.579083 0.971735 -0.097256
C46   C     C_R   0.914652 0.086173 0.022511 -0.151897
C47   C     C_R   0.013526 0.568612 0.903285 -0.035188
C48   C     C_R   0.056472 0.085007 0.079596 0.033513
C49   C     C_R   0.990640 0.635367 0.850111 -0.130357
C50   C     C_R   0.116089 0.159784 0.116745 -0.021745
C51   C     C_R   0.119135 0.701115 0.853956 -0.329765
C52   C     C_R   0.984826 0.221437 0.126868 -0.221628
H7    H     H_    0.959930 0.506201 0.885425 0.160375
H8    H     H_    0.112936 0.025558 0.101098 0.161469
C53   C     C_2   0.922833 0.728860 0.407751 1.056591
O21   O     O_2   0.849421 0.679081 0.360205 -0.487046
O22   O     O_R   0.880525 0.814992 0.402569 -0.813855
H9    H     H_    0.852190 0.833151 0.345497 0.418646
C54   C     C_2   0.065253 0.235705 0.606393 1.068441
O23   O     O_2   0.131503 0.182350 0.650924 -0.424861
O24   O     O_R   0.101173 0.320324 0.624400 -0.763652
H10   H     H_    0.133649 0.328740 0.683038 0.419856
Cl1   Cl    Cl    0.525030 0.776873 0.359892 -0.598293
Cl2   Cl    Cl    0.457775 0.262200 0.641089 -0.566569
C55   C     C_2   0.443803 0.920064 0.463622 1.082192
O25   O     O_2   0.487544 0.952774 0.399264 -0.408714
O26   O     O_R   0.550335 0.935193 0.532415 -0.800715
H11   H     H_    0.626306 0.988968 0.530671 0.317991
C56   C     C_2   0.478920 0.400427 0.528335 1.208458
O27   O     O_2   0.399079 0.421533 0.590520 -0.418791
O28   O     O_R   0.392419 0.415828 0.454441 -0.752927
H12   H     H_    0.268076 0.443242 0.460910 0.372253
Cl3   Cl    Cl    0.331704 0.013822 0.973283 -0.632511
Cl4   Cl    Cl    0.730456 0.513758 0.025270 -0.613691
C57   C     C_2   0.475392 0.027648 0.145611 1.150971
O29   O     O_2   0.522157 0.090512 0.106469 -0.610270
O30   O     O_R   0.429775 0.036076 0.227678 -0.656086
H13   H     H_    0.429545 0.097682 0.247056 0.374551
C58   C     C_2   0.580712 0.529916 0.855800 1.153595
O31   O     O_2   0.556557 0.593974 0.897783 -0.566883
O32   O     O_R   0.617456 0.538059 0.772937 -0.658093
H14   H     H_    0.630847 0.599946 0.755250 0.391340
Cl5   Cl    Cl    0.736335 0.901627 0.212139 -0.510501
Cl6   Cl    Cl    0.293679 0.410506 0.792380 -0.612292
C59   C     C_2   0.662360 0.729275 0.134578 1.189319
O33   O     O_2   0.727330 0.714607 0.201088 -0.504113
O34   O     O_R   0.747148 0.698913 0.064309 -0.743082
H15   H     H_    0.865533 0.668890 0.076995 0.342174
C60   C     C_2   0.345788 0.232988 0.863937 1.178014
O35   O     O_2   0.273537 0.223231 0.797931 -0.521997
O36   O     O_R   0.269599 0.194917 0.932342 -0.765050
H16   H     H_    0.155814 0.160827 0.918066 0.336046
C61   C     C_2   0.191011 0.496504 0.006634 1.025961
O37   O     O_2   0.338678 0.492566 0.039725 -0.620898
O38   O     O_R   0.092776 0.420147 0.993497 -0.799660
H17   H     H_    0.157267 0.367838 0.015557 0.337341
C62   C     C_2   0.847926 0.998695 0.996194 1.065057
O39   O     O_2   0.709349 0.989040 0.956853 -0.612479
O40   O     O_R   0.939142 0.925057 0.021833 -0.813975
H18   H     H_    0.876891 0.869715 0.003450 0.341148
Cl7   Cl    Cl    0.994341 0.590091 0.489823 -0.608877
Cl8   Cl    Cl    0.027193 0.110888 0.508462 -0.574338
C63   C     C_2   0.282540 0.688018 0.802453 1.084268
O41   O     O_2   0.420127 0.730813 0.816049 -0.552425
O42   O     O_R   0.296390 0.619629 0.747354 -0.654744
H19   H     H_    0.195493 0.575159 0.747716 0.365807
C64   C     C_2   0.889956 0.206005 0.201393 1.085454
O43   O     O_2   0.865865 0.264718 0.248527 -0.660324
O44   O     O_R   0.826349 0.122481 0.215962 -0.709132
H20   H     H_    0.747973 0.116672 0.264989 0.434534
C65   C     C_2   0.992422 0.721231 0.631485 1.215143
O45   O     O_2   0.001535 0.644979 0.646155 -0.550891
O46   O     O_R   0.896517 0.773050 0.686249 -0.741705
H21   H     H_    0.848151 0.741779 0.735388 0.340549
C66   C     C_2   0.051778 0.247804 0.390051 1.251030
O47   O     O_2   0.022258 0.178229 0.358021 -0.468600
O48   O     O_R   0.187353 0.300280 0.357139 -0.745831
H22   H     H_    0.214547 0.283672 0.298731 0.354998
C67   C     C_2   0.214219 0.803908 0.312848 1.052202
O49   O     O_2   0.132366 0.748425 0.274195 -0.675800
O50   O     O_R   0.251932 0.881605 0.274149 -0.642538
H23   H     H_    0.186077 0.886836 0.220313 0.341189
C68   C     C_2   0.758987 0.305261 0.686657 1.040572
O51   O     O_2   0.808396 0.247990 0.731766 -0.700980
O52   O     O_R   0.765984 0.389081 0.717179 -0.713279
H24   H     H_    0.833880 0.393714 0.770684 0.331262
C69   C     C_2   0.122083 0.925112 0.448267 1.101746
O53   O     O_2   0.122587 0.968619 0.386763 -0.424238
O54   O     O_R   0.979749 0.935733 0.502963 -0.755215
H25   H     H_    0.869259 0.956965 0.473935 0.410250
C70   C     C_2   0.787885 0.439913 0.566203 1.185615
O55   O     O_2   0.713686 0.500270 0.601188 -0.451711
O56   O     O_R   0.976058 0.440634 0.564246 -0.733672
H26   H     H_    0.030961 0.478757 0.608340 0.438102
C71   C     C_2   0.570756 0.640284 0.492555 1.221204
O57   O     O_2   0.701003 0.675550 0.523207 -0.642309
O58   O     O_R   0.589073 0.558465 0.458942 -0.775564
H27   H     H_    0.703023 0.550063 0.425756 0.338873
C72   C     C_2   0.435479 0.129635 0.484528 1.015844
O59   O     O_2   0.348633 0.117080 0.422032 -0.479499
O60   O     O_R   0.368148 0.097210 0.555689 -0.711469
H28   H     H_    0.307082 0.039185 0.550475 0.319479
Cl9   Cl    Cl    0.324552 0.591987 0.579772 -0.443607
Cl10  Cl    Cl    0.718619 0.090645 0.412971 -0.503343
Cl11  Cl    Cl    0.506575 0.746855 0.658904 -0.523043
Cl12  Cl    Cl    0.548426 0.236789 0.322994 -0.623606

loop_
_geom_bond_atom_site_label_1
_geom_bond_atom_site_label_2
_geom_bond_distance
_ccdc_geom_bond_type
C27   C57   1.478183 S    
O22   H9    1.006319 S    
C33   C35   1.461395 A    
O28   H12   1.012952 S    
C21   C69   1.522755 S    
C28   C58   1.483572 S    
O13   V3    1.801846 S    
C72   O59   1.224190 D    
C30   Cl6   1.755948 S    
C55   O25   1.220456 D    
O48   H22   1.013258 S    
O60   H28   1.006477 S    
V1    O19   1.811713 S    
O26   H11   1.000746 S    
C61   O37   1.213670 D    
C71   O57   1.205211 D    
C53   O21   1.218507 D    
C57   O30   1.396440 S    
O9    V1    2.102665 S    
C69   O53   1.222947 D    
C15   Cl9   1.769782 S    
C45   C61   1.495368 S    
C34   C38   1.462831 A    
C30   C32   1.411269 A    
C11   H1    1.092625 S    
C46   C48   1.402322 A    
C52   C64   1.429584 S    
O3    C1    1.379687 A    
C67   O50   1.396059 S    
C66   O47   1.217096 D    
C9    C11   1.617756 S    
O7    C3    1.354261 A    
C48   C50   1.377013 A    
C27   C29   1.384143 A    
C47   H7    1.082094 S    
C28   C30   1.388043 A    
O46   H21   1.009546 S    
C36   C44   1.414101 A    
C25   Cl3   1.763336 S    
C35   C43   1.433877 A    
C24   Cl12  1.786047 S    
O10   C6    1.376268 A    
C19   C21   1.640976 S    
C5    C37   1.572610 S    
O9    C5    1.377642 A    
C39   C41   1.460509 A    
C9    C53   1.530181 S    
C2    C19   1.618805 S    
C13   Cl1   1.754625 S    
C32   C34   1.418704 A    
C58   O32   1.396721 S    
C25   C35   1.430534 A    
O5    C7    1.354820 A    
O7    V1    2.092160 S    
O6    C8    1.371332 A    
O32   H14   1.011717 S    
O8    V2    2.116735 S    
C23   H3    1.091205 S    
C15   C71   1.475242 S    
C31   C59   1.464907 S    
C24   H4    1.090471 S    
O50   H23   1.014327 S    
O3    V1    2.097677 S    
O14   V4    1.813118 S    
C54   O24   1.369447 S    
C10   C12   1.600394 S    
O4    C2    1.368205 A    
C9    Cl7   1.767684 S    
C53   O22   1.380393 S    
C64   O43   1.206607 D    
C10   Cl8   1.735082 S    
C2    O12   1.360737 A    
C15   C17   1.625600 S    
C71   O58   1.390034 S    
C16   C18   1.666041 S    
C15   C23   1.558358 S    
C70   O56   1.377232 S    
O58   H27   1.004581 S    
V2    O20   1.800447 S    
O11   V3    2.108301 S    
H6    C50   1.077656 S    
C60   O36   1.390464 S    
O15   C5    1.351794 A    
O17   V3    2.098859 S    
O44   H20   0.993453 S    
C33   C37   1.459562 A    
C29   C31   1.403408 A    
C66   O48   1.391192 S    
O34   H15   1.010645 S    
C9    C17   1.568939 S    
C1    C20   1.628128 S    
O42   H19   1.007351 S    
C10   C18   1.571134 S    
C26   Cl4   1.768852 S    
C42   C44   1.430428 A    
C16   Cl10  1.786576 S    
O24   H10   1.002152 S    
C41   C43   1.436719 A    
C13   C17   1.611679 S    
C22   C70   1.540660 S    
C59   O34   1.392130 S    
C13   C21   1.662496 S    
O15   V3    2.107236 S    
C8    C18   1.632355 S    
C37   C39   1.428510 A    
C34   C36   1.450684 A    
C62   O40   1.399070 S    
C16   C72   1.507541 S    
C7    C17   1.604062 S    
C64   O44   1.398408 S    
C4    C43   1.590374 S    
O54   H25   1.000198 S    
C19   C23   1.555443 S    
C29   Cl5   1.771754 S    
O10   V2    2.089511 S    
C31   C33   1.422466 A    
C32   C60   1.467822 S    
C47   C49   1.375498 A    
C12   C20   1.612613 S    
C45   C47   1.401060 A    
O36   H16   1.010370 S    
C11   C65   1.543537 S    
C38   C40   1.431349 A    
C56   O28   1.396527 S    
C16   C24   1.555504 S    
O18   V4    2.106478 S    
C25   C27   1.402960 A    
O8    C4    1.363645 A    
O38   H17   1.014227 S    
O16   C6    1.350765 A    
C14   C68   1.554919 S    
O1    C3    1.370440 A    
O30   H13   1.006834 S    
C62   O39   1.212256 D    
C11   C19   1.609964 S    
C23   Cl11  1.758829 S    
C49   C51   1.384264 A    
O40   H18   1.014355 S    
C72   O60   1.368809 S    
C14   C22   1.668926 S    
C22   C56   1.564628 S    
C13   C67   1.547435 S    
V4    O20   2.292856 S    
O16   V4    2.082825 S    
H5    C49   1.074195 S    
C14   Cl2   1.726758 S    
C60   O35   1.217579 D    
C55   O26   1.393879 S    
C51   C63   1.478610 S    
O5    V1    2.095768 S    
O17   C7    1.361697 A    
O6    V2    2.119037 S    
C57   O29   1.221683 D    
C20   C24   1.571703 S    
O18   C8    1.362489 A    
C56   O27   1.221338 D    
O2    V4    2.112912 S    
C65   O46   1.395645 S    
C68   O51   1.222304 D    
C10   C54   1.521232 S    
V3    O19   2.277000 S    
C70   O55   1.226526 D    
C65   O45   1.214429 D    
C40   C46   1.453108 A    
O1    V3    2.099673 S    
C63   O41   1.222203 D    
C26   C36   1.426562 A    
C1    O11   1.361271 A    
C12   H2    1.090204 S    
O13   V1    2.291367 S    
C50   C52   1.371432 A    
C26   C28   1.397387 A    
C39   C45   1.451791 A    
O14   V2    2.275521 S    
O2    C4    1.368413 A    
C68   O52   1.393083 S    
O56   H26   1.014725 S    
C61   O38   1.398138 S    
C6    C38   1.563221 S    
O4    V2    2.090125 S    
C20   C22   1.654343 S    
C48   H8    1.078598 S    
C12   C66   1.525316 S    
C14   C18   1.619745 S    
C3    C44   1.568916 S    
C69   O54   1.385180 S    
C58   O31   1.221029 D    
O52   H24   1.014280 S    
C63   O42   1.395659 S    
C46   C62   1.501762 S    
C21   C55   1.528423 S    
C40   C42   1.456046 A    
C54   O23   1.216695 D    
C67   O49   1.221219 D    
O12   V4    2.085157 S    
C42   C52   1.391523 A    
C59   O33   1.219209 D    
C41   C51   1.392333 A    
