data_mof_unit_17198.cif
_audit_creation_date              2012-10-26T19:46:08-0400
_audit_creation_method            fapswitch 2.2
_symmetry_space_group_name_H-M    P1
_symmetry_Int_Tables_number       1
_space_group_crystal_system       triclinic
_cell_length_a                    10.833078
_cell_length_b                    9.611499
_cell_length_c                    15.888399
_cell_angle_alpha                 90.002267
_cell_angle_beta                  92.855591
_cell_angle_gamma                 90.0008
_cell_volume                      1652.27952546

loop_
_atom_site_label
_atom_site_type_symbol
_atom_type_description
_atom_site_fract_x
_atom_site_fract_y
_atom_site_fract_z
_atom_type_partial_charge
C1    C     C_R   0.262328 0.499999 0.499773 0.534668
C2    C     C_R   0.936149 0.626409 0.499812 -0.142526
C3    C     C_R   0.871686 0.500001 0.499933 0.018849
C4    C     C_R   0.128337 0.499999 0.499623 0.018981
C5    C     C_R   0.420627 0.074469 0.445468 0.145198
C6    C     C_R   0.420626 0.925522 0.445468 0.145234
C7    C     C_R   0.499546 0.499997 0.340405 0.537582
C8    C     C_R   0.578104 0.926058 0.553499 -0.006542
C9    C     C_R   0.578104 0.073952 0.553499 -0.006537
C10   C     C_R   0.737683 0.500000 0.500152 0.549011
C11   C     C_R   0.500237 0.500003 0.659652 0.553584
C12   C     C_3   0.631486 0.502595 0.955760 -0.218866
C13   C     C_3   0.425509 0.630134 0.045872 -0.093766
C14   C     C_3   0.429441 0.367174 0.045991 -0.093895
C15   C     C_3   0.432042 0.367625 0.947999 -0.198608
C16   C     C_3   0.428027 0.629732 0.947875 -0.198583
C17   C     C_1   0.499423 0.500008 0.749306 -0.038383
C18   C     C_3   0.497150 0.499973 0.082859 0.104818
C19   C     C_3   0.497418 0.499989 0.916969 0.051230
C20   C     C_3   0.479641 0.228320 0.082468 -0.428521
C21   C     C_3   0.471614 0.770811 0.082172 -0.428630
C22   C     C_3   0.330116 0.146122 0.383023 -0.338541
C23   C     C_3   0.631650 0.502534 0.053172 -0.201147
C24   C     C_3   0.330110 0.853859 0.383025 -0.338508
C25   C     C_1   0.498526 0.500007 0.824820 -0.082409
C26   C     C_1   0.497823 0.499979 0.175272 -0.074152
C27   C     C_1   0.498622 0.499989 0.250800 -0.050186
C28   C     C_R   0.063881 0.373596 0.499650 -0.144827
C29   C     C_R   0.063885 0.626403 0.499656 -0.144823
C30   C     C_R   0.936145 0.373592 0.499806 -0.142528
Cu1   Cu    Cu3+1 0.500020 0.640660 0.500000 0.921400
Cu2   Cu    Cu3+1 0.500020 0.359340 0.500000 0.921369
H1    H     H_    0.331512 0.630027 0.920292 0.100680
H2    H     H_    0.683304 0.410291 0.934162 0.110675
H3    H     H_    0.888192 0.274699 0.499900 0.127838
H4    H     H_    0.888199 0.725302 0.499911 0.127838
H5    H     H_    0.641169 0.870950 0.596625 0.108679
H6    H     H_    0.641169 0.129067 0.596625 0.108685
H7    H     H_    0.475546 0.226151 0.152112 0.143037
H8    H     H_    0.421826 0.141081 0.056965 0.117073
H9    H     H_    0.576165 0.209457 0.065186 0.135165
H10   H     H_    0.411152 0.855801 0.056661 0.116824
H11   H     H_    0.467648 0.772817 0.151826 0.142690
H12   H     H_    0.335619 0.363528 0.920376 0.100707
H13   H     H_    0.567462 0.793341 0.064750 0.135233
H14   H     H_    0.111832 0.274721 0.499711 0.127871
H15   H     H_    0.111839 0.725278 0.499722 0.127873
H16   H     H_    0.327562 0.258414 0.382366 0.197617
H17   H     H_    0.350914 0.116881 0.317684 0.087342
H18   H     H_    0.234064 0.115611 0.395623 0.079815
H19   H     H_    0.327555 0.741567 0.382364 0.197605
H20   H     H_    0.234059 0.884366 0.395632 0.079826
H21   H     H_    0.350897 0.883096 0.317685 0.087231
H22   H     H_    0.327245 0.620955 0.062810 0.116431
H23   H     H_    0.330939 0.372665 0.062873 0.116412
H24   H     H_    0.480297 0.273949 0.924651 0.124437
H25   H     H_    0.473327 0.725232 0.924390 0.124487
H26   H     H_    0.681912 0.595503 0.078406 0.110841
H27   H     H_    0.684651 0.411484 0.078450 0.110779
H28   H     H_    0.680412 0.596910 0.934114 0.110725
N1    N     N_R   0.500030 0.852070 0.500020 -0.223097
N2    N     N_R   0.500030 0.147930 0.500020 -0.223099
O1    O     O_R   0.319660 0.618740 0.500000 -0.520668
O2    O     O_R   0.319660 0.381260 0.500000 -0.520662
O3    O     O_R   0.500020 0.618840 0.379440 -0.509717
O4    O     O_R   0.500020 0.381160 0.379440 -0.509768
O5    O     O_R   0.680370 0.618830 0.500010 -0.505492
O6    O     O_R   0.680370 0.381170 0.500010 -0.505500
O7    O     O_R   0.500010 0.618730 0.620560 -0.493183
O8    O     O_R   0.500010 0.381270 0.620560 -0.493183

loop_
_geom_bond_atom_site_label_1
_geom_bond_atom_site_label_2
_ccdc_geom_bond_type
C18   C23   S    
C24   H20   S    
C3    C30   A    
C22   H16   S    
C11   O7    A    
C15   C19   S    
C5    C22   S    
C6    N1    A    
C10   O6    A    
C16   H1    S    
C7    O3    A    
C14   C18   S    
C4    C29   A    
C18   C26   S    
Cu2   O6    S    
C8    N1    A    
C22   H18   S    
C1    C4    S    
C6    C24   S    
C15   H24   S    
C24   H19   S    
C28   C30   A    
C20   H9    S    
C11   O8    A    
C17   C25   T    
C3    C10   S    
C10   O5    A    
C13   C21   S    
C7    O4    A    
C23   H27   S    
C12   C23   S    
C28   H14   S    
C26   C27   T    
C5    C6    A    
C30   H3    S    
C29   H15   S    
C2    C29   A    
C19   C25   S    
C13   C18   S    
C12   C19   S    
C9    H6    S    
C4    C28   A    
C5    N2    A    
C2    C3    A    
C23   H26   S    
C21   H13   S    
C16   H25   S    
C16   C19   S    
C15   H12   S    
C20   H8    S    
C8    H5    S    
Cu1   O5    S    
Cu2   N2    S    
C9    N2    A    
C12   H28   S    
C1    O2    A    
Cu1   O1    S    
Cu1   O7    S    
C14   H23   S    
C7    C27   S    
Cu2   O2    S    
C14   C20   S    
Cu2   O4    S    
C13   H22   S    
C13   C16   S    
C2    H4    S    
Cu1   O3    S    
C20   H7    S    
Cu1   N1    S    
C14   C15   S    
C11   C17   S    
Cu2   O8    S    
C24   H21   S    
C21   H11   S    
C12   H2    S    
Cu1   Cu2   S    
C1    O1    A    
C22   H17   S    
C21   H10   S    
C8    C9    A    
