data_mof_unit_30109.cif
_audit_creation_date              2012-12-10T18:23:21-0500
_audit_creation_method            fapswitch 2.2
_symmetry_space_group_name_H-M    P1
_symmetry_Int_Tables_number       1
_space_group_crystal_system       triclinic
_cell_length_a                    27.723642
_cell_length_b                    10.637403
_cell_length_c                    9.424508
_cell_angle_alpha                 90.141407
_cell_angle_beta                  89.398311
_cell_angle_gamma                 90.129746
_cell_volume                      2779.18990677

loop_
_atom_site_label
_atom_site_type_symbol
_atom_type_description
_atom_site_fract_x
_atom_site_fract_y
_atom_site_fract_z
_atom_type_partial_charge
C1    C     C_R   0.500827 0.259818 0.499772 0.866909
C2    C     C_R   0.872786 0.407559 0.420600 -0.064810
C3    C     C_R   0.354275 0.499789 0.502692 -0.002166
C4    C     C_R   0.645609 0.507040 0.495396 -0.065397
C5    C     C_R   0.975020 0.407719 0.421886 0.024613
C6    C     C_R   0.026445 0.634778 0.447856 0.024700
C7    C     C_R   0.975420 0.633391 0.467951 0.087658
C8    C     C_R   0.024737 0.405740 0.456756 0.089722
C9    C     C_R   0.949538 0.520273 0.446665 0.053977
C10   C     C_R   0.051014 0.519617 0.461166 0.054544
C11   C     C_R   0.949848 0.301479 0.368543 -0.077832
C12   C     C_R   0.499397 0.740239 0.500121 0.847872
C13   C     C_R   0.053648 0.745519 0.418744 -0.064322
C14   C     C_R   0.898787 0.300142 0.371106 -0.093091
C15   C     C_R   0.104435 0.744624 0.434648 -0.074240
C16   C     C_R   0.407442 0.499662 0.500718 0.838518
C17   C     C_R   0.592527 0.501601 0.499138 0.826921
C18   C     C_R   0.047392 0.295119 0.501472 -0.201628
C19   C     C_R   0.950185 0.739526 0.516466 -0.208816
C20   C     C_3   0.519633 0.041955 0.622643 -0.208066
C21   C     C_3   0.480784 0.958212 0.376738 -0.307358
C22   C     C_3   0.545142 0.957267 0.511274 -0.011936
C23   C     C_R   0.101576 0.517576 0.479693 -0.061209
C24   C     C_3   0.455275 0.042927 0.487970 -0.012965
C25   C     C_3   0.499425 0.876718 0.500038 -0.079573
C26   C     C_3   0.500971 0.123409 0.499361 -0.077085
C27   C     C_3   0.473588 0.960429 0.609590 0.008141
C28   C     C_3   0.526760 0.039782 0.389724 -0.039822
C29   C     C_3   0.482910 0.604889 0.051683 -0.023948
C30   C     C_3   0.517075 0.395055 0.948345 -0.008227
C31   C     C_3   0.456604 0.513885 0.950596 -0.116816
C32   C     C_3   0.543373 0.486003 0.049453 -0.119780
C33   C     C_3   0.526007 0.589726 0.950327 0.067578
C34   C     C_R   0.898504 0.519013 0.454828 -0.061217
C35   C     C_3   0.473980 0.410160 0.049806 0.114747
C36   C     C_R   0.175660 0.399863 0.510443 0.633781
C37   C     C_R   0.823008 0.620437 0.520452 0.567463
C38   C     C_R   0.179418 0.622716 0.483828 0.592828
C39   C     C_R   0.821718 0.410732 0.430485 0.523749
C40   C     C_R   0.278487 0.499562 0.377150 -0.115975
C41   C     C_R   0.722717 0.491466 0.612925 -0.047997
C42   C     C_R   0.328657 0.497486 0.375211 -0.209544
C43   C     C_R   0.672456 0.487554 0.618696 -0.179537
C44   C     C_R   0.328750 0.503290 0.632297 -0.229985
C45   C     C_R   0.124864 0.401900 0.509474 -0.027696
C46   C     C_R   0.669772 0.532970 0.366915 -0.157911
C47   C     C_R   0.278184 0.505962 0.635833 0.017711
C48   C     C_R   0.720259 0.538421 0.360136 0.017108
C49   C     C_R   0.252959 0.504175 0.506032 0.344163
C50   C     C_R   0.746798 0.516057 0.484464 0.257600
C51   C     C_2   0.443899 0.915121 0.732925 0.466677
C52   C     C_2   0.556189 0.085443 0.265976 0.396789
C53   C     C_2   0.557037 0.692106 0.890542 0.443924
C54   C     C_2   0.443283 0.307155 0.110258 0.392426
C55   C     C_2   0.253689 0.511902 0.776624 0.452286
C56   C     C_R   0.873414 0.628987 0.499257 -0.041317
C57   C     C_2   0.745080 0.567890 0.223798 0.448156
C58   C     C_2   0.114235 0.176071 0.600573 0.518668
C59   C     C_2   0.877983 0.865175 0.555779 0.465193
C60   C     C_2   0.873376 0.185744 0.320762 0.444514
C61   C     C_2   0.131693 0.863135 0.410658 0.417061
C62   C     C_2   0.976197 0.196064 0.297625 0.419739
C63   C     C_2   0.030523 0.858329 0.355154 0.420782
C64   C     C_2   0.595394 0.907178 0.522192 0.388359
C65   C     C_2   0.405229 0.093585 0.473806 0.407532
C66   C     C_R   0.096385 0.292537 0.532963 -0.000123
C67   C     C_R   0.899995 0.740931 0.526431 0.011590
C68   C     C_R   0.128640 0.630495 0.468557 -0.065452
Cu1   Cu    Cu3+1 0.500010 0.499990 0.643150 0.984693
Cu2   Cu    Cu3+1 0.499990 0.500010 0.356850 0.966331
H1    H     H_    0.348247 0.505065 0.731329 0.144702
H2    H     H_    0.546476 0.058228 0.159015 0.121439
H3    H     H_    0.588812 0.668502 0.828117 0.120167
H4    H     H_    0.411886 0.329906 0.174740 0.067436
H5    H     H_    0.275068 0.510378 0.872471 0.053009
H6    H     H_    0.784049 0.576498 0.218687 0.086548
H7    H     H_    0.098697 0.086053 0.571468 -0.004026
H8    H     H_    0.893611 0.926595 0.635238 0.047391
H9    H     H_    0.654671 0.467868 0.719103 0.162297
H10   H     H_    0.347322 0.494677 0.273737 0.146973
H11   H     H_    0.743131 0.474478 0.708289 0.166832
H12   H     H_    0.649217 0.549987 0.271777 0.183615
H13   H     H_    0.259180 0.498367 0.277842 0.153451
H14   H     H_    0.850278 0.133502 0.392959 0.160509
H15   H     H_    0.151535 0.905841 0.496951 0.131217
H16   H     H_    0.963067 0.100266 0.306831 0.100963
H17   H     H_    0.042719 0.952190 0.382675 0.061526
H18   H     H_    0.026096 0.211502 0.522139 0.104986
H19   H     H_    0.969532 0.823282 0.548226 0.110412
H20   H     H_    0.620783 0.919659 0.435035 0.108315
H21   H     H_    0.384105 0.070340 0.381137 0.096087
H22   H     H_    0.420120 0.524953 0.905046 0.136400
H23   H     H_    0.579859 0.474959 0.095066 0.153291
H24   H     H_    0.468770 0.693064 0.099549 0.142499
H25   H     H_    0.531238 0.306907 0.900471 0.144296
H26   H     H_    0.535508 0.077716 0.722672 0.177086
H27   H     H_    0.464920 0.922416 0.276704 0.174902
H28   H     H_    0.453956 0.940497 0.840168 0.102070
N1    N     N_R   0.201252 0.509149 0.502245 -0.453933
N2    N     N_R   0.798608 0.515283 0.480020 -0.483825
N3    N     N_3   0.500040 0.499970 0.858290 -0.197580
N4    N     N_3   0.499960 0.500030 0.141710 -0.197430
O1    O     O_R   0.500020 0.316850 0.620870 -0.582782
O2    O     O_2   0.798241 0.714353 0.583671 -0.465147
O3    O     O_2   0.794755 0.311146 0.391378 -0.521207
O4    O     O_2   0.207368 0.726489 0.478512 -0.521547
O5    O     O_2   0.408411 0.849568 0.713267 -0.540542
O6    O     O_2   0.591146 0.153067 0.284990 -0.535918
O7    O     O_2   0.547045 0.802094 0.912789 -0.558884
O8    O     O_2   0.453270 0.197354 0.086816 -0.583483
O9    O     O_2   0.209907 0.519117 0.788506 -0.506318
O10   O     O_2   0.722285 0.583300 0.115038 -0.536758
O11   O     O_2   0.143268 0.180154 0.697003 -0.455168
O12   O     O_R   0.499980 0.683150 0.379130 -0.598152
O13   O     O_2   0.844894 0.904166 0.483839 -0.491211
O14   O     O_2   0.877757 0.150446 0.197932 -0.488378
O15   O     O_2   0.132505 0.912662 0.293917 -0.482906
O16   O     O_2   0.012102 0.216158 0.224900 -0.482488
O17   O     O_2   0.998515 0.846839 0.267977 -0.498805
O18   O     O_2   0.607725 0.850217 0.627843 -0.521376
O19   O     O_2   0.388153 0.161413 0.565950 -0.529474
O20   O     O_R   0.500000 0.316860 0.379090 -0.567814
O21   O     O_R   0.500000 0.683140 0.620910 -0.559399
O22   O     O_R   0.430270 0.500020 0.620880 -0.565366
O23   O     O_R   0.569730 0.499980 0.379120 -0.577595
O24   O     O_R   0.430250 0.500030 0.379090 -0.618092
O25   O     O_R   0.569750 0.499970 0.620910 -0.607203
O26   O     O_2   0.199732 0.289916 0.513679 -0.474791

loop_
_geom_bond_atom_site_label_1
_geom_bond_atom_site_label_2
_ccdc_geom_bond_type
C3    C42   A    
C42   H10   S    
C23   C45   A    
C60   H14   S    
C24   C27   S    
C64   H20   S    
C11   C62   S    
C17   O23   A    
C48   C57   S    
C47   C49   A    
C4    C46   A    
Cu2   O12   S    
C34   C56   A    
C62   H16   S    
C30   C35   S    
C33   N3    S    
C31   N3    S    
C57   H6    S    
C24   C26   S    
C5    C11   A    
C29   H24   S    
C11   C14   A    
C57   O10   D    
Cu1   O21   S    
C43   H9    S    
C40   C49   A    
C29   C33   S    
C63   O17   D    
C54   O8    D    
C44   H1    S    
C7    C9    A    
C65   H21   S    
C1    O20   A    
C58   H7    S    
C59   C67   S    
C46   H12   S    
C37   C56   A    
C2    C39   A    
C58   C66   S    
C22   C25   S    
C58   O11   D    
C19   C67   A    
C65   O19   D    
C1    O1    A    
C44   C47   A    
C63   H17   S    
Cu2   O24   S    
C51   H28   S    
C40   C42   A    
C32   H23   S    
C20   H26   S    
C35   N4    S    
C54   H4    S    
C35   C54   S    
C41   C43   A    
C40   H13   S    
C36   O26   S    
C59   H8    S    
C27   C51   S    
C12   O12   A    
Cu1   O1    S    
C33   C53   S    
C46   C48   A    
C3    C44   A    
C61   O15   D    
C17   O25   A    
Cu1   O22   S    
C8    C18   A    
C23   C68   A    
C38   O4    S    
C5    C9    A    
C30   H25   S    
C19   H19   S    
C49   N1    S    
C21   H27   S    
Cu2   O20   S    
C13   C63   S    
C41   H11   S    
C52   H2    S    
C15   C61   S    
C36   C45   A    
C52   O6    D    
C61   H15   S    
C24   C65   S    
C4    C17   S    
Cu2   O23   S    
C59   O13   D    
C4    C43   A    
C21   C28   S    
C20   C22   S    
C7    C19   A    
C13   C15   A    
C9    C34   A    
C32   N4    S    
C60   O14   D    
C5    C8    A    
C25   C27   S    
C41   C50   A    
C47   C55   S    
C53   O7    D    
C39   O3    S    
C21   C25   S    
C55   O9    D    
C50   N2    S    
C8    C10   A    
C53   H3    S    
C38   C68   A    
C38   N1    A    
C6    C10   A    
C37   O2    S    
Cu2   N4    S    
C6    C7    A    
C20   C27   S    
Cu1   N3    S    
C10   C23   A    
C18   C66   A    
C56   C67   A    
C14   C60   S    
C26   C28   S    
C64   O18   D    
C12   C25   S    
C32   C33   S    
C16   O22   A    
C55   H5    S    
C29   C31   S    
C6    C13   A    
C30   C32   S    
C28   C52   S    
C2    C34   A    
C39   N2    A    
C1    C26   S    
C12   O21   A    
C20   C26   S    
C15   C68   A    
C30   N3    S    
C48   C50   A    
C29   N4    S    
C36   N1    A    
C31   C35   S    
Cu1   Cu2   S    
C2    C14   A    
C18   H18   S    
C62   O16   D    
C22   C64   S    
Cu1   O25   S    
C51   O5    D    
C31   H22   S    
C21   C24   S    
C45   C66   A    
C22   C28   S    
C16   O24   A    
C37   N2    A    
C3    C16   S    
