data_mof_unit_57404.cif
_audit_creation_date              2012-12-11T16:19:46-0500
_audit_creation_method            fapswitch 2.2
_symmetry_space_group_name_H-M    P1
_symmetry_Int_Tables_number       1
_space_group_crystal_system       triclinic
_cell_length_a                    13.569782
_cell_length_b                    14.020295
_cell_length_c                    30.092301
_cell_angle_alpha                 97.703634
_cell_angle_beta                  90.339687
_cell_angle_gamma                 118.874778
_cell_volume                      4951.62164875

loop_
_atom_site_label
_atom_site_type_symbol
_atom_type_description
_atom_site_fract_x
_atom_site_fract_y
_atom_site_fract_z
_atom_type_partial_charge
C1    C     C_R   0.720577 0.099080 0.569126 0.540539
C2    C     C_R   0.350440 0.680676 0.678195 0.067369
C3    C     C_R   0.259089 0.683515 0.657462 0.128323
C4    C     C_R   0.266646 0.709806 0.613875 -0.112143
C5    C     C_R   0.255525 0.661845 0.832979 0.091000
C6    C     C_R   0.236128 0.635077 0.876456 -0.114207
C7    C     C_R   0.394867 0.600844 0.876570 -0.087385
C8    C     C_R   0.415996 0.627217 0.833275 0.093357
C9    C     C_R   0.343018 0.653874 0.810781 0.072513
C10   C     C_1   0.350364 0.664320 0.764063 -0.001211
C11   C     C_1   0.352047 0.670911 0.724786 -0.000298
C12   C     C_R   0.383880 0.789080 0.551370 0.539506
C13   C     C_R   0.302557 0.600156 0.897692 -0.028938
C14   C     C_3   0.306254 0.028657 0.719859 0.001663
C15   C     C_3   0.241444 0.168209 0.712322 -0.004747
C16   C     C_3   0.229045 0.179745 0.764968 0.270090
C17   C     C_1   0.298304 0.193620 0.878237 0.005885
C18   C     C_3   0.338048 0.140399 0.702366 0.055920
C19   C     C_3   0.300133 0.042529 0.771947 -0.221197
C20   C     C_3   0.319404 0.160096 0.790172 0.121057
C21   C     C_3   0.442798 0.240866 0.779778 -0.042595
C22   C     C_3   0.448577 0.236403 0.728165 -0.220371
C23   C     C_R   0.399053 0.117818 0.569753 0.545492
C24   C     C_1   0.308511 0.172470 0.839040 0.008000
C25   C     C_1   0.354567 0.135188 0.654057 -0.075314
C26   C     C_1   0.371692 0.130570 0.614954 -0.025689
C27   C     C_3   0.732099 0.206945 0.727273 -0.184878
C28   C     C_3   0.932002 0.248993 0.721724 -0.255166
C29   C     C_3   0.945290 0.263555 0.774144 -0.013123
C30   C     C_1   0.887354 0.202609 0.880634 0.006142
C31   C     C_3   0.808718 0.164030 0.704319 0.055405
C32   C     C_3   0.736999 0.208274 0.779345 0.008505
C33   C     C_3   0.832302 0.183056 0.793222 0.152040
C34   C     C_R   0.720267 0.095606 0.442570 0.578074
C35   C     C_3   0.799218 0.062982 0.770815 -0.038885
C36   C     C_3   0.780442 0.050567 0.718234 0.000960
C37   C     C_1   0.854241 0.192659 0.842188 0.026166
C38   C     C_1   0.792369 0.151436 0.654914 -0.033424
C39   C     C_1   0.767244 0.131956 0.614969 -0.004516
C40   C     C_3   0.308837 0.765382 0.270122 -0.207229
C41   C     C_3   0.271672 0.572146 0.270489 -0.264893
C42   C     C_3   0.266558 0.552000 0.218439 -0.249721
C43   C     C_1   0.310028 0.608991 0.110695 0.010357
C44   C     C_3   0.354271 0.694805 0.288983 0.068163
C45   C     C_R   0.382316 0.784926 0.424831 0.543192
C46   C     C_3   0.300968 0.746799 0.217725 0.003037
C47   C     C_3   0.340721 0.661928 0.200069 0.114975
C48   C     C_3   0.465270 0.705962 0.218867 -0.012018
C49   C     C_3   0.473081 0.724691 0.272027 0.014471
C50   C     C_1   0.328902 0.638612 0.150646 0.018712
C51   C     C_1   0.359621 0.713530 0.338344 -0.029133
C52   C     C_1   0.367121 0.738875 0.378464 -0.002410
C53   C     C_R   0.359830 0.131083 0.399825 -0.000914
C54   C     C_R   0.423559 0.231723 0.383932 -0.109164
C55   C     C_R   0.410318 0.239260 0.338547 0.116399
C56   C     C_R   0.396511 0.114396 0.442790 0.541356
C57   C     C_R   0.332084 0.144774 0.309282 0.066099
C58   C     C_R   0.262076 0.047207 0.325702 -0.156166
C59   C     C_R   0.275279 0.040442 0.370849 -0.143451
C60   C     C_R   0.234159 0.089125 0.147239 -0.128157
C61   C     C_R   0.226544 0.111996 0.104220 -0.154801
C62   C     C_R   0.418381 0.266318 0.116938 0.090785
C63   C     C_R   0.424971 0.242225 0.160183 -0.106498
C64   C     C_R   0.331484 0.156981 0.175711 0.015042
C65   C     C_1   0.330487 0.148022 0.222315 -0.025914
C66   C     C_1   0.329608 0.145006 0.261874 -0.002103
C67   C     C_R   0.364727 0.734323 0.591402 -0.005304
C68   C     C_R   0.315809 0.204220 0.089380 0.057150
C69   C     C_R   0.778806 0.133095 0.401528 0.058772
C70   C     C_R   0.801371 0.061020 0.370900 0.074671
C71   C     C_R   0.821681 0.081313 0.326723 -0.142523
C72   C     C_R   0.821870 0.172177 0.312927 0.033557
C73   C     C_R   0.813919 0.251369 0.343872 0.112019
C74   C     C_R   0.794483 0.233288 0.388740 0.071921
C75   C     C_R   0.863715 0.290688 0.164889 -0.097735
C76   C     C_R   0.892714 0.303918 0.120608 0.087446
C77   C     C_R   0.853453 0.112864 0.106544 -0.151255
C78   C     C_R   0.451502 0.723018 0.611456 -0.126997
C79   C     C_R   0.824387 0.101046 0.150438 -0.127749
C80   C     C_R   0.834292 0.191222 0.179955 0.012834
C81   C     C_1   0.827175 0.185386 0.226774 -0.022235
C82   C     C_1   0.825143 0.180370 0.266151 0.014861
C83   C     C_R   0.893856 0.215535 0.091781 0.044371
C84   C     C_R   0.283865 0.231667 0.922892 0.547327
C85   C     C_R   0.266108 0.547049 0.938074 0.545034
C86   C     C_R   0.943656 0.221600 0.923909 0.544219
C87   C     C_R   0.292720 0.242600 0.049171 0.558612
C88   C     C_R   0.275169 0.558526 0.064862 0.542144
C89   C     C_R   0.444155 0.696160 0.654667 -0.147310
C90   C     C_R   0.953318 0.232762 0.050137 0.551920
Cr1   Cr    Cr6+3 0.583400 0.162540 0.509180 1.036139
Cr2   Cr    Cr6+3 0.584070 0.916690 0.495550 1.039361
Cr3   Cr    Cr6+3 0.332550 0.920810 0.495240 1.014899
Cr4   Cr    Cr6+3 0.086700 0.177000 0.983690 1.025704
Cr5   Cr    Cr6+3 0.336880 0.419130 0.994740 1.038731
Cr6   Cr    Cr6+3 0.084850 0.422220 0.995960 1.046687
H1    H     H_    0.165321 0.635771 0.892628 0.139888
H2    H     H_    0.759107 0.291227 0.719590 0.129641
H3    H     H_    0.653948 0.143393 0.787684 0.108673
H4    H     H_    0.185676 0.548852 0.281316 0.128402
H5    H     H_    0.496697 0.665142 0.283134 0.127868
H6    H     H_    0.363929 0.854435 0.283143 0.112360
H7    H     H_    0.161717 0.022484 0.159154 0.114887
H8    H     H_    0.201326 0.974587 0.303127 0.102467
H9    H     H_    0.225074 0.961807 0.382148 0.136842
H10   H     H_    0.447681 0.574881 0.892618 0.155406
O1    O     O_R   0.494060 0.188820 0.559230 -0.509341
O2    O     O_R   0.480140 0.824500 0.445020 -0.482043
O3    O     O_R   0.308480 0.808690 0.440220 -0.518697
O4    O     O_R   0.340970 0.020670 0.455610 -0.502133
O5    O     O_3   0.500010 0.000010 0.499990 -0.251446
O6    O     O_R   0.969690 0.151000 0.934080 -0.501220
O7    O     O_R   0.187530 0.180840 0.938210 -0.489129
O8    O     O_R   0.358160 0.327300 0.941250 -0.511973
O9    O     O_R   0.323950 0.507710 0.953980 -0.503687
O10   O     O_R   0.170530 0.527770 0.952070 -0.510772
O11   O     O_R   0.987720 0.318450 0.945940 -0.493709
O12   O     O_R   0.678470 0.153390 0.554100 -0.499006
O13   O     O_R   0.976400 0.159230 0.032040 -0.531518
O14   O     O_R   0.193740 0.188470 0.029020 -0.519343
O15   O     O_R   0.364860 0.335530 0.039220 -0.467976
O16   O     O_R   0.330170 0.515340 0.044800 -0.499190
O17   O     O_R   0.177230 0.536000 0.050040 -0.486176
O18   O     O_R   0.993930 0.326080 0.036750 -0.466058
O19   O     O_3   0.169480 0.339450 0.991460 -0.251682
O20   O     O_R   0.697870 0.003940 0.549410 -0.507708
O21   O     O_R   0.480980 0.827230 0.535590 -0.501121
O22   O     O_R   0.309390 0.811640 0.537920 -0.519181
O23   O     O_R   0.341810 0.023400 0.546180 -0.495185
O24   O     O_R   0.493150 0.185870 0.461540 -0.514141
O25   O     O_R   0.677630 0.150660 0.463530 -0.467158
O26   O     O_R   0.696960 0.000990 0.451710 -0.481585
H11   H     H_    0.220934 0.965017 0.704345 0.192267
H12   H     H_    0.266127 0.248694 0.700828 0.108542
N1    N     N_3   0.134728 0.085944 0.686254 -0.674784
H13   H     H_    0.146869 0.079444 0.651978 0.237929
H14   H     H_    0.078039 0.116385 0.688975 0.211138
N2    N     N_3   0.115486 0.098999 0.775840 -0.593688
H15   H     H_    0.055493 0.115581 0.762599 0.207281
H16   H     H_    0.093016 0.019155 0.760525 0.237372
N3    N     N_3   0.246458 0.291135 0.781673 -0.566361
H17   H     H_    0.320692 0.351167 0.770863 0.259489
H18   H     H_    0.183698 0.300963 0.766153 0.194326
H19   H     H_    0.522735 0.227739 0.718157 0.097158
H20   H     H_    0.463037 0.315787 0.718410 0.132220
H21   H     H_    0.499717 0.211628 0.792034 0.106881
N4    N     N_3   0.383550 0.985827 0.707589 -0.631125
H22   H     H_    0.384580 0.972516 0.672624 0.249765
H23   H     H_    0.464900 0.042901 0.721396 0.217099
H24   H     H_    0.364978 0.029270 0.788700 0.133860
N5    N     N_3   0.184087 0.693081 0.810499 -0.608552
H25   H     H_    0.128561 0.701910 0.832448 0.225429
H26   H     H_    0.134253 0.628406 0.784753 0.234328
N6    N     N_3   0.484967 0.354519 0.802554 -0.621285
H27   H     H_    0.500091 0.357562 0.836962 0.242902
H28   H     H_    0.563832 0.404954 0.791447 0.227901
N7    N     N_3   0.755237 0.314225 0.803530 -0.632111
H29   H     H_    0.696123 0.332497 0.790264 0.210303
H30   H     H_    0.738078 0.305570 0.837034 0.234673
H31   H     H_    0.990228 0.220692 0.707266 0.076042
H32   H     H_    0.956303 0.328787 0.709903 0.120674
N8    N     N_3   0.988617 0.379073 0.794779 -0.598391
H33   H     H_    0.949982 0.415036 0.778368 0.262576
H34   H     H_    0.074606 0.422890 0.789883 0.218873
H35   H     H_    0.008620 0.240508 0.783787 0.129683
N9    N     N_3   0.667886 0.963418 0.698826 -0.628913
H36   H     H_    0.604332 0.976182 0.712867 0.243704
H37   H     H_    0.656053 0.887000 0.704763 0.227203
H38   H     H_    0.842218 0.027222 0.703208 0.130885
N10   N     N_3   0.705578 0.979096 0.791949 -0.648358
H39   H     H_    0.628938 0.976119 0.784539 0.235645
H40   H     H_    0.697077 0.901512 0.780483 0.230951
N11   N     N_3   0.162232 0.665849 0.681749 -0.610705
H41   H     H_    0.120956 0.583402 0.686667 0.212283
H42   H     H_    0.104978 0.676620 0.662502 0.219170
H43   H     H_    0.644202 0.155007 0.712443 0.088031
H44   H     H_    0.872881 0.051062 0.777559 0.124443
N12   N     N_3   0.186421 0.711706 0.198751 -0.639859
H45   H     H_    0.170040 0.777420 0.206674 0.220821
H46   H     H_    0.126779 0.646721 0.213791 0.230400
H47   H     H_    0.224698 0.743888 0.282653 0.112562
H48   H     H_    0.299175 0.518196 0.284300 0.112459
H49   H     H_    0.177352 0.512235 0.204254 0.144675
H50   H     H_    0.296692 0.492072 0.207557 0.106837
N13   N     N_3   0.560142 0.834920 0.293525 -0.619334
H51   H     H_    0.547170 0.896802 0.283663 0.237146
H52   H     H_    0.639513 0.847696 0.284744 0.224519
H53   H     H_    0.198720 0.717442 0.598694 0.128320
N14   N     N_3   0.545099 0.801948 0.198852 -0.651833
H54   H     H_    0.627553 0.819254 0.207259 0.223268
H55   H     H_    0.538307 0.871878 0.210385 0.231294
H56   H     H_    0.357883 0.826787 0.206535 0.150112
H57   H     H_    0.486886 0.639487 0.208066 0.121883
H58   H     H_    0.147369 0.061616 0.083823 0.134833
H59   H     H_    0.488338 0.302373 0.406100 0.119696
H60   H     H_    0.527898 0.741173 0.594905 0.142129
H61   H     H_    0.501040 0.293729 0.182384 0.117079
N15   N     N_3   0.513939 0.356652 0.102234 -0.600265
H62   H     H_    0.534327 0.428087 0.124956 0.224432
H63   H     H_    0.582224 0.341716 0.103618 0.221767
N16   N     N_3   0.480338 0.340016 0.321438 -0.635400
H64   H     H_    0.537856 0.400068 0.346977 0.215834
H65   H     H_    0.427857 0.369767 0.311270 0.223253
N17   N     N_3   0.926997 0.408209 0.105971 -0.583907
H66   H     H_    0.931530 0.466643 0.132644 0.218407
H67   H     H_    0.863672 0.396526 0.082425 0.225171
H68   H     H_    0.869251 0.359440 0.188218 0.109411
N18   N     N_3   0.821526 0.347638 0.328973 -0.634648
H69   H     H_    0.746303 0.349223 0.334441 0.239357
H70   H     H_    0.888118 0.417688 0.347883 0.222585
N19   N     N_3   0.787563 0.314776 0.420963 -0.609035
H71   H     H_    0.721851 0.326887 0.409901 0.235352
H72   H     H_    0.863482 0.388904 0.423255 0.218561
N20   N     N_3   0.798779 0.964910 0.383977 -0.578628
H73   H     H_    0.808708 0.916921 0.356512 0.217271
H74   H     H_    0.868602 0.992363 0.406965 0.226059
H75   H     H_    0.800588 0.023427 0.162070 0.117187
H76   H     H_    0.851386 0.043286 0.085107 0.135375
N21   N     N_3   0.508424 0.620527 0.812665 -0.626198
H77   H     H_    0.582851 0.679900 0.831655 0.228095
H78   H     H_    0.516336 0.640634 0.780248 0.222579
H79   H     H_    0.832958 0.023575 0.302418 0.099787
H80   H     H_    0.513987 0.692702 0.670556 0.102153
H81   H     H_    0.218602 0.976987 0.781022 0.125229

loop_
_geom_bond_atom_site_label_1
_geom_bond_atom_site_label_2
_ccdc_geom_bond_type
C44   C49   S    
C35   H44   S    
C15   C18   S    
C27   H2    S    
N7    H29   S    
C48   H57   S    
C41   C42   S    
C14   C18   S    
C35   C36   S    
C57   C66   S    
N12   H45   S    
C53   C59   A    
N1    H13   S    
Cr1   O24   S    
N11   H41   S    
C40   C46   S    
C67   C78   A    
C36   H38   S    
C84   O7    A    
C43   C88   S    
C28   C29   S    
Cr2   O26   S    
C78   C89   A    
C32   N7    S    
N3    H18   S    
C49   H5    S    
C5    C6    A    
N20   H74   S    
C77   H76   S    
N13   H52   S    
Cr1   O25   S    
N10   H39   S    
C77   C83   A    
Cr5   O8    S    
C29   H35   S    
C15   C16   S    
C55   N16   S    
C29   C33   S    
C28   H31   S    
C19   H24   S    
C23   O23   A    
N16   H64   S    
C23   C26   S    
Cr1   O5    S    
N14   H55   S    
C46   N12   S    
C46   C47   S    
C75   H68   S    
Cr2   O2    S    
N4    H22   S    
Cr5   O9    S    
C8    C9    A    
C47   C48   S    
C21   N6    S    
C70   C71   A    
C30   C86   S    
C60   H7    S    
C9    C10   S    
C40   C44   S    
N6    H28   S    
C45   O2    A    
C16   C20   S    
Cr3   O4    S    
C72   C73   A    
Cr5   O15   S    
N11   H42   S    
C34   O26   A    
N7    H30   S    
C71   H79   S    
C21   C22   S    
N9    H37   S    
N16   H65   S    
C69   C70   A    
C18   C25   S    
Cr4   O14   S    
C88   O17   A    
Cr3   O23   S    
C2    C11   S    
C29   N8    S    
C76   C83   A    
C56   O4    A    
C42   C47   S    
Cr4   O7    S    
C3    N11   S    
C28   H32   S    
C81   C82   T    
C47   C50   S    
N8    H34   S    
C77   C79   A    
C73   C74   A    
C56   O24   A    
C12   C67   S    
C7    H10   S    
C17   C24   T    
Cr6   O18   S    
C27   C31   S    
C51   C52   T    
C70   N20   S    
C6    H1    S    
Cr1   O1    S    
Cr6   O11   S    
C7    C8    A    
C1    O20   A    
C62   N15   S    
C88   O16   A    
N2    H15   S    
N21   H77   S    
C15   H12   S    
N20   H73   S    
N18   H69   S    
C45   C52   S    
C42   H50   S    
C58   C59   A    
C53   C54   A    
C14   N4    S    
C33   C37   S    
C79   C80   A    
C30   C37   T    
C60   C61   A    
C2    C89   A    
C86   O6    A    
C75   C76   A    
C28   C31   S    
C5    C9    A    
C62   C63   A    
C12   O21   A    
N21   H78   S    
Cr4   O13   S    
Cr5   O19   S    
N19   H71   S    
C22   H20   S    
C85   O9    A    
N5    H25   S    
C23   O1    A    
C36   N9    S    
C48   N14   S    
C41   H4    S    
C49   N13   S    
C69   C74   A    
C59   H9    S    
C78   H60   S    
C20   C21   S    
C43   C50   T    
C34   C69   S    
N6    H27   S    
N15   H62   S    
N2    H16   S    
Cr3   O5    S    
Cr5   O16   S    
C48   C49   S    
N19   H72   S    
C73   N18   S    
N17   H67   S    
C34   O25   A    
C55   C57   A    
N9    H36   S    
C41   C44   S    
C32   H3    S    
C41   H48   S    
C58   H8    S    
C22   H19   S    
C3    C4    A    
Cr2   O21   S    
C44   C51   S    
C87   O15   A    
C40   H47   S    
C75   C80   A    
C53   C56   S    
N1    H14   S    
C83   C90   S    
C54   C55   A    
C84   O8    A    
C54   H59   S    
Cr6   O17   S    
N4    H23   S    
C27   C32   S    
C18   C22   S    
C90   O18   A    
C14   C19   S    
C85   O10   A    
C16   N2    S    
C19   H81   S    
C46   H56   S    
C80   C81   S    
Cr2   O20   S    
C27   H43   S    
C89   H80   S    
C4    C67   A    
N12   H46   S    
C76   N17   S    
Cr2   O5    S    
C12   O22   A    
C14   H11   S    
C42   H49   S    
N8    H33   S    
N13   H51   S    
C5    N5    S    
C31   C38   S    
C62   C68   A    
C74   N19   S    
C60   C64   A    
C17   C84   S    
C32   C33   S    
C4    H53   S    
C19   C20   S    
C16   N3    S    
C25   C26   T    
Cr3   O22   S    
C87   O14   A    
C8    N21   S    
N3    H17   S    
C64   C65   S    
C6    C13   A    
C68   C87   S    
C61   C68   A    
C57   C58   A    
C38   C39   T    
N10   H40   S    
Cr4   O6    S    
C33   C35   S    
Cr6   O19   S    
C2    C3    A    
C86   O11   A    
C45   O3    A    
C1    O12   A    
N5    H26   S    
N14   H54   S    
C90   O13   A    
Cr1   O12   S    
C79   H75   S    
C10   C11   T    
C1    C39   S    
C40   H6    S    
C63   C64   A    
C63   H61   S    
C7    C13   A    
C21   H21   S    
C15   N1    S    
N17   H66   S    
N18   H70   S    
C65   C66   T    
C13   C85   S    
C35   N10   S    
C31   C36   S    
Cr6   O10   S    
N15   H63   S    
C71   C72   A    
C61   H58   S    
C20   C24   S    
C72   C82   S    
Cr3   O3    S    
Cr4   O19   S    
