data_mof_unit_63434.cif
_audit_creation_date              2012-12-10T18:53:17-0500
_audit_creation_method            fapswitch 2.2
_symmetry_space_group_name_H-M    P1
_symmetry_Int_Tables_number       1
_space_group_crystal_system       triclinic
_cell_length_a                    27.485692
_cell_length_b                    27.445511
_cell_length_c                    18.218926
_cell_angle_alpha                 90.000315
_cell_angle_beta                  89.999644
_cell_angle_gamma                 90.0
_cell_volume                      13743.6082861

loop_
_atom_site_label
_atom_site_type_symbol
_atom_type_description
_atom_site_fract_x
_atom_site_fract_y
_atom_site_fract_z
_atom_type_partial_charge
C1    C     C_R   0.066024 0.433927 0.500008 0.880104
C2    C     C_R   0.933976 0.566073 0.500009 0.880099
C3    C     C_R   0.933977 0.433927 0.499991 0.880094
C4    C     C_R   0.066024 0.566072 0.499991 0.880091
C5    C     C_R   0.566023 0.933927 0.500008 0.880093
C6    C     C_R   0.433976 0.066073 0.500009 0.880091
C7    C     C_R   0.433977 0.933926 0.499991 0.880101
C8    C     C_R   0.566024 0.066073 0.499991 0.880100
C9    C     C_R   0.232316 0.731401 0.567169 -0.046805
C10   C     C_R   0.768629 0.267654 0.432347 -0.047137
C11   C     C_R   0.767699 0.268579 0.567170 -0.046802
C12   C     C_R   0.231398 0.732323 0.432347 -0.047135
C13   C     C_R   0.767650 0.731370 0.432831 -0.046801
C14   C     C_R   0.231339 0.267622 0.567651 -0.047133
C15   C     C_R   0.232343 0.268621 0.432831 -0.046800
C16   C     C_R   0.768643 0.732362 0.567651 -0.047131
C17   C     C_R   0.732357 0.231362 0.567167 -0.046802
C18   C     C_R   0.268681 0.767604 0.432352 -0.047138
C19   C     C_R   0.267658 0.768619 0.567170 -0.046798
C20   C     C_R   0.731344 0.232375 0.432347 -0.047132
C21   C     C_R   0.267684 0.231401 0.432831 -0.046802
C22   C     C_R   0.731358 0.767643 0.567651 -0.047134
C23   C     C_R   0.732310 0.768590 0.432830 -0.046801
C24   C     C_R   0.268623 0.232341 0.567653 -0.047133
C25   C     C_R   0.786282 0.286211 0.499767 -0.010690
C26   C     C_R   0.213737 0.713770 0.499764 -0.010689
C27   C     C_R   0.213723 0.286215 0.500233 -0.010691
C28   C     C_R   0.786265 0.713773 0.500234 -0.010691
C29   C     C_R   0.286286 0.786207 0.499770 -0.010698
C30   C     C_R   0.713731 0.213776 0.499764 -0.010697
C31   C     C_R   0.713716 0.786210 0.500233 -0.010697
C32   C     C_R   0.286272 0.213778 0.500235 -0.010695
C33   C     C_R   1.000000 0.500000 0.078694 0.124410
C34   C     C_R   1.000000 0.500000 0.921303 0.124416
C35   C     C_R   0.500000 0.000000 0.078696 0.124416
C36   C     C_R   0.500000 0.000000 0.921305 0.124409
C37   C     C_R   0.019267 0.461553 0.721130 0.126265
C38   C     C_R   0.019335 0.538413 0.278867 0.126252
C39   C     C_R   0.980732 0.538447 0.721131 0.126258
C40   C     C_R   0.980665 0.461587 0.278867 0.126254
C41   C     C_R   0.519319 0.961579 0.721132 0.126260
C42   C     C_R   0.519285 0.038438 0.278869 0.126262
C43   C     C_R   0.480681 0.038421 0.721133 0.126256
C44   C     C_R   0.480714 0.961562 0.278869 0.126263
C45   C     C_R   0.020133 0.461082 0.798131 -0.272398
C46   C     C_R   0.020201 0.538882 0.201866 -0.272400
C47   C     C_R   0.979867 0.538918 0.798132 -0.272399
C48   C     C_R   0.979799 0.461118 0.201865 -0.272397
C49   C     C_R   0.520185 0.961110 0.798133 -0.272396
C50   C     C_R   0.520151 0.038908 0.201868 -0.272398
C51   C     C_R   0.479815 0.038890 0.798134 -0.272395
C52   C     C_R   0.479849 0.961092 0.201867 -0.272395
C53   C     C_R   0.147465 0.595963 0.461606 0.130495
C54   C     C_R   0.904017 0.352351 0.538151 0.137405
C55   C     C_R   0.852540 0.404025 0.461606 0.130495
C56   C     C_R   0.095993 0.647646 0.538145 0.137396
C57   C     C_R   0.852550 0.595983 0.538442 0.130560
C58   C     C_R   0.096004 0.352367 0.461798 0.137477
C59   C     C_R   0.147447 0.404010 0.538444 0.130566
C60   C     C_R   0.903991 0.647631 0.461803 0.137471
C61   C     C_R   0.647448 0.095985 0.461553 0.130550
C62   C     C_R   0.404000 0.852366 0.538205 0.137473
C63   C     C_R   0.352555 0.904005 0.461556 0.130553
C64   C     C_R   0.596008 0.147631 0.538201 0.137471
C65   C     C_R   0.352538 0.095970 0.538399 0.130498
C66   C     C_R   0.595986 0.852354 0.461839 0.137414
C67   C     C_R   0.647458 0.904022 0.538401 0.130502
C68   C     C_R   0.404010 0.147645 0.461847 0.137406
C69   C     C_R   0.183701 0.631347 0.463877 -0.161097
C70   C     C_R   0.868631 0.316115 0.535753 -0.160015
C71   C     C_R   0.816308 0.368636 0.463878 -0.161085
C72   C     C_R   0.131382 0.683878 0.535744 -0.160000
C73   C     C_R   0.816315 0.631367 0.536174 -0.161106
C74   C     C_R   0.131391 0.316133 0.464192 -0.160036
C75   C     C_R   0.183679 0.368622 0.536176 -0.161110
C76   C     C_R   0.868601 0.683863 0.464198 -0.160036
C77   C     C_R   0.683681 0.131372 0.463817 -0.161117
C78   C     C_R   0.368614 0.816131 0.535816 -0.160044
C79   C     C_R   0.316326 0.868614 0.463823 -0.161109
C80   C     C_R   0.631398 0.183863 0.535808 -0.160036
C81   C     C_R   0.316305 0.131357 0.536130 -0.161097
C82   C     C_R   0.631372 0.816118 0.464235 -0.160023
C83   C     C_R   0.683688 0.868632 0.536133 -0.161098
C84   C     C_R   0.368621 0.183878 0.464243 -0.160021
C85   C     C_R   0.175627 0.675688 0.499790 0.038367
C86   C     C_R   0.824386 0.324298 0.499797 0.038371
C87   C     C_R   0.824373 0.675690 0.500205 0.038371
C88   C     C_R   0.175618 0.324301 0.500203 0.038371
C89   C     C_R   0.675624 0.175693 0.499793 0.038380
C90   C     C_R   0.324387 0.824295 0.499802 0.038378
C91   C     C_R   0.324379 0.175694 0.500206 0.038373
C92   C     C_R   0.675613 0.824298 0.500203 0.038375
C93   C     C_R   0.000310 0.543923 0.961468 -0.175997
C94   C     C_R   0.000231 0.456076 0.038529 -0.175995
C95   C     C_R   0.999690 0.456077 0.961467 -0.175997
C96   C     C_R   0.999768 0.543924 0.038530 -0.175996
C97   C     C_R   0.500251 0.043924 0.961470 -0.175995
C98   C     C_R   0.500290 0.956077 0.038531 -0.175995
C99   C     C_R   0.499748 0.956076 0.961469 -0.175994
C100  C     C_R   0.499710 0.043923 0.038532 -0.175995
C101  C     C_R   1.000000 0.500000 0.838429 0.103501
C102  C     C_R   1.000000 0.500000 0.161569 0.103507
C103  C     C_R   0.500000 0.000000 0.838431 0.103505
C104  C     C_R   0.500000 1.000000 0.161571 0.103501
C105  C     C_R   0.103548 0.603605 0.499939 -0.106715
C106  C     C_R   0.896457 0.396390 0.499940 -0.106710
C107  C     C_R   0.896452 0.603606 0.500061 -0.106738
C108  C     C_R   0.103545 0.396391 0.500059 -0.106729
C109  C     C_R   0.603547 0.103607 0.499940 -0.106727
C110  C     C_R   0.396457 0.896388 0.499941 -0.106723
C111  C     C_R   0.396454 0.103607 0.500061 -0.106716
C112  C     C_R   0.603543 0.896390 0.500058 -0.106707
Cu1   Cu    Cu3+1 1.000000 0.500000 0.573360 1.014005
Cu2   Cu    Cu3+1 0.000000 0.500000 0.426640 1.014013
Cu3   Cu    Cu3+1 0.500000 0.000000 0.573360 1.014013
Cu4   Cu    Cu3+1 0.500000 0.000000 0.426640 1.014010
H1    H     H_    0.034351 0.430904 0.691733 0.152628
H2    H     H_    0.034473 0.569036 0.308259 0.152625
H3    H     H_    0.965649 0.569096 0.691734 0.152621
H4    H     H_    0.965527 0.430963 0.308259 0.152629
H5    H     H_    0.534444 0.930950 0.691738 0.152632
H6    H     H_    0.534383 0.069080 0.308265 0.152628
H7    H     H_    0.465555 0.069050 0.691740 0.152625
H8    H     H_    0.465616 0.930920 0.308264 0.152631
H9    H     H_    0.037111 0.430508 0.825432 0.129230
H10   H     H_    0.037234 0.569426 0.174565 0.129224
H11   H     H_    0.962889 0.569492 0.825434 0.129230
H12   H     H_    0.962766 0.430574 0.174564 0.129223
H13   H     H_    0.537205 0.930559 0.825434 0.129226
H14   H     H_    0.537144 0.069475 0.174566 0.129232
H15   H     H_    0.462795 0.069442 0.825436 0.129225
H16   H     H_    0.462856 0.930525 0.174566 0.129230
H17   H     H_    0.218100 0.624518 0.436807 0.159630
H18   H     H_    0.875384 0.281630 0.562756 0.159942
H19   H     H_    0.781910 0.375459 0.436803 0.159626
H20   H     H_    0.124633 0.718365 0.562744 0.159943
H21   H     H_    0.781928 0.624553 0.563287 0.159625
H22   H     H_    0.124652 0.281659 0.437146 0.159936
H23   H     H_    0.218065 0.375433 0.563293 0.159623
H24   H     H_    0.875339 0.718337 0.437155 0.159937
H25   H     H_    0.718067 0.124560 0.436697 0.159619
H26   H     H_    0.375354 0.781659 0.562867 0.159934
H27   H     H_    0.281940 0.875421 0.436701 0.159619
H28   H     H_    0.624662 0.218336 0.562858 0.159932
H29   H     H_    0.281908 0.124533 0.563208 0.159626
H30   H     H_    0.624621 0.781636 0.437222 0.159938
H31   H     H_    0.718084 0.875452 0.563216 0.159624
H32   H     H_    0.375370 0.218363 0.437235 0.159939
H33   H     H_    0.001458 0.578717 0.933670 0.127330
H34   H     H_    0.001316 0.421281 0.066327 0.127337
H35   H     H_    0.998542 0.421284 0.933668 0.127330
H36   H     H_    0.998683 0.578719 0.066329 0.127338
H37   H     H_    0.501352 0.078718 0.933672 0.127339
H38   H     H_    0.501422 0.921283 0.066330 0.127331
H39   H     H_    0.498648 0.921282 0.933670 0.127338
H40   H     H_    0.498578 0.078717 0.066331 0.127331
N1    N     N_R   0.000000 0.500000 0.683620 -0.176342
N2    N     N_R   0.000000 0.500000 0.316380 -0.176330
N3    N     N_R   0.500000 0.000000 0.683620 -0.176332
N4    N     N_R   0.500000 0.000000 0.316380 -0.176340
O1    O     O_R   0.049900 0.450090 0.561980 -0.579457
O2    O     O_R   0.950100 0.549910 0.438020 -0.551509
O3    O     O_R   0.950100 0.549910 0.561980 -0.579459
O4    O     O_R   0.049900 0.450090 0.438020 -0.551508
O5    O     O_R   0.950100 0.450090 0.438020 -0.579497
O6    O     O_R   0.049900 0.549910 0.561980 -0.551544
O7    O     O_R   0.049900 0.549910 0.438020 -0.579499
O8    O     O_R   0.950100 0.450090 0.561980 -0.551543
O9    O     O_R   0.549900 0.950090 0.561980 -0.579488
O10   O     O_R   0.450100 0.049910 0.438020 -0.551537
O11   O     O_R   0.450100 0.049910 0.561980 -0.579490
O12   O     O_R   0.549900 0.950090 0.438020 -0.551534
O13   O     O_R   0.450100 0.950090 0.438020 -0.579463
O14   O     O_R   0.549900 0.049910 0.561980 -0.551515
O15   O     O_R   0.549900 0.049910 0.438020 -0.579465
O16   O     O_R   0.450100 0.950090 0.561980 -0.551514
I1    I     I_    0.162677 0.531705 0.400590 -0.376356
I2    I     I_    0.968165 0.336931 0.599098 -0.398815
I3    I     I_    0.837321 0.468280 0.400585 -0.376352
I4    I     I_    0.031846 0.663075 0.599091 -0.398790
I5    I     I_    0.837355 0.531750 0.599530 -0.376231
I6    I     I_    0.031881 0.336965 0.400779 -0.398667
I7    I     I_    0.162644 0.468241 0.599536 -0.376250
I8    I     I_    0.968114 0.663038 0.400787 -0.398634
I9    I     I_    0.662644 0.031751 0.400468 -0.376269
I10   I     I_    0.468127 0.836966 0.599218 -0.398711
I11   I     I_    0.337354 0.968235 0.400466 -0.376270
I12   I     I_    0.531885 0.163037 0.599219 -0.398688
I13   I     I_    0.337324 0.031714 0.599419 -0.376332
I14   I     I_    0.531840 0.836937 0.400884 -0.398808
I15   I     I_    0.662676 0.968275 0.599426 -0.376350
I16   I     I_    0.468157 0.163068 0.400897 -0.398784
C113  C     C_R   0.214995 0.710494 0.637844 0.109785
C114  C     C_R   0.225212 0.661739 0.655537 -0.135773
C115  C     C_R   0.208002 0.641710 0.721125 -0.113774
C116  C     C_R   0.180653 0.670203 0.769502 -0.101667
C117  C     C_R   0.170462 0.718780 0.752361 -0.117176
C118  C     C_R   0.187501 0.738927 0.686750 -0.137189
H41   H     H_    0.246314 0.639315 0.618395 0.135421
H42   H     H_    0.215819 0.604081 0.734410 0.143352
H43   H     H_    0.167322 0.654628 0.820235 0.125844
H44   H     H_    0.149199 0.740775 0.789800 0.129146
H45   H     H_    0.178960 0.776456 0.673669 0.126712
C119  C     C_R   0.789567 0.284975 0.361691 0.109998
C120  C     C_R   0.838303 0.274832 0.344170 -0.133758
C121  C     C_R   0.858424 0.292226 0.278760 -0.123577
C122  C     C_R   0.830037 0.319664 0.230363 -0.107264
C123  C     C_R   0.781471 0.329750 0.247296 -0.113575
C124  C     C_R   0.761236 0.312542 0.312744 -0.137617
H46   H     H_    0.860658 0.253689 0.381350 0.135140
H47   H     H_    0.896046 0.284498 0.265642 0.139716
H48   H     H_    0.845688 0.333151 0.179779 0.122569
H49   H     H_    0.759558 0.351085 0.209842 0.129601
H50   H     H_    0.723731 0.321047 0.325697 0.126692
C125  C     C_R   0.785021 0.289481 0.637849 0.109798
C126  C     C_R   0.774795 0.338234 0.655558 -0.135777
C127  C     C_R   0.792004 0.358258 0.721151 -0.113778
C128  C     C_R   0.819362 0.329763 0.769515 -0.101651
C129  C     C_R   0.829564 0.281188 0.752357 -0.117169
C130  C     C_R   0.812525 0.261046 0.686742 -0.137208
H51   H     H_    0.753686 0.360660 0.618425 0.135416
H52   H     H_    0.784179 0.395885 0.734449 0.143336
H53   H     H_    0.832693 0.345334 0.820253 0.125837
H54   H     H_    0.850835 0.259192 0.789786 0.129142
H55   H     H_    0.821072 0.223520 0.673648 0.126705
C131  C     C_R   0.210476 0.714992 0.361688 0.110007
C132  C     C_R   0.161747 0.725138 0.344132 -0.133766
C133  C     C_R   0.141644 0.707736 0.278716 -0.123590
C134  C     C_R   0.170039 0.680284 0.230350 -0.107253
C135  C     C_R   0.218598 0.670195 0.247319 -0.113570
C136  C     C_R   0.238816 0.687413 0.312772 -0.137639
H56   H     H_    0.139386 0.746293 0.381289 0.135136
H57   H     H_    0.104028 0.715469 0.265569 0.139695
H58   H     H_    0.154402 0.666791 0.179762 0.122572
H59   H     H_    0.240518 0.648849 0.209890 0.129604
H60   H     H_    0.276316 0.678905 0.325752 0.126688
C137  C     C_R   0.784934 0.710426 0.362161 0.109796
C138  C     C_R   0.774702 0.661661 0.344535 -0.135774
C139  C     C_R   0.791876 0.641596 0.278950 -0.113768
C140  C     C_R   0.819205 0.670062 0.230511 -0.101647
C141  C     C_R   0.829413 0.718648 0.247586 -0.117173
C142  C     C_R   0.812409 0.738831 0.313194 -0.137197
H61   H     H_    0.753614 0.639258 0.381726 0.135423
H62   H     H_    0.784046 0.603961 0.265717 0.143364
H63   H     H_    0.832508 0.654460 0.179780 0.125860
H64   H     H_    0.850661 0.740622 0.210099 0.129151
H65   H     H_    0.820962 0.776366 0.326223 0.126712
C143  C     C_R   0.210364 0.284907 0.638302 0.109994
C144  C     C_R   0.161618 0.274759 0.655750 -0.133758
C145  C     C_R   0.141463 0.292121 0.721155 -0.123549
C146  C     C_R   0.169825 0.319531 0.769620 -0.107270
C147  C     C_R   0.218401 0.329621 0.752759 -0.113587
C148  C     C_R   0.238669 0.312446 0.687316 -0.137605
H66   H     H_    0.139282 0.253637 0.618516 0.135150
H67   H     H_    0.103834 0.284390 0.734216 0.139746
H68   H     H_    0.154148 0.332993 0.820200 0.122578
H69   H     H_    0.240294 0.350934 0.790266 0.129604
H70   H     H_    0.276182 0.320954 0.674420 0.126694
C149  C     C_R   0.215062 0.289566 0.362161 0.109796
C150  C     C_R   0.225295 0.338331 0.344538 -0.135774
C151  C     C_R   0.208124 0.358397 0.278953 -0.113766
C152  C     C_R   0.180798 0.329932 0.230510 -0.101647
C153  C     C_R   0.170589 0.281346 0.247581 -0.117178
C154  C     C_R   0.187590 0.261162 0.313189 -0.137198
H71   H     H_    0.246381 0.360734 0.381733 0.135425
H72   H     H_    0.215954 0.396033 0.265723 0.143364
H73   H     H_    0.167496 0.345535 0.179778 0.125860
H74   H     H_    0.149343 0.259373 0.210091 0.129149
H75   H     H_    0.179037 0.223627 0.326215 0.126711
C155  C     C_R   0.789612 0.715074 0.638303 0.109993
C156  C     C_R   0.838356 0.725225 0.655762 -0.133762
C157  C     C_R   0.858506 0.707862 0.721169 -0.123558
C158  C     C_R   0.830141 0.680446 0.769624 -0.107262
C159  C     C_R   0.781568 0.670353 0.752752 -0.113584
C160  C     C_R   0.761304 0.687531 0.687307 -0.137615
H76   H     H_    0.860693 0.746351 0.618536 0.135150
H77   H     H_    0.896133 0.715596 0.734240 0.139739
H78   H     H_    0.845815 0.666983 0.820205 0.122579
H79   H     H_    0.759672 0.649036 0.790250 0.129605
H80   H     H_    0.723793 0.679020 0.674403 0.126695
C161  C     C_R   0.715082 0.210407 0.637836 0.109806
C162  C     C_R   0.725312 0.161638 0.655439 -0.135772
C163  C     C_R   0.708146 0.141563 0.721021 -0.113759
C164  C     C_R   0.680828 0.170024 0.769482 -0.101651
C165  C     C_R   0.670622 0.218614 0.752432 -0.117184
C166  C     C_R   0.687617 0.238806 0.686826 -0.137185
H81   H     H_    0.746392 0.139239 0.618230 0.135424
H82   H     H_    0.715974 0.103924 0.734236 0.143375
H83   H     H_    0.667530 0.154414 0.820212 0.125861
H84   H     H_    0.649382 0.240583 0.789936 0.129146
H85   H     H_    0.679066 0.276345 0.673815 0.126706
C167  C     C_R   0.289668 0.784880 0.361704 0.110005
C168  C     C_R   0.338419 0.774736 0.344281 -0.133749
C169  C     C_R   0.358585 0.792092 0.278881 -0.123536
C170  C     C_R   0.330231 0.819492 0.230395 -0.107288
C171  C     C_R   0.281650 0.829578 0.247229 -0.113595
C172  C     C_R   0.261371 0.812409 0.312668 -0.137589
H86   H     H_    0.360749 0.753622 0.381532 0.135150
H87   H     H_    0.396218 0.784364 0.265840 0.139765
H88   H     H_    0.345917 0.832950 0.179818 0.122575
H89   H     H_    0.259763 0.850884 0.209706 0.129603
H90   H     H_    0.223854 0.820916 0.325544 0.126689
C173  C     C_R   0.284931 0.789571 0.637841 0.109801
C174  C     C_R   0.274695 0.838335 0.655454 -0.135787
C175  C     C_R   0.291857 0.858404 0.721040 -0.113762
C176  C     C_R   0.319179 0.829944 0.769495 -0.101660
C177  C     C_R   0.329391 0.781358 0.752434 -0.117194
C178  C     C_R   0.312398 0.761171 0.686824 -0.137183
H91   H     H_    0.253612 0.860734 0.618250 0.135426
H92   H     H_    0.284024 0.896039 0.734263 0.143369
H93   H     H_    0.332473 0.845550 0.820228 0.125862
H94   H     H_    0.350633 0.759389 0.789934 0.129147
H95   H     H_    0.320954 0.723636 0.673806 0.126708
C179  C     C_R   0.710363 0.215097 0.361696 0.110002
C180  C     C_R   0.661617 0.225252 0.344257 -0.133760
C181  C     C_R   0.641456 0.207898 0.278850 -0.123548
C182  C     C_R   0.669813 0.180488 0.230376 -0.107278
C183  C     C_R   0.718389 0.170390 0.247229 -0.113590
C184  C     C_R   0.738663 0.187558 0.312673 -0.137601
H96   H     H_    0.639285 0.246374 0.381497 0.135148
H97   H     H_    0.603826 0.215635 0.265795 0.139749
H98   H     H_    0.654131 0.167032 0.179795 0.122574
H99   H     H_    0.740278 0.149078 0.209715 0.129602
H100  H     H_    0.776176 0.179044 0.325562 0.126690
C185  C     C_R   0.284995 0.210485 0.362157 0.109800
C186  C     C_R   0.274770 0.161728 0.344478 -0.135775
C187  C     C_R   0.291970 0.141689 0.278891 -0.113777
C188  C     C_R   0.319318 0.170174 0.230501 -0.101656
C189  C     C_R   0.329518 0.218754 0.247629 -0.117178
C190  C     C_R   0.312489 0.238910 0.313240 -0.137198
H101  H     H_    0.253669 0.139310 0.381631 0.135419
H102  H     H_    0.284146 0.104059 0.265616 0.143353
H103  H     H_    0.332641 0.154592 0.179768 0.125847
H104  H     H_    0.350781 0.240742 0.210180 0.129144
H105  H     H_    0.321036 0.276440 0.326310 0.126708
C191  C     C_R   0.710409 0.784954 0.638305 0.109994
C192  C     C_R   0.661669 0.774814 0.655802 -0.133757
C193  C     C_R   0.641538 0.792200 0.721209 -0.123567
C194  C     C_R   0.669918 0.819628 0.769627 -0.107277
C195  C     C_R   0.718487 0.829710 0.752718 -0.113587
C196  C     C_R   0.738732 0.812510 0.687273 -0.137606
H106  H     H_    0.639320 0.753679 0.618605 0.135145
H107  H     H_    0.603914 0.784475 0.734308 0.139733
H108  H     H_    0.654259 0.833109 0.820209 0.122573
H109  H     H_    0.740395 0.851037 0.790189 0.129602
H110  H     H_    0.776240 0.821013 0.674339 0.126694
C197  C     C_R   0.715003 0.789509 0.362156 0.109799
C198  C     C_R   0.725231 0.838266 0.344482 -0.135776
C199  C     C_R   0.708036 0.858308 0.278894 -0.113775
C200  C     C_R   0.680691 0.829825 0.230498 -0.101656
C201  C     C_R   0.670488 0.781245 0.247620 -0.117181
C202  C     C_R   0.687512 0.761086 0.313232 -0.137198
H111  H     H_    0.746331 0.860683 0.381640 0.135420
H112  H     H_    0.715862 0.895938 0.265624 0.143354
H113  H     H_    0.667372 0.845409 0.179764 0.125847
H114  H     H_    0.649227 0.759258 0.210167 0.129143
H115  H     H_    0.678962 0.723556 0.326298 0.126708
C203  C     C_R   0.289564 0.215025 0.638308 0.109999
C204  C     C_R   0.338301 0.225166 0.655822 -0.133762
C205  C     C_R   0.358423 0.207775 0.721231 -0.123578
C206  C     C_R   0.330037 0.180342 0.769635 -0.107263
C207  C     C_R   0.281470 0.170259 0.752709 -0.113586
C208  C     C_R   0.261234 0.187463 0.687262 -0.137616
H116  H     H_    0.360655 0.246305 0.618636 0.135144
H117  H     H_    0.396045 0.215502 0.734344 0.139720
H118  H     H_    0.345689 0.166858 0.820219 0.122574
H119  H     H_    0.259558 0.148928 0.790169 0.129602
H120  H     H_    0.223728 0.178960 0.674315 0.126693

loop_
_geom_bond_atom_site_label_1
_geom_bond_atom_site_label_2
_ccdc_geom_bond_type
C60   I8    S    
C154  H75   S    
C27   C88   S    
C53   C69   A    
C192  C193  A    
C8    O15   A    
C77   C89   A    
C162  C163  A    
C166  H85   S    
C164  C165  A    
Cu3   O14   S    
C205  H117  S    
C9    C113  S    
C20   C179  S    
C175  H92   S    
C159  C160  A    
C134  H58   S    
C79   C90   A    
C184  H100  S    
C148  H70   S    
C9    C19   A    
C52   C104  A    
C10   C20   A    
C157  C158  A    
C56   C72   A    
C198  H111  S    
C189  H104  S    
C36   C97   A    
C84   C91   A    
C17   C30   A    
C167  C172  A    
C177  C178  A    
C30   C89   S    
C41   C49   A    
C133  C134  A    
C9    C26   A    
C24   C203  S    
C33   C102  S    
C52   H16   S    
C153  C154  A    
C195  C196  A    
C35   C104  S    
Cu1   O6    S    
C51   H15   S    
C201  H114  S    
C191  C192  A    
C13   C137  S    
C179  C180  A    
C18   C167  S    
C60   C76   A    
C54   I2    S    
C181  C182  A    
C23   C31   A    
C125  C126  A    
C24   C32   A    
C188  H103  S    
C66   C82   A    
C15   C27   A    
C173  C174  A    
C54   C70   A    
C176  C177  A    
C60   C107  A    
C183  H99   S    
C171  C172  A    
C65   I13   S    
C140  H63   S    
C37   C45   A    
C39   C47   A    
C161  C166  A    
C40   C48   A    
C163  H82   S    
C116  C117  A    
C53   I1    S    
C94   H34   S    
C158  H78   S    
C160  H80   S    
C151  H72   S    
C125  C130  A    
C146  H68   S    
C73   H21   S    
C198  C199  A    
C36   C99   A    
C200  C201  A    
C77   H25   S    
C178  H95   S    
Cu1   O1    S    
C115  C116  A    
C67   C112  A    
C37   H1    S    
C113  C114  A    
C204  C205  A    
C70   H18   S    
Cu1   N1    S    
C55   C71   A    
C156  C157  A    
C147  C148  A    
C206  H118  S    
C98   H38   S    
C67   C83   A    
C123  H49   S    
C208  H120  S    
C201  C202  A    
C33   C94   A    
C2    O2    A    
Cu1   O8    S    
C72   C85   A    
C128  H53   S    
C20   C30   A    
C180  H96   S    
C183  C184  A    
Cu4   O13   S    
C43   N3    A    
C151  C152  A    
C8    O14   A    
C207  C208  A    
C11   C25   A    
C193  H107  S    
C96   H36   S    
C13   C23   A    
C177  H94   S    
C14   C24   A    
C168  H86   S    
C197  C202  A    
C12   C131  S    
C182  H98   S    
C73   C87   A    
C1    O4    A    
C61   C77   A    
C80   H28   S    
C204  H116  S    
C192  H106  S    
C62   I10   S    
C44   C52   A    
C194  H108  S    
C162  H81   S    
C137  C138  A    
C185  C186  A    
C205  C206  A    
C156  H76   S    
C159  H79   S    
C152  H73   S    
C143  C148  A    
C127  C128  A    
C138  H61   S    
C12   C26   A    
C38   H2    S    
C168  C169  A    
Cu1   O3    S    
C71   C86   A    
Cu2   O4    S    
C172  H90   S    
C7    O16   A    
C28   C87   S    
C61   I9    S    
Cu4   O10   S    
C117  H44   S    
C18   C29   A    
C64   I12   S    
C59   I7    S    
C76   C87   A    
C133  H57   S    
C136  H60   S    
C42   C50   A    
C10   C25   A    
C98   C99   A    
C63   I11   S    
C190  H105  S    
C195  H109  S    
C35   C100  A    
C33   C96   A    
C43   H7    S    
C97   C100  A    
C69   C85   A    
C58   C74   A    
Cu2   O5    S    
C6    O10   A    
C179  C184  A    
Cu4   O15   S    
C55   I3    S    
C155  C160  A    
C62   C78   A    
C42   N4    A    
C188  C189  A    
C16   C155  S    
C47   H11   S    
C152  C153  A    
C5    C112  S    
C176  H93   S    
C7    C110  S    
C169  H87   S    
C170  C171  A    
C75   H23   S    
C64   C109  A    
C200  H113  S    
C26   C85   S    
C39   H3    S    
C66   I14   S    
C140  C141  A    
C5    O12   A    
C117  C118  A    
C38   C46   A    
C1    O1    A    
C53   C105  A    
C144  H66   S    
C119  C120  A    
C131  C132  A    
C163  C164  A    
C116  H43   S    
C199  H112  S    
C11   C125  S    
C50   C104  A    
C93   H33   S    
C139  C140  A    
C146  C147  A    
C78   C90   A    
C74   H22   S    
C3    O5    A    
C199  C200  A    
C36   C103  S    
C40   N2    A    
Cu4   N4    S    
C78   H26   S    
C56   I4    S    
C169  C170  A    
C23   C197  S    
Cu2   O2    S    
C51   C103  A    
C113  C118  A    
C82   C92   A    
Cu4   O12   S    
C6    C111  S    
C80   C89   A    
C126  H51   S    
Cu2   N2    S    
C123  C124  A    
C99   H39   S    
C119  C124  A    
C13   C28   A    
C97   H37   S    
C14   C27   A    
C35   C98   A    
C17   C161  S    
C100  H40   S    
C114  C115  A    
C22   C191  S    
C180  C181  A    
C64   C80   A    
C153  H74   S    
C29   C90   S    
C82   H30   S    
C147  H69   S    
C207  H119  S    
C84   H32   S    
C3    C106  S    
C174  H91   S    
C34   C101  S    
C54   C106  A    
C55   C106  A    
C122  C123  A    
C68   C84   A    
Cu2   O7    S    
C34   C95   A    
C38   N2    A    
Cu3   O11   S    
C149  C154  A    
C129  C130  A    
C150  C151  A    
C145  C146  A    
C44   H8    S    
C141  H64   S    
Cu3   N3    S    
C165  C166  A    
C48   H12   S    
C65   C81   A    
C194  C195  A    
C48   C102  A    
C144  C145  A    
C185  C190  A    
C173  C178  A    
C45   C101  A    
C40   H4    S    
C181  H97   S    
C44   N4    A    
C19   C173  S    
C95   H35   S    
C19   C29   A    
C197  C198  A    
C143  C144  A    
Cu1   Cu2   S    
C4    C105  S    
C127  H52   S    
C138  C139  A    
C11   C17   A    
C16   C22   A    
C121  C122  A    
C59   C108  A    
C2    O3    A    
C49   C103  A    
C196  H110  S    
C170  H88   S    
C124  H50   S    
C4    O7    A    
C58   I6    S    
C137  C142  A    
C187  C188  A    
C43   C51   A    
C58   C108  A    
C94   C95   A    
C56   C105  A    
C81   C91   A    
C175  C176  A    
C118  H45   S    
C5    O9    A    
C155  C156  A    
C74   C88   A    
C150  H71   S    
Cu3   Cu4   S    
C16   C28   A    
C157  H77   S    
C47   C101  A    
C189  C190  A    
C34   C93   A    
Cu3   O9    S    
C61   C109  A    
C57   I5    S    
C63   C79   A    
C120  C121  A    
C83   C92   A    
C46   C102  A    
C134  C135  A    
C120  H46   S    
C167  C168  A    
C141  C142  A    
C71   H19   S    
C187  H102  S    
C67   I15   S    
C72   H20   S    
C32   C91   S    
C68   I16   S    
C37   N1    A    
C131  C136  A    
C2    C107  S    
C41   H5    S    
C65   C111  A    
C50   H14   S    
C41   N3    A    
C121  H47   S    
C132  C133  A    
C45   H9    S    
C139  H62   S    
C132  H56   S    
C129  H54   S    
C202  H115  S    
C39   N1    A    
C203  C204  A    
C3    O8    A    
C14   C143  S    
C6    O11   A    
C76   H24   S    
C171  H89   S    
C21   C32   A    
C79   H27   S    
C22   C31   A    
C135  H59   S    
C126  C127  A    
C161  C162  A    
C49   H13   S    
C165  H84   S    
C135  C136  A    
C186  C187  A    
C68   C111  A    
C191  C196  A    
C114  H41   S    
C62   C110  A    
C158  C159  A    
C203  C208  A    
C83   H31   S    
C174  C175  A    
C57   C107  A    
C31   C92   S    
C93   C96   A    
C81   H29   S    
C122  H48   S    
C149  C150  A    
C70   C86   A    
C59   C75   A    
C15   C149  S    
C42   H6    S    
C115  H42   S    
C145  H67   S    
C69   H17   S    
C57   C73   A    
C46   H10   S    
C164  H83   S    
C206  C207  A    
C142  H65   S    
C63   C110  A    
C8    C109  S    
Cu3   O16   S    
C128  C129  A    
C7    O13   A    
C25   C86   S    
C4    O6    A    
C130  H55   S    
C182  C183  A    
C1    C108  S    
C75   C88   A    
C15   C21   A    
C193  C194  A    
C12   C18   A    
C186  H101  S    
C66   C112  A    
C10   C119  S    
C21   C185  S    
