data_mof_unit_45932.cif
_audit_creation_date              2013-03-05T16:30:50-0500
_audit_creation_method            fapswitch 2.2
_symmetry_space_group_name_H-M    P1
_symmetry_Int_Tables_number       1
_space_group_crystal_system       triclinic
_cell_length_a                    11.056306
_cell_length_b                    10.812612
_cell_length_c                    9.539757
_cell_angle_alpha                 89.980457
_cell_angle_beta                  102.547393
_cell_angle_gamma                 90.148208
_cell_volume                      1113.21291074

loop_
_atom_site_label
_atom_site_type_symbol
_atom_site_description
_atom_site_fract_x
_atom_site_fract_y
_atom_site_fract_z
_atom_type_partial_charge
O1    O     O_R   0.500000 0.319640 0.618810 -0.585382
O2    O     O_R   0.500010 0.319680 0.381230 -0.543491
C1    C     C_R   0.507191 0.262433 0.501621 0.840272
O3    O     O_R   0.320680 0.500000 0.575130 -0.586552
O4    O     O_R   0.320690 0.500040 0.337550 -0.587809
C2    C     C_R   0.262840 0.499240 0.441938 0.854868
Cu1   Cu    Cu3+1 0.499990 0.499980 0.640670 0.949789
Cu2   Cu    Cu3+1 0.500010 0.500020 0.359330 0.983012
O5    O     O_R   0.499990 0.680320 0.618770 -0.582982
O6    O     O_R   0.500000 0.680360 0.381190 -0.589527
O7    O     O_R   0.679310 0.499960 0.662450 -0.586644
O8    O     O_R   0.679320 0.500000 0.424870 -0.563884
C3    C     C_R   0.502641 0.737692 0.500685 0.821477
C4    C     C_R   0.737176 0.499342 0.558177 0.875690
H1    H     H_    0.883756 0.483622 0.374048 0.184308
H2    H     H_    0.117203 0.497223 0.628059 0.180457
C5    C     C_2   0.128043 0.496290 0.409487 -0.343476
C6    C     C_2   0.067510 0.494888 0.516365 -0.156036
H3    H     H_    0.921666 0.505103 0.702735 0.144692
C7    C     C_2   0.872016 0.498659 0.591318 -0.345977
C8    C     C_2   0.933050 0.491412 0.485292 -0.118961
H4    H     H_    0.078020 0.494714 0.297965 0.152661
C9    C     C_R   0.508689 0.063581 0.626662 0.109431
C10   C     C_R   0.526634 0.129448 0.506793 -0.226451
C11   C     C_R   0.563341 0.063165 0.394283 0.327743
C12   C     C_R   0.555360 0.933672 0.393126 -0.277607
H5    H     H_    0.577250 0.882872 0.304101 0.188865
C13   C     C_R   0.517663 0.870572 0.505106 -0.163427
C14   C     C_R   0.505375 0.936662 0.626351 0.124116
C15   C     C_3   0.406050 0.932216 0.710180 -0.439157
C16   C     C_3   0.409710 0.072693 0.710813 -0.442029
H6    H     H_    0.317536 0.893261 0.647388 0.194277
H7    H     H_    0.439453 0.891008 0.818458 0.210022
H8    H     H_    0.323210 0.115624 0.648680 0.189041
H9    H     H_    0.445313 0.112023 0.819644 0.227048
C17   C     C_R   0.547914 0.598083 0.085508 0.250537
N1    N     N_R   0.500780 0.500930 0.148120 -0.187363
C18   C     C_R   0.441007 0.409816 0.059622 -0.011654
H10   H     H_    0.395137 0.335592 0.103789 0.151462
C19   C     C_R   0.440782 0.409970 0.910660 -0.063627
H11   H     H_    0.394264 0.336254 0.843260 0.137124
N2    N     N_R   0.500790 0.500890 0.852210 -0.189361
C20   C     C_R   0.547760 0.598074 0.938136 0.249983
C21   C     C_3   0.677088 0.646046 0.963790 -0.484727
C22   C     C_3   0.677789 0.645443 0.123111 -0.486474
H12   H     H_    0.742925 0.578580 0.934009 0.219467
H13   H     H_    0.681331 0.740609 0.919291 0.202958
H14   H     H_    0.743567 0.577202 0.184014 0.214149
H15   H     H_    0.683817 0.739592 0.170678 0.200478
N3    N     N_R   0.607668 0.124328 0.281403 0.132106
O9    O     O_R   0.695107 0.207017 0.313096 -0.354131
O10   O     O_R   0.577440 0.082421 0.150529 -0.399302

loop_
_geom_bond_atom_site_label_1
_geom_bond_atom_site_label_2
_geom_bond_distance
_ccdc_geom_bond_type
O4    Cu2   1.948064 S    
N3    O10   1.301567 A    
C9    C10   1.396964 A    
C3    C13   1.445495 S    
C14   C15   1.493010 S    
Cu2   O8    1.944913 S    
C6    C8    1.451758 S    
Cu1   O7    1.948066 S    
H3    C7    1.087318 S    
C21   H13   1.111747 S    
C22   H15   1.110632 S    
C20   C21   1.489205 S    
C19   N2    1.369142 A    
C5    C6    1.335722 D    
C1    C10   1.453679 S    
C16   H8    1.112322 S    
C17   C22   1.491758 S    
C21   C22   1.518235 S    
C15   H6    1.112336 S    
C13   C14   1.391515 A    
C12   H5    1.082530 S    
C18   H10   1.081355 S    
H1    C8    1.085764 S    
O3    Cu1   1.944912 S    
O4    C2    1.295214 A    
C9    C14   1.372716 A    
O3    C2    1.292451 A    
C19   H11   1.080643 S    
C18   C19   1.420528 A    
N1    C18   1.369256 A    
C21   H12   1.111507 S    
O2    C1    1.291761 A    
C15   C16   1.519332 S    
O7    C4    1.294386 A    
C16   H9    1.111562 S    
C10   C11   1.421853 A    
Cu1   N2    2.016163 S    
N2    C20   1.363316 A    
C4    C7    1.455286 S    
Cu1   Cu2   2.683964 S    
C7    C8    1.334707 D    
H2    C6    1.087861 S    
Cu2   N1    2.016779 S    
C22   H14   1.108971 S    
Cu1   O5    1.961037 S    
C2    C5    1.455093 S    
O5    C3    1.291695 A    
C11   N3    1.436767 S    
C17   N1    1.365219 A    
C17   C20   1.405528 A    
C15   H7    1.112067 S    
N3    O9    1.301584 A    
C11   C12   1.402598 A    
O1    Cu1   1.961140 S    
C12   C13   1.404236 A    
Cu2   O6    1.961141 S    
O2    Cu2   1.961036 S    
C5    H4    1.087353 S    
O8    C4    1.293467 A    
O1    C1    1.295420 A    
O6    C3    1.292500 A    
C9    C16   1.494685 S    
