data_mof_unit_31742.cif
_audit_creation_date              2012-12-11T18:37:13-0500
_audit_creation_method            fapswitch 2.2
_symmetry_space_group_name_H-M    P1
_symmetry_Int_Tables_number       1
_space_group_crystal_system       triclinic
_cell_length_a                    8.261984
_cell_length_b                    14.282163
_cell_length_c                    26.949418
_cell_angle_alpha                 93.2347
_cell_angle_beta                  92.770855
_cell_angle_gamma                 88.448676
_cell_volume                      3170.2809262

loop_
_atom_site_label
_atom_site_type_symbol
_atom_type_description
_atom_site_fract_x
_atom_site_fract_y
_atom_site_fract_z
_atom_type_partial_charge
Ba1   Ba    Ba6+2 0.849670 0.455410 0.524690 1.644673
Ba2   Ba    Ba6+2 0.340150 0.544510 0.475310 1.652201
C1    C     C_3   0.694953 0.114065 0.662736 -0.013653
C2    C     C_R   0.924948 0.590757 0.175261 0.574283
C3    C     C_2   0.766487 0.560103 0.270240 -0.083169
C4    C     C_3   0.112458 0.255464 0.668268 0.388092
C5    C     C_3   0.751677 0.591748 0.324144 -0.046553
C6    C     C_1   0.980092 0.484819 0.343492 0.033019
C7    C     C_2   0.020308 0.479675 0.295869 -0.104482
C8    C     C_2   0.905555 0.516568 0.255654 0.194926
C9    C     C_R   0.023296 0.504728 0.101305 -0.079611
C10   C     C_R   0.045969 0.424847 0.129499 -0.036401
C11   C     C_R   0.107381 0.342107 0.106180 -0.059026
C12   C     C_3   0.662977 0.211146 0.642042 0.338912
C13   C     C_R   0.962071 0.587961 0.124577 -0.024790
C14   C     C_2   0.851911 0.533259 0.359351 -0.291046
C15   C     C_2   0.354937 0.479631 0.641271 -0.286362
C16   C     C_3   0.056926 0.239253 0.720162 -0.253752
C17   C     C_R   0.168342 0.415378 0.975816 0.019399
C18   C     C_R   0.069313 0.579146 0.970333 0.019504
C19   C     C_R   0.138092 0.495976 0.947682 0.052438
C20   C     C_R   0.240598 0.335316 0.951564 -0.096257
C21   C     C_R   0.279783 0.334152 0.901748 -0.050431
C22   C     C_R   0.248906 0.412586 0.873468 -0.037283
C23   C     C_3   0.511798 0.686246 0.624610 0.271877
C24   C     C_R   0.177448 0.493580 0.896330 -0.077638
C25   C     C_R   0.146399 0.572516 0.867918 -0.039235
C26   C     C_R   0.187930 0.569897 0.817525 0.604981
C27   C     C_R   0.288660 0.411705 0.822822 0.580786
C28   C     C_3   0.164406 0.257889 0.423818 0.308825
C29   C     C_2   0.454152 0.470455 0.730211 -0.038274
C30   C     C_3   0.501348 0.480599 0.677162 -0.031308
C31   C     C_1   0.217143 0.518081 0.655817 0.025743
C32   C     C_2   0.175853 0.515091 0.702897 -0.101039
C33   C     C_2   0.299591 0.489285 0.743124 0.207061
C34   C     C_3   0.451876 0.726363 0.674202 -0.313473
C35   C     C_R   0.126507 0.417550 0.026925 0.020212
C36   C     C_R   0.061665 0.501577 0.049839 0.050425
C37   C     C_R   0.034842 0.582690 0.021906 0.020872
C38   C     C_R   0.146838 0.338400 0.056289 -0.097000
C39   C     C_R   0.939784 0.667714 0.096881 -0.058957
C40   C     C_3   0.167907 0.152079 0.413235 -0.380476
C41   C     C_R   0.036814 0.656276 0.940235 -0.099242
C42   C     C_R   0.074945 0.652970 0.890444 -0.047888
C43   C     C_R   0.975241 0.665360 0.046942 -0.100376
C44   C     C_R   0.690496 0.064945 0.474644 -0.035327
C45   C     C_3   0.085254 0.746702 0.335160 0.329748
C46   C     C_R   0.510508 0.198642 0.502094 0.046939
C47   C     C_R   0.374017 0.230168 0.527413 -0.287879
C48   C     C_R   0.275427 0.167238 0.548600 0.024070
C49   C     C_R   0.320879 0.072671 0.548978 -0.134957
C50   C     C_R   0.461775 0.039822 0.525741 -0.008818
C51   C     C_R   0.555626 0.101876 0.500441 -0.029997
C52   C     C_3   0.953931 0.744708 0.625338 0.432514
C53   C     C_R   0.642820 0.908745 0.501893 -0.023568
C54   C     C_R   0.737042 0.969820 0.476243 0.001949
C55   C     C_R   0.688242 0.812896 0.502046 0.010455
C56   C     C_3   0.099263 0.773598 0.281807 -0.313778
C57   C     C_R   0.826500 0.779489 0.478477 -0.274070
C58   C     C_R   0.924046 0.839924 0.455344 0.024101
C59   C     C_R   0.878547 0.935001 0.453388 -0.143235
C60   C     C_R   0.506521 0.944956 0.526586 -0.039675
C61   C     C_3   0.954908 0.846770 0.611589 -0.340133
C62   C     C_3   0.658463 0.339615 0.379668 0.299716
C63   C     C_3   0.659265 0.315900 0.323953 -0.362487
C64   C     C_3   0.552701 0.795068 0.353982 0.349143
C65   C     C_3   0.514841 0.890662 0.333475 -0.361916
C66   C     C_R   0.005643 0.429060 0.180306 0.598009
H1    H     H_    0.764906 0.225200 0.618607 0.082128
H2    H     H_    0.573699 0.400156 0.386244 0.080320
H3    H     H_    0.825655 0.103615 0.672442 0.112016
H4    H     H_    0.749244 0.258469 0.316029 0.133922
H5    H     H_    0.691498 0.378250 0.304213 0.070346
H6    H     H_    0.537102 0.293377 0.309819 0.133742
H7    H     H_    0.551759 0.208710 0.617551 -0.043809
H8    H     H_    0.660667 0.059041 0.633621 0.039736
H9    H     H_    0.408703 0.653225 0.603124 0.057141
H10   H     H_    0.608703 0.632541 0.631414 0.023737
H11   H     H_    0.353329 0.779303 0.667696 0.159058
H12   H     H_    0.253537 0.132584 0.383624 0.129449
H13   H     H_    0.404682 0.670220 0.695793 0.079001
H14   H     H_    0.552219 0.760671 0.696522 0.161208
H15   H     H_    0.107263 0.171487 0.733138 0.152318
H16   H     H_    0.164955 0.683963 0.341007 0.097174
H17   H     H_    0.957601 0.729580 0.340602 -0.050472
H18   H     H_    0.216342 0.807577 0.277241 0.143321
H19   H     H_    0.094780 0.709504 0.256738 0.123161
H20   H     H_    0.998513 0.822709 0.271278 0.123205
H21   H     H_    0.686087 0.782766 0.353232 -0.060128
H22   H     H_    0.515432 0.797233 0.393136 0.071520
H23   H     H_    0.207223 0.115807 0.447179 0.063699
H24   H     H_    0.586117 0.944907 0.355355 0.070006
H25   H     H_    0.384178 0.909049 0.336165 0.150809
H26   H     H_    0.060787 0.324317 0.657881 0.096116
H27   H     H_    0.547322 0.890169 0.293951 0.124585
H28   H     H_    0.137667 0.450358 0.285960 0.130310
H29   H     H_    0.125596 0.279144 0.126581 0.122761
H30   H     H_    0.548052 0.455985 0.758528 0.101721
H31   H     H_    0.335174 0.270825 0.885375 0.135962
H32   H     H_    0.270692 0.271976 0.970143 0.073764
H33   H     H_    0.191790 0.271440 0.041791 0.071734
H34   H     H_    0.044866 0.128387 0.400799 0.118499
H35   H     H_    0.676682 0.585204 0.243072 0.118084
H36   H     H_    0.894340 0.733229 0.113833 0.123993
H37   H     H_    0.980000 0.720816 0.953690 0.075544
H38   H     H_    0.047694 0.714479 0.869481 0.141667
H39   H     H_    0.052216 0.531205 0.712746 0.142619
H40   H     H_    0.956084 0.730737 0.029336 0.072072
H41   H     H_    0.836677 0.547842 0.398828 0.082990
H42   H     H_    0.366060 0.452585 0.603088 0.078361
H43   H     H_    0.338624 0.303706 0.527998 0.067424
H44   H     H_    0.244856 0.024716 0.566515 0.081209
H45   H     H_    0.850949 0.711351 0.604700 0.046525
H46   H     H_    0.953942 0.981437 0.434709 0.072242
H47   H     H_    0.862050 0.706129 0.479796 0.074726
H48   H     H_    0.761812 0.109030 0.453412 0.099433
H49   H     H_    0.097853 0.297082 0.746573 0.122810
H50   H     H_    0.432949 0.900152 0.546769 0.108174
H51   H     H_    0.923180 0.238417 0.720229 0.131833
H52   H     H_    0.288803 0.281295 0.433340 0.004182
H53   H     H_    0.085631 0.274989 0.455467 0.066381
H54   H     H_    0.333025 0.189483 0.666874 0.218931
H55   H     H_    0.323820 0.292415 0.639713 0.111063
H56   H     H_    0.054690 0.884220 0.632714 0.141404
H57   H     H_    0.837617 0.882428 0.620172 0.114557
H58   H     H_    0.973695 0.850530 0.571268 0.074713
H59   H     H_    0.782038 0.358444 0.393454 0.012014
I1    I     I_    0.929755 0.742887 0.704136 -0.426004
I2    I     I_    0.569693 0.090284 0.728550 -0.361904
N1    N     N_R   0.945986 0.511700 0.203012 -0.422004
N2    N     N_R   0.256761 0.489747 0.795163 -0.433195
N3    N     N_3   0.288607 0.258444 0.670550 -0.453635
O1    O     O_2   0.918080 0.549800 0.616640 -0.482610
O2    O     O_2   0.261074 0.833947 0.457265 -0.479845
O3    O     O_3   0.133218 0.822034 0.367669 -0.607695
O4    O     O_3   0.150070 0.549720 0.556460 -0.457506
O5    O     O_3   0.546340 0.387390 0.478340 -0.486712
O6    O     O_2   0.398940 0.728800 0.517420 -0.433882
O7    O     O_3   0.575038 0.759472 0.599836 -0.653522
O8    O     O_2   0.418049 0.543802 0.321394 -0.496942
O9    O     O_3   0.467911 0.725297 0.325066 -0.595455
O10   O     O_2   0.021576 0.358638 0.203967 -0.595895
O11   O     O_2   0.351204 0.341230 0.803362 -0.563799
O12   O     O_3   0.609285 0.260950 0.403161 -0.640077
O13   O     O_2   0.874609 0.664496 0.194732 -0.620125
O14   O     O_2   0.165647 0.639904 0.793825 -0.560376
O15   O     O_3   0.658250 0.379560 0.591530 -0.492063
O16   O     O_2   0.828348 0.425811 0.674127 -0.508506
O17   O     O_3   0.099528 0.700895 0.611255 -0.632960
O18   O     O_3   0.646528 0.281327 0.680597 -0.573191
O19   O     O_2   0.790750 0.271170 0.482550 -0.470403
O20   O     O_3   0.062300 0.331660 0.568480 -0.493742
O21   O     O_2   0.939074 0.164741 0.543007 -0.496679
O22   O     O_3   0.057547 0.182087 0.634835 -0.630086
O23   O     O_2   0.271610 0.450170 0.383330 -0.460542
O24   O     O_3   0.039630 0.450200 0.443530 -0.496148
O25   O     O_3   0.531440 0.620360 0.408460 -0.476406
O26   O     O_3   0.104569 0.300261 0.380988 -0.623899
O27   O     O_3   0.643350 0.612530 0.521650 -0.475728
O28   O     O_3   0.127390 0.668260 0.431510 -0.486010
P1    P     P_3+3 0.090020 0.577590 0.608380 1.008641
P2    P     P_3+3 0.614340 0.285150 0.467650 0.971610
P3    P     P_3+3 0.082815 0.210547 0.573186 0.916130
P4    P     P_3+3 0.099670 0.422330 0.391610 0.992563
P5    P     P_3+3 0.111553 0.791032 0.428817 0.962678
P6    P     P_3+3 0.657896 0.392664 0.656275 0.971647
P7    P     P_3+3 0.581151 0.728824 0.536169 0.939239
P8    P     P_3+3 0.540873 0.616208 0.343946 0.942716

loop_
_geom_bond_atom_site_label_1
_geom_bond_atom_site_label_2
_ccdc_geom_bond_type
O8    P8    D    
C21   H31   S    
C53   C54   A    
C3    H35   S    
C40   H12   S    
Ba2   O23   S    
C30   P6    S    
H55   N3    S    
C9    C36   A    
O16   P6    D    
C1    H3    S    
C5    P8    S    
C56   H19   S    
C61   H56   S    
C64   H22   S    
C64   O9    S    
C27   N2    Am   
C66   N1    Am   
C10   C66   A    
C24   C25   A    
C49   H44   S    
O21   P3    D    
C23   H9    S    
C32   H39   S    
C45   H17   S    
C17   C19   A    
C22   C24   A    
C32   C33   S    
C35   C38   A    
C36   C37   A    
C55   C57   A    
C46   P2    S    
C52   C61   S    
C27   O11   D    
C52   H45   S    
C40   H34   S    
C23   O7    S    
C63   H5    S    
Ba1   O20   S    
Ba1   Ba2   S    
C41   H37   S    
C29   H30   S    
C44   H48   S    
C57   H47   S    
C22   C27   A    
C11   C38   A    
C17   C35   A    
C38   H33   S    
C9    C13   A    
C25   C42   A    
C34   H14   S    
C6    C7    D    
C4    H26   S    
C21   C22   A    
C66   O10   D    
C62   H2    S    
C52   O17   S    
Ba1   O4    S    
C7    C8    S    
C43   H40   S    
O26   P4    S    
C47   H43   S    
O12   P2    S    
O19   P2    D    
C64   C65   S    
Ba1   P1    S    
C57   C58   A    
C6    C14   D    
C15   H42   S    
C65   H27   S    
C15   C31   D    
Ba1   O1    S    
C56   H18   S    
O25   P8    S    
H54   N3    S    
C19   C24   A    
C14   H41   S    
C16   H15   S    
C64   H21   S    
O4    P1    S    
C46   C51   A    
C4    C16   S    
C20   H32   S    
C49   C50   A    
Ba2   O6    S    
O22   P3    S    
Ba1   O27   S    
C17   C20   A    
C13   C39   A    
C4    N3    S    
C6    P4    S    
Ba2   P4    S    
C3    C5    S    
C18   C37   A    
Ba2   O27   S    
C2    N1    Am   
C62   O12   S    
C48   C49   A    
O28   P5    S    
C52   I1    S    
Ba2   O4    S    
C63   H6    S    
C23   H10   S    
O1    P1    D    
C58   C59   A    
Ba1   O24   S    
C31   P1    S    
C41   C42   A    
C8    N1    S    
C35   C36   A    
O15   P6    S    
C29   C30   S    
C16   H49   S    
C28   H53   S    
C34   H13   S    
C62   H59   S    
C12   O18   S    
C31   C32   D    
O3    P5    S    
O2    P5    D    
C54   C59   A    
C4    O22   S    
C45   H16   S    
C18   C19   A    
O7    P7    S    
C1    H8    S    
C7    H28   S    
C61   H57   S    
C1    C12   S    
C53   C60   A    
C46   C47   A    
Ba1   P2    S    
C53   C55   A    
C12   H1    S    
C29   C33   D    
Ba1   O15   S    
O17   P1    S    
C33   N2    S    
C25   C26   A    
C18   C41   A    
Ba1   O5    S    
C50   C51   A    
C28   O26   S    
C5    C14   S    
O9    P8    S    
Ba2   O24   S    
C45   O3    S    
C48   P3    S    
C1    I2    S    
Ba2   O5    S    
C28   C40   S    
C34   H11   S    
C56   H20   S    
C9    C10   A    
C55   P7    S    
C42   H38   S    
O23   P4    D    
C63   H4    S    
C26   O14   D    
C58   P5    S    
C39   H36   S    
C37   C43   A    
C26   N2    Am   
C62   C63   S    
C2    C13   A    
C3    C8    D    
C50   C60   A    
C12   H7    S    
C45   C56   S    
O5    P2    S    
C28   H52   S    
Ba2   O25   S    
C2    O13   D    
C44   C51   A    
C65   H24   S    
O27   P7    S    
Ba1   O19   S    
C11   H29   S    
C60   H50   S    
O20   P3    S    
C23   C34   S    
C61   H58   S    
C10   C11   A    
O24   P4    S    
Ba2   O28   S    
C47   C48   A    
C44   C54   A    
C59   H46   S    
C65   H25   S    
C15   C30   S    
C39   C43   A    
C20   C21   A    
O6    P7    D    
C16   H51   S    
C40   H23   S    
O18   P6    S    
