data_mof_unit_57649.cif
_audit_creation_date              2012-12-11T15:29:48-0500
_audit_creation_method            fapswitch 2.2
_symmetry_space_group_name_H-M    P1
_symmetry_Int_Tables_number       1
_space_group_crystal_system       triclinic
_cell_length_a                    13.55761
_cell_length_b                    13.541536
_cell_length_c                    27.548026
_cell_angle_alpha                 90.095521
_cell_angle_beta                  90.068647
_cell_angle_gamma                 60.00108
_cell_volume                      4380.02173422

loop_
_atom_site_label
_atom_site_type_symbol
_atom_type_description
_atom_site_fract_x
_atom_site_fract_y
_atom_site_fract_z
_atom_type_partial_charge
C1    C     C_R   0.619660 0.099669 0.570211 0.568452
C2    C     C_1   0.657706 0.689032 0.655222 0.017845
C3    C     C_3   0.075187 0.183235 0.734406 -0.105088
C4    C     C_R   0.600957 0.776889 0.567725 0.569137
C5    C     C_3   0.139752 0.089313 0.772549 0.229961
C6    C     C_1   0.095028 0.203119 0.900535 0.034002
C7    C     C_1   0.236871 0.134573 0.617941 0.040614
C8    C     C_3   0.082388 0.271055 0.768918 -0.143392
C9    C     C_3   0.145878 0.175097 0.806702 0.061917
C10   C     C_3   0.198369 0.241057 0.746281 0.052212
C11   C     C_3   0.191361 0.153818 0.712515 -0.057319
C12   C     C_1   0.636787 0.721089 0.613781 0.050911
C13   C     C_3   0.259630 0.146788 0.784224 0.238641
C14   C     C_3   0.256021 0.057405 0.750217 -0.052171
C15   C     C_1   0.121695 0.186575 0.858543 0.035896
C16   C     C_R   0.279217 0.120880 0.569535 0.562638
C17   C     C_1   0.213202 0.143462 0.660339 0.003941
C18   C     C_3   0.655427 0.249035 0.737063 0.275438
C19   C     C_3   0.565144 0.268064 0.775050 0.199349
C20   C     C_1   0.690045 0.207391 0.902350 0.039813
C21   C     C_1   0.631701 0.125783 0.619277 0.028955
C22   C     C_3   0.748731 0.162263 0.770495 0.242777
C23   C     C_3   0.727741 0.554959 0.768555 0.080865
C24   C     C_3   0.658678 0.182492 0.809047 0.076252
C25   C     C_3   0.738247 0.063591 0.747738 -0.155351
C26   C     C_3   0.642622 0.152658 0.714392 -0.075915
C27   C     C_3   0.646131 0.086300 0.786171 0.231241
C28   C     C_R   0.621947 0.100388 0.431724 0.585948
C29   C     C_3   0.549409 0.172047 0.752336 -0.063459
C30   C     C_1   0.671909 0.195927 0.860696 0.063206
C31   C     C_1   0.637237 0.139872 0.662028 -0.014908
C32   C     C_R   0.623742 0.743476 0.380312 0.059758
C33   C     C_R   0.712396 0.637210 0.364882 0.231081
C34   C     C_3   0.678266 0.656353 0.803845 0.015098
C35   C     C_R   0.726650 0.613862 0.314154 0.283473
C36   C     C_R   0.657998 0.701735 0.281278 0.081980
C37   C     C_R   0.572518 0.807348 0.297964 -0.174036
C38   C     C_R   0.554156 0.826942 0.346948 -0.193947
C39   C     C_R   0.574854 0.701663 0.202495 -0.147928
C40   C     C_R   0.601479 0.776729 0.430802 0.596656
C41   C     C_R   0.579699 0.686285 0.152545 0.032983
C42   C     C_R   0.778039 0.643391 0.153709 -0.002258
C43   C     C_R   0.771078 0.661615 0.204427 0.062012
C44   C     C_R   0.670360 0.684580 0.228656 0.005712
C45   C     C_3   0.617497 0.612715 0.738029 -0.117053
C46   C     C_R   0.685982 0.643152 0.128744 -0.033092
C47   C     C_R   0.215710 0.143698 0.385418 0.005612
C48   C     C_R   0.243819 0.048625 0.355843 -0.141679
C49   C     C_R   0.218694 0.062296 0.306870 -0.094744
C50   C     C_R   0.160517 0.171461 0.286956 0.022546
C51   C     C_R   0.123803 0.267600 0.316493 -0.091665
C52   C     C_R   0.276413 0.121772 0.431782 0.560361
C53   C     C_R   0.149106 0.255328 0.366160 0.045814
C54   C     C_R   0.183856 0.236417 0.206714 -0.118135
C55   C     C_R   0.167825 0.246654 0.156314 0.070293
C56   C     C_3   0.670615 0.669787 0.707740 0.004455
C57   C     C_R   0.059116 0.148050 0.163059 -0.141508
C58   C     C_R   0.075181 0.137970 0.212947 0.057999
C59   C     C_R   0.136601 0.184477 0.234981 -0.020215
C60   C     C_R   0.099290 0.207033 0.134726 -0.008917
C61   C     C_R   0.632242 0.125061 0.381234 0.012868
C62   C     C_R   0.629107 0.225532 0.364704 0.040235
C63   C     C_R   0.629790 0.241585 0.314262 -0.099783
C64   C     C_3   0.781437 0.611148 0.737663 -0.142160
C65   C     C_R   0.630948 0.161294 0.281436 0.031909
C66   C     C_R   0.629372 0.065477 0.298748 -0.058786
C67   C     C_3   0.567466 0.715247 0.773769 -0.129606
C68   C     C_R   0.632890 0.046439 0.347989 -0.134829
C69   C     C_R   0.723915 0.082467 0.201545 0.254603
C70   C     C_R   0.739990 0.100927 0.153082 -0.135939
C71   C     C_R   0.581170 0.295558 0.157845 0.239139
C72   C     C_R   0.567905 0.278271 0.206670 -0.086427
C73   C     C_R   0.640540 0.173804 0.229025 0.014741
C74   C     C_R   0.674597 0.208706 0.131735 -0.030962
C75   C     C_R   0.049310 0.235486 0.948176 0.561386
C76   C     C_3   0.731241 0.713834 0.773561 -0.116623
C77   C     C_R   0.711481 0.562751 0.946510 0.564531
C78   C     C_3   0.621132 0.771298 0.742853 0.084940
C79   C     C_R   0.722345 0.224360 0.949466 0.546766
C80   C     C_R   0.048440 0.242928 0.086273 0.588596
C81   C     C_R   0.708194 0.574845 0.083650 0.572646
C82   C     C_R   0.718517 0.231903 0.086816 0.539004
C83   C     C_1   0.694922 0.611872 0.898895 0.055607
C84   C     C_2   0.231947 0.327316 0.732709 0.561527
C85   C     C_2   0.471507 0.719099 0.126539 0.619964
C86   C     C_2   0.864958 0.662561 0.232140 0.623084
C87   C     C_2   0.875860 0.635144 0.126175 0.607086
C88   C     C_2   0.227192 0.293967 0.127386 0.601024
C89   C     C_1   0.685109 0.639314 0.856715 0.031622
C90   C     C_2   0.559414 0.894040 0.728524 0.571850
C91   C     C_2   0.022768 0.082385 0.240918 0.578279
C92   C     C_2   0.103136 0.359927 0.396449 0.581297
C93   C     C_2   0.628746 0.312272 0.398199 0.588715
C94   C     C_2   0.789014 0.431645 0.781581 0.609737
Cr1   Cr    Cr6+3 0.417550 0.169090 0.500530 1.101006
Cr2   Cr    Cr6+3 0.669180 0.913420 0.499920 1.077282
Cr3   Cr    Cr6+3 0.413260 0.917540 0.499520 1.050993
Cr4   Cr    Cr6+3 0.909770 0.175810 0.018240 1.071072
Cr5   Cr    Cr6+3 0.913300 0.427650 0.016090 1.104505
Cr6   Cr    Cr6+3 0.657770 0.431010 0.016900 1.097003
H1    H     H_    0.776357 0.756980 0.788097 0.142476
H2    H     H_    0.235793 0.266416 0.224155 0.160731
H3    H     H_    0.246743 0.987479 0.284188 0.133880
H4    H     H_    0.006555 0.117154 0.146973 0.174731
H5    H     H_    0.074533 0.351794 0.300647 0.198057
H6    H     H_    0.808967 0.032327 0.133015 0.157539
H7    H     H_    0.632001 0.315174 0.300254 0.171643
H8    H     H_    0.500233 0.346860 0.227307 0.167179
H9    H     H_    0.479558 0.759893 0.788605 0.148260
H10   H     H_    0.626851 0.004333 0.274110 0.178784
H11   H     H_    0.633774 0.970414 0.360498 0.134455
H12   H     H_    0.015001 0.359438 0.777362 0.153328
H13   H     H_    0.571997 0.570041 0.723429 0.158650
H14   H     H_    0.002226 0.195124 0.711923 0.177450
H15   H     H_    0.323021 0.968516 0.742246 0.142438
H16   H     H_    0.328341 0.204702 0.828466 0.344438
H17   H     H_    0.290136 0.390774 0.681158 0.333973
H18   H     H_    0.431232 0.409924 0.760123 0.337523
H19   H     H_    0.585684 0.375857 0.693323 0.306928
H20   H     H_    0.719952 0.957774 0.828933 0.313586
H21   H     H_    0.898283 0.123363 0.750675 0.345913
H22   H     H_    0.856093 0.506889 0.384585 0.355680
H23   H     H_    0.467563 0.175953 0.744183 0.197903
H24   H     H_    0.314979 0.736021 0.128614 0.357084
H25   H     H_    0.815228 0.448926 0.320021 0.347944
H26   H     H_    0.910643 0.743605 0.281005 0.359424
H27   H     H_    0.044179 0.547176 0.112150 0.359637
H28   H     H_    0.296080 0.299545 0.063261 0.340602
H29   H     H_    0.510888 0.012517 0.675832 0.330294
H30   H     H_    0.991834 0.951961 0.245318 0.373450
H31   H     H_    0.048757 0.528419 0.399509 0.354252
H32   H     H_    0.617280 0.466171 0.405592 0.367102
H33   H     H_    0.844435 0.923212 0.198667 0.348711
H34   H     H_    0.809364 0.978828 0.736709 0.132901
H35   H     H_    0.488656 0.384546 0.104231 0.343944
H36   H     H_    0.851795 0.311854 0.834175 0.369755
H37   H     H_    0.114505 0.965220 0.758243 0.316032
H38   H     H_    0.869283 0.566468 0.722762 0.138939
H39   H     H_    0.495361 0.728344 0.221481 0.166070
H40   H     H_    0.519508 0.874867 0.272836 0.121492
H41   H     H_    0.487922 0.909975 0.359111 0.112520
H42   H     H_    0.292492 0.962541 0.369736 0.147573
O1    O     O_R   0.301780 0.195490 0.553940 -0.475432
O2    O     O_R   0.636050 0.541380 0.962520 -0.484476
O3    O     O_R   0.666480 0.323610 0.968170 -0.491588
O4    O     O_R   0.522450 0.158840 0.550250 -0.487704
O5    O     O_R   0.817280 0.156800 0.072180 -0.518498
O6    O     O_R   0.005110 0.187160 0.067410 -0.512421
O7    O     O_R   0.026450 0.340060 0.069950 -0.453782
O8    O     O_R   0.808300 0.527240 0.065170 -0.483001
O9    O     O_R   0.634070 0.548770 0.069460 -0.461729
O10   O     O_R   0.664650 0.330470 0.067300 -0.487951
O11   O     O_3   0.826940 0.344820 0.017080 -0.281943
O12   O     O_R   0.658840 0.818280 0.449970 -0.490256
O13   O     O_R   0.694460 0.003360 0.553820 -0.494254
O14   O     O_R   0.657750 0.819520 0.549120 -0.483265
O15   O     O_R   0.501990 0.803120 0.552700 -0.502192
O16   O     O_R   0.318230 0.023430 0.549370 -0.497762
O17   O     O_R   0.302950 0.194150 0.446980 -0.475810
O18   O     O_R   0.523540 0.157600 0.451100 -0.482944
O19   O     O_R   0.695630 0.002030 0.446860 -0.502092
O20   O     O_3   0.352731 0.130743 0.812138 -0.605697
O21   O     O_2   0.227907 0.394820 0.763229 -0.515368
O22   O     O_R   0.268324 0.329824 0.685543 -0.699979
O23   O     O_R   0.503160 0.801780 0.445740 -0.516046
O24   O     O_3   0.476852 0.374692 0.789770 -0.643420
O25   O     O_3   0.659695 0.334604 0.710513 -0.636416
O26   O     O_3   0.643198 0.001907 0.814205 -0.611003
O27   O     O_3   0.852560 0.155793 0.780486 -0.639113
O28   O     O_3   0.782065 0.560558 0.399612 -0.688927
O29   O     O_2   0.456431 0.758065 0.085426 -0.484940
O30   O     O_R   0.384910 0.709699 0.149798 -0.659455
O31   O     O_3   0.802864 0.507664 0.295651 -0.684343
O32   O     O_2   0.962455 0.582922 0.228783 -0.432278
O33   O     O_R   0.840500 0.753123 0.263591 -0.686743
O34   O     O_R   0.319320 0.022190 0.450230 -0.512831
O35   O     O_2   0.859140 0.707153 0.095555 -0.511421
O36   O     O_R   0.985587 0.543493 0.133726 -0.617387
O37   O     O_2   0.255631 0.357531 0.146516 -0.487783
O38   O     O_R   0.254784 0.262561 0.078752 -0.680068
O39   O     O_2   0.507896 0.965464 0.759458 -0.432787
O40   O     O_R   0.558984 0.927002 0.680480 -0.720598
O41   O     O_2   0.978726 0.120237 0.280406 -0.483704
O42   O     O_R   0.023520 0.986425 0.221741 -0.691667
O43   O     O_2   0.080330 0.357425 0.439212 -0.474857
O44   O     O_R   0.081738 0.462823 0.375501 -0.690075
O45   O     O_3   0.499990 0.000010 0.499990 -0.287091
O46   O     O_2   0.641247 0.294960 0.441918 -0.495663
O47   O     O_R   0.615365 0.414290 0.379479 -0.691475
O48   O     O_3   0.793352 0.978413 0.223384 -0.674184
O49   O     O_3   0.504182 0.399074 0.137849 -0.625157
O50   O     O_2   0.826797 0.361103 0.749130 -0.466079
O51   O     O_R   0.805080 0.397556 0.830157 -0.707775
O52   O     O_3   0.109030 0.009910 0.787669 -0.654293
O53   O     O_R   0.819250 0.149410 0.965240 -0.495701
O54   O     O_R   0.006940 0.180310 0.968270 -0.484235
O55   O     O_R   0.028420 0.332670 0.963010 -0.496067
O56   O     O_R   0.810130 0.520390 0.966030 -0.492506

loop_
_geom_bond_atom_site_label_1
_geom_bond_atom_site_label_2
_ccdc_geom_bond_type
Cr6   O11   S    
C66   C68   A    
H29   O40   S    
C63   C65   A    
C1    C21   S    
C23   C45   S    
C91   O41   D    
C27   C29   S    
C94   O51   S    
H21   O27   S    
C35   C36   A    
C18   C26   S    
C24   C27   S    
C2    C12   T    
C82   O5    A    
Cr1   O45   S    
C13   O20   S    
C79   O3    A    
C64   H38   S    
C78   C90   S    
Cr1   O1    S    
C21   C31   T    
C62   C63   A    
Cr1   O17   S    
C50   C59   S    
H16   O20   S    
C36   C37   A    
C76   C78   S    
C18   C19   S    
C8    H12   S    
C11   C14   S    
C92   O44   S    
Cr2   O13   S    
Cr4   O5    S    
C77   C83   S    
C14   H15   S    
Cr5   O11   S    
C28   O18   A    
C56   C78   S    
Cr2   O19   S    
C86   O33   S    
C42   C46   A    
C55   C88   S    
C1    O13   A    
C9    C13   S    
C6    C15   T    
H37   O52   S    
C67   H9    S    
Cr2   O12   S    
C72   H8    S    
C45   C56   S    
C8    C9    S    
H22   O28   S    
C22   C25   S    
C70   C74   A    
C41   C46   A    
C56   C64   S    
C69   C73   A    
H28   O38   S    
C19   O24   S    
C32   C38   A    
C4    C12   S    
C5    C14   S    
C77   O56   A    
C52   O34   A    
C84   O22   S    
C27   O26   S    
C47   C53   A    
C28   C61   S    
C52   O17   A    
Cr4   O11   S    
H25   O31   S    
C26   C31   S    
Cr6   O9    S    
Cr3   O34   S    
C10   C13   S    
C55   C60   A    
H27   O36   S    
Cr2   O45   S    
C40   O12   A    
C1    O4    A    
C61   C62   A    
C67   C78   S    
C74   C82   S    
C33   O28   S    
H33   O48   S    
C88   O38   S    
C24   C30   S    
C54   C59   A    
C75   O55   A    
H17   O22   S    
C80   O7    A    
C83   C89   T    
Cr5   O8    S    
C39   H39   S    
C85   O30   S    
C16   O16   A    
Cr1   O18   S    
C35   O31   S    
C90   O40   S    
C6    C75   S    
C16   O1    A    
C28   O19   A    
C39   C41   A    
C3    C8    S    
Cr6   O2    S    
C65   C73   S    
C92   O43   D    
C57   C60   A    
C20   C30   T    
C7    C17   T    
C25   C26   S    
C81   O9    A    
C37   H40   S    
C4    O15   A    
Cr6   O10   S    
C91   O42   S    
C86   O32   D    
C68   H11   S    
Cr3   O15   S    
C34   C67   S    
C47   C52   S    
C43   C44   A    
H31   O44   S    
C5    C9    S    
C37   C38   A    
C87   O35   D    
C46   C81   S    
Cr5   O7    S    
C47   C48   A    
H24   O30   S    
C90   O39   D    
C80   O6    A    
Cr6   O3    S    
C51   H5    S    
C23   C34   S    
Cr5   O55   S    
C53   C92   S    
C50   C51   A    
C64   C76   S    
Cr4   O54   S    
C85   O29   D    
C66   H10   S    
C25   H34   S    
H35   O49   S    
C40   O23   A    
C39   C44   A    
C84   O21   D    
C23   C64   S    
C4    O14   A    
C49   C50   A    
C79   O53   A    
C70   H6    S    
C38   H41   S    
C22   C24   S    
C36   C44   S    
C42   C43   A    
C63   H7    S    
C19   C29   S    
H19   O25   S    
H20   O26   S    
C88   O37   D    
C58   C91   S    
C76   H1    S    
Cr3   O45   S    
C57   H4    S    
C54   C55   A    
C60   C80   S    
C20   C79   S    
C18   C22   S    
C43   C86   S    
C54   H2    S    
C7    C16   S    
C72   C73   A    
C3    C5    S    
C3    H14   S    
C11   C17   S    
C69   O48   S    
C49   H3    S    
C71   C74   A    
C18   O25   S    
C45   C67   S    
C93   O47   S    
C25   C27   S    
C41   C85   S    
C23   C94   S    
C71   O49   S    
C32   C33   A    
C19   C24   S    
C58   C59   A    
C34   C89   S    
H36   O51   S    
H30   O42   S    
C75   O54   A    
Cr3   O16   S    
C61   C68   A    
C57   C58   A    
Cr2   O14   S    
Cr4   O6    S    
C48   C49   A    
C29   H23   S    
Cr5   O56   S    
C10   C84   S    
C33   C35   A    
H18   O24   S    
Cr4   O53   S    
C32   C40   S    
C9    C15   S    
C69   C70   A    
C94   O50   D    
C77   O2    A    
C22   O27   S    
C3    C11   S    
C10   C11   S    
C93   O46   D    
C45   H13   S    
C48   H42   S    
C71   C72   A    
C26   C29   S    
C8    C10   S    
C65   C66   A    
C62   C93   S    
Cr3   O23   S    
Cr1   O4    S    
C2    C56   S    
C42   C87   S    
C51   C53   A    
C13   C14   S    
H32   O47   S    
C82   O10   A    
H26   O33   S    
C81   O8    A    
C34   C76   S    
C5    O52   S    
C87   O36   S    
