data_mof_unit_50958.cif
_audit_creation_date              2012-10-26T19:17:56-0400
_audit_creation_method            fapswitch 2.2
_symmetry_space_group_name_H-M    P1
_symmetry_Int_Tables_number       1
_space_group_crystal_system       triclinic
_cell_length_a                    10.906697
_cell_length_b                    12.273528
_cell_length_c                    13.496566
_cell_angle_alpha                 116.526414
_cell_angle_beta                  78.503629
_cell_angle_gamma                 100.967069
_cell_volume                      1573.48025157

loop_
_atom_site_label
_atom_site_type_symbol
_atom_type_description
_atom_site_fract_x
_atom_site_fract_y
_atom_site_fract_z
_atom_type_partial_charge
C1    C     C_R   0.505894 0.853780 0.288465 0.537387
C2    C     C_R   0.266017 0.284973 0.330283 -0.119154
C3    C     C_R   0.282871 0.205834 0.216771 -0.118483
C4    C     C_R   0.737279 0.002278 0.504038 0.557044
C5    C     C_R   0.255380 0.079285 0.181461 -0.123330
C6    C     C_R   0.202199 0.032031 0.259196 -0.092307
C7    C     C_R   0.177102 0.111712 0.372480 0.073247
C8    C     C_R   0.511704 0.263419 0.014577 -0.148770
C9    C     C_R   0.490662 0.227197 0.828280 0.004905
C10   C     C_R   0.488899 0.819100 0.096494 -0.139982
C11   C     C_R   0.479206 0.744185 0.984727 -0.150468
C12   C     C_R   0.680692 0.733124 0.722850 -0.097867
C13   C     C_R   0.477814 0.617983 0.943401 -0.123496
C14   C     C_R   0.478567 0.562320 0.015255 0.034551
C15   C     C_R   0.472721 0.637649 0.131882 0.027869
C16   C     C_R   0.487602 0.145007 0.711262 0.541371
C17   C     C_R   0.484671 0.434166 0.975723 0.030484
C18   C     C_R   0.493144 0.386051 0.051904 0.047846
C19   C     C_R   0.472846 0.458075 0.165215 -0.160170
C20   C     C_R   0.450933 0.577955 0.203724 -0.134016
C21   C     C_R   0.481999 0.351621 0.863531 -0.135264
C22   C     C_R   0.508387 0.183700 0.903293 -0.147076
C23   C     C_R   0.042312 0.940007 0.550900 -0.168192
C24   C     C_R   0.488456 0.768485 0.171349 0.001214
C25   C     C_R   0.697015 0.345802 0.329929 -0.163430
C26   C     C_R   0.330391 0.759595 0.643578 0.046044
C27   C     C_R   0.296077 0.663217 0.675042 -0.170027
C28   C     C_R   0.263366 0.999276 0.497483 0.549486
C29   C     C_R   0.360595 0.559958 0.621512 -0.151394
C30   C     C_R   0.461055 0.552090 0.535509 -0.008614
C31   C     C_R   0.493521 0.653673 0.507005 0.179919
C32   C     C_R   0.530434 0.447873 0.476736 -0.018757
C33   C     C_R   0.629693 0.447335 0.390858 0.023828
C34   C     C_R   0.130473 0.000879 0.497048 -0.032570
C35   C     C_R   0.661385 0.548104 0.366132 -0.182841
C36   C     C_R   0.595151 0.648899 0.423124 -0.099140
C37   C     C_R   0.505909 0.343092 0.498746 0.039302
C38   C     C_R   0.666643 0.244958 0.354571 0.034919
C39   C     C_R   0.671209 0.858122 0.762775 -0.096594
C40   C     C_R   0.746245 0.925932 0.708142 -0.048268
C41   C     C_R   0.829469 0.868022 0.611597 0.052059
C42   C     C_R   0.839387 0.742587 0.573014 -0.098418
C43   C     C_R   0.765347 0.675646 0.628650 -0.109547
C44   C     C_3   0.920227 0.281183 0.502592 -0.282652
C45   C     C_R   0.090392 0.065093 0.447689 -0.023647
C46   C     C_R   0.962115 0.075401 0.460293 0.113681
C47   C     C_R   0.871981 0.006682 0.508709 0.012804
C48   C     C_R   0.913925 0.939211 0.555305 -0.065947
C49   C     C_R   0.214201 0.237946 0.408409 -0.064099
Cu1   Cu    Cu3+1 0.529370 0.098270 0.475420 0.937842
Cu2   Cu    Cu3+1 0.470630 0.901730 0.524580 0.911418
H1    H     H_    0.622816 0.680385 0.764579 0.108832
H2    H     H_    0.476347 0.567056 0.854775 0.092520
H3    H     H_    0.475687 0.784735 0.928978 0.108137
H4    H     H_    0.606479 0.902694 0.836476 0.086514
H5    H     H_    0.410581 0.617104 0.289572 0.164170
H6    H     H_    0.717701 0.165815 0.307897 0.137475
H7    H     H_    0.737888 0.548941 0.301273 0.113909
H8    H     H_    0.772402 0.344457 0.263680 0.094034
H9    H     H_    0.433054 0.335614 0.562909 0.115592
H10   H     H_    0.280005 0.839513 0.685519 0.126952
H11   H     H_    0.329886 0.488050 0.649122 0.089148
H12   H     H_    0.313572 0.242548 0.155853 0.119150
H13   H     H_    0.219220 0.668509 0.741046 0.100232
H14   H     H_    0.626759 0.720451 0.397083 0.191734
H15   H     H_    0.739528 0.023109 0.740687 0.099263
H16   H     H_    0.904319 0.696669 0.499647 0.104155
H17   H     H_    0.772961 0.578981 0.598257 0.109497
H18   H     H_    0.073486 0.892022 0.590476 0.139064
H19   H     H_    0.195628 0.300202 0.495693 0.095077
H20   H     H_    0.288222 0.382975 0.357347 0.106955
H21   H     H_    0.958762 0.141405 0.341432 0.247369
H22   H     H_    0.985492 0.342216 0.469683 0.115977
H23   H     H_    0.269953 0.018373 0.093453 0.103738
H24   H     H_    0.946468 0.297963 0.584204 0.136621
H25   H     H_    0.823762 0.306391 0.517354 0.175758
H26   H     H_    0.173467 0.934464 0.230463 0.100177
H27   H     H_    0.518910 0.088262 0.876091 0.118288
H28   H     H_    0.466359 0.419623 0.224563 0.118841
H29   H     H_    0.524148 0.228195 0.072217 0.109161
H30   H     H_    0.469384 0.380702 0.802273 0.112411
H31   H     H_    0.495449 0.917392 0.124553 0.134532
N1    N     N_R   0.573890 0.246290 0.438210 -0.238767
N2    N     N_R   0.426890 0.754320 0.561170 -0.238927
N3    N     N_2   0.924116 0.153966 0.422238 -0.490758
O1    O     O_R   0.536940 0.972510 0.318130 -0.502602
O2    O     O_R   0.487330 0.806530 0.359650 -0.546038
O3    O     O_R   0.705160 0.082990 0.479250 -0.466778
O4    O     O_R   0.655550 0.917010 0.520760 -0.522788
O5    O     O_R   0.512670 0.193470 0.640350 -0.522403
O6    O     O_R   0.463060 0.027490 0.681870 -0.513236
O7    O     O_R   0.344450 0.082990 0.479240 -0.498125
O8    O     O_R   0.294840 0.917010 0.520750 -0.517559

loop_
_geom_bond_atom_site_label_1
_geom_bond_atom_site_label_2
_ccdc_geom_bond_type
C1    O2    A    
C16   O5    A    
C38   N1    A    
C27   C29   A    
C41   C42   A    
C23   H18   S    
C19   C20   A    
C20   H5    S    
H21   N3    S    
C45   C46   A    
C26   C27   A    
C35   H7    S    
C7    C45   S    
C26   H10   S    
C12   C43   A    
C30   C31   A    
C9    C22   A    
C18   C19   A    
C5    H23   S    
C44   H25   S    
Cu2   O6    S    
C29   H11   S    
Cu1   O5    S    
C39   H4    S    
C35   C36   A    
C43   H17   S    
C8    C22   A    
Cu1   O3    S    
C46   N3    S    
C28   C34   S    
C40   H15   S    
C13   C14   A    
C14   C17   A    
C12   H1    S    
Cu1   N1    S    
C17   C18   A    
C13   H2    S    
C15   C20   A    
C7    C49   A    
C10   C11   A    
Cu2   O2    S    
C39   C40   A    
C36   H14   S    
C6    H26   S    
C10   C24   A    
C10   H31   S    
C8    C18   A    
C31   N2    A    
C28   O8    A    
C44   H24   S    
C29   C30   A    
C2    C49   A    
C25   C38   A    
C38   H6    S    
C47   C48   A    
C23   C34   A    
Cu1   Cu2   S    
C28   O7    A    
C34   C45   A    
C32   C37   A    
C19   H28   S    
C22   H27   S    
C11   H3    S    
Cu2   O8    S    
Cu1   O7    S    
C40   C41   A    
C21   H30   S    
C49   H19   S    
C42   H16   S    
C42   C43   A    
C44   N3    S    
C4    O4    A    
C1    O1    A    
C46   C47   A    
C15   C24   A    
C26   N2    A    
C23   C48   A    
C14   C15   A    
C9    C16   S    
C3    C5    A    
C6    C7    A    
C4    O3    A    
C3    H12   S    
C32   C33   A    
C12   C39   A    
C2    C3    A    
Cu2   O4    S    
C30   C32   A    
C11   C13   A    
C9    C21   A    
C5    C6    A    
C33   C35   A    
C41   C48   S    
C44   H22   S    
C17   C21   A    
C37   H9    S    
C27   H13   S    
Cu1   O1    S    
C16   O6    A    
C1    C24   S    
C8    H29   S    
C31   C36   A    
C37   N1    A    
C25   H8    S    
Cu2   N2    S    
C2    H20   S    
C25   C33   A    
C4    C47   S    
