data_mof_unit_55360.cif
_audit_creation_date              2012-12-10T17:29:22-0500
_audit_creation_method            fapswitch 2.2
_symmetry_space_group_name_H-M    P1
_symmetry_Int_Tables_number       1
_space_group_crystal_system       triclinic
_cell_length_a                    12.0431
_cell_length_b                    12.849864
_cell_length_c                    13.09801
_cell_angle_alpha                 86.528583
_cell_angle_beta                  113.9568
_cell_angle_gamma                 93.538253
_cell_volume                      1847.3972047

loop_
_atom_site_label
_atom_site_type_symbol
_atom_type_description
_atom_site_fract_x
_atom_site_fract_y
_atom_site_fract_z
_atom_type_partial_charge
C1    C     C_R   0.475271 0.299847 0.493510 0.978875
C2    C     C_R   0.616541 0.524583 0.830376 -0.223416
C3    C     C_R   0.536544 0.811366 0.503427 -0.038520
C4    C     C_R   0.568849 0.505813 0.708912 0.904849
C5    C     C_R   0.456649 0.188860 0.481516 -0.088360
C6    C     C_R   0.335739 0.032772 0.406628 -0.291973
C7    C     C_R   0.343497 0.140834 0.413051 -0.026397
C8    C     C_R   0.558964 0.129920 0.537724 -0.266418
C9    C     C_R   0.552407 0.024078 0.525565 0.172554
C10   C     C_R   0.439629 0.975039 0.460563 0.189599
C11   C     C_R   0.432587 0.868677 0.449802 -0.259814
C12   C     C_R   0.556858 0.527217 0.985961 0.055193
C13   C     C_R   0.649444 0.859761 0.565258 -0.217546
C14   C     C_R   0.657274 0.966634 0.576992 -0.186951
C15   C     C_R   0.008967 0.603285 0.398795 -0.248541
C16   C     C_R   0.522473 0.700316 0.501156 0.840365
C17   C     C_R   0.128877 0.593044 0.408721 -0.032403
C18   C     C_R   0.158188 0.454231 0.543722 0.496624
C19   C     C_R   0.037928 0.462506 0.536834 -0.054599
C20   C     C_R   0.962228 0.537709 0.463082 0.065057
C21   C     C_R   0.841632 0.544984 0.455711 -0.106785
C22   C     C_R   0.872297 0.407800 0.592291 0.509252
C23   C     C_R   0.534186 0.554565 0.874216 0.100519
C24   C     C_R   0.991201 0.397793 0.601594 -0.276684
C25   C     C_R   0.432572 0.503938 0.290926 0.890267
C26   C     C_R   0.266353 0.602808 0.995029 -0.174238
C27   C     C_R   0.391388 0.517506 0.170433 -0.040648
C28   C     C_R   0.738481 0.503505 0.905321 -0.101529
C29   C     C_R   0.767493 0.492829 0.021433 0.014639
C30   C     C_R   0.675003 0.498685 0.059170 -0.210815
C31   C     C_2   0.233765 0.198408 0.341608 0.466976
C32   C     C_2   0.835807 0.497808 0.863841 0.435307
C33   C     C_2   0.894128 0.478912 0.105740 0.452104
C34   C     C_R   0.462322 0.535194 0.022349 0.091445
C35   C     C_R   0.355592 0.588030 0.954484 0.176085
C36   C     C_R   0.342128 0.628429 0.849267 -0.229636
C37   C     C_R   0.430438 0.612343 0.809688 -0.154882
C38   C     C_R   0.472026 0.492397 0.125444 -0.244673
C39   C     C_R   0.285814 0.570028 0.104331 -0.165250
Cl1   Cl    Cl    0.822366 0.324268 0.676962 -0.575222
Cl2   Cl    Cl    0.252242 0.358136 0.633620 -0.590762
H1    H     H_    0.221691 0.589402 0.138340 0.146371
H2    H     H_    0.263343 0.672257 0.797442 0.145593
H3    H     H_    0.185012 0.644085 0.944443 0.134691
H4    H     H_    0.545349 0.442428 0.174827 0.164631
H5    H     H_    0.700377 0.490658 0.148247 0.175732
H6    H     H_    0.418519 0.648796 0.729475 0.163218
H7    H     H_    0.345870 0.830115 0.400698 0.145746
H8    H     H_    0.144222 0.161886 0.322546 0.071988
H9    H     H_    0.839348 0.552459 0.798670 0.072256
H10   H     H_    0.971502 0.502911 0.086388 0.093085
H11   H     H_    0.729844 0.814695 0.607398 0.154964
H12   H     H_    0.250002 0.994055 0.355407 0.131798
H13   H     H_    0.744331 0.004074 0.626583 0.164681
H14   H     H_    0.645023 0.166744 0.590221 0.215503
H15   H     H_    0.782568 0.602352 0.398852 0.145207
H16   H     H_    0.953210 0.661957 0.340979 0.142074
H17   H     H_    0.045826 0.339152 0.660105 0.232520
H18   H     H_    0.163620 0.643955 0.358645 0.127024
N1    N     N_R   0.798200 0.480260 0.519790 -0.134855
N2    N     N_R   0.201820 0.519740 0.480210 -0.121451
O1    O     O_R   0.579910 0.341070 0.505280 -0.586097
O2    O     O_2   0.912483 0.431831 0.901446 -0.520414
O3    O     O_2   0.913692 0.441149 0.199004 -0.562527
O4    O     O_R   0.388440 0.353740 0.492580 -0.533061
O5    O     O_R   0.643280 0.490550 0.663120 -0.595460
O6    O     O_R   0.451810 0.503220 0.650420 -0.569628
O7    O     O_R   0.611560 0.646260 0.507420 -0.634232
O8    O     O_R   0.420090 0.658930 0.494720 -0.647336
O9    O     O_R   0.548190 0.496780 0.349580 -0.629894
O10   O     O_R   0.356720 0.509450 0.336880 -0.590353
O11   O     O_2   0.241513 0.283352 0.297440 -0.543073
Zn1   Zn    Zn3+2 0.627850 0.491540 0.508480 0.985187
Zn2   Zn    Zn3+2 0.372150 0.508460 0.491520 1.022463

loop_
_geom_bond_atom_site_label_1
_geom_bond_atom_site_label_2
_ccdc_geom_bond_type
C35   C36   A    
C1    O1    A    
C26   H3    S    
C12   C23   A    
C1    C5    S    
C36   C37   A    
C34   C35   A    
C22   N1    A    
C26   C39   A    
C27   C38   A    
C29   C33   S    
N1    Zn1   S    
C18   C19   A    
C38   H4    S    
C17   N2    A    
C19   C20   A    
C27   C39   A    
C8    C9    A    
C1    O4    A    
O1    Zn1   S    
C25   O10   A    
C37   H6    S    
C9    C10   A    
C3    C13   A    
C13   C14   A    
C15   H16   S    
C21   H15   S    
C11   H7    S    
C31   H8    S    
C8    H14   S    
C39   H1    S    
C15   C20   A    
C7    C31   S    
C28   C32   S    
C21   N1    A    
C18   Cl2   S    
C5    C7    A    
O7    Zn1   S    
C23   C37   A    
O5    Zn1   S    
O4    Zn2   S    
C2    C4    S    
C9    C14   A    
C29   C30   A    
C4    O6    A    
C13   H11   S    
C22   Cl1   S    
O9    Zn1   S    
O8    Zn2   S    
O6    Zn2   S    
C32   H9    S    
C17   H18   S    
C16   O7    A    
C31   O11   D    
C14   H13   S    
C22   C24   A    
C5    C8    A    
C25   C27   S    
C6    H12   S    
C12   C34   A    
C15   C17   A    
C28   C29   A    
C12   C30   A    
C34   C38   A    
C30   H5    S    
C16   O8    A    
C32   O2    D    
C6    C10   A    
O10   Zn2   S    
C18   N2    A    
C6    C7    A    
N2    Zn2   S    
C33   H10   S    
C19   C24   A    
C4    O5    A    
C33   O3    D    
C3    C11   A    
C10   C11   A    
C26   C35   A    
C20   C21   A    
C24   H17   S    
C2    C23   A    
C36   H2    S    
C2    C28   A    
C25   O9    A    
C3    C16   S    
