data_mof_unit_63985.cif
_audit_creation_date              2013-03-05T16:39:00-0500
_audit_creation_method            fapswitch 2.2
_symmetry_space_group_name_H-M    P1
_symmetry_Int_Tables_number       1
_space_group_crystal_system       triclinic
_cell_length_a                    15.994616
_cell_length_b                    14.764835
_cell_length_c                    23.633681
_cell_angle_alpha                 90.000733
_cell_angle_beta                  90.00068
_cell_angle_gamma                 90.000018
_cell_volume                      5581.27967287

loop_
_atom_site_label
_atom_site_type_symbol
_atom_site_description
_atom_site_fract_x
_atom_site_fract_y
_atom_site_fract_z
_atom_type_partial_charge
O1    O     O_R   0.380310 0.575320 0.500010 -0.569094
O2    O     O_R   0.619690 0.424680 0.499990 -0.568188
O3    O     O_R   0.619690 0.575320 0.499990 -0.569159
O4    O     O_R   0.380310 0.424680 0.500010 -0.568144
C1    C     C_R   0.340839 0.499999 0.500020 0.827507
C2    C     C_R   0.659161 0.499999 0.499981 0.827366
O5    O     O_R   0.499980 0.575360 0.417880 -0.574759
O6    O     O_R   0.500020 0.424640 0.582120 -0.575220
O7    O     O_R   0.500020 0.575360 0.582120 -0.574539
O8    O     O_R   0.499980 0.424640 0.417880 -0.575002
C3    C     C_R   0.500929 0.500006 0.390578 0.830891
C4    C     C_R   0.499065 0.500007 0.609421 0.830899
Cu1   Cu    Cu3+1 0.500000 0.589220 0.500000 0.971869
Cu2   Cu    Cu3+1 0.500000 0.410780 0.500000 0.974261
C5    C     C_R   0.572418 0.494183 0.880487 0.593007
C6    C     C_R   0.427539 0.494205 0.119512 0.593033
N1    N     N_R   0.497780 0.497903 0.852483 -0.454063
N2    N     N_R   0.502177 0.497910 0.147516 -0.454074
C7    C     C_R   0.423486 0.504902 0.880975 0.633076
C8    C     C_R   0.576473 0.504895 0.119023 0.632999
C9    C     C_R   0.421559 0.501803 0.940742 -0.087868
C10   C     C_R   0.578399 0.501792 0.059257 -0.087837
C11   C     C_R   0.498955 0.499621 0.970069 -0.050163
C12   C     C_R   0.501003 0.499623 0.029930 -0.050162
C13   C     C_R   0.574563 0.497348 0.939646 -0.058795
C14   C     C_R   0.425394 0.497368 0.060352 -0.058821
C15   C     C_R   0.346120 0.500590 0.972439 0.300759
C16   C     C_R   0.653837 0.500560 0.027559 0.300758
C17   C     C_R   0.349085 0.497546 0.031337 -0.169616
C18   C     C_R   0.650872 0.497513 0.968661 -0.169627
O9    O     O_2   0.644428 0.487224 0.851003 -0.515543
O10   O     O_2   0.355528 0.487263 0.148996 -0.515447
O11   O     O_2   0.352477 0.515439 0.851058 -0.452930
O12   O     O_2   0.647483 0.515420 0.148940 -0.453041
H1    H     H_    0.290663 0.495673 0.054512 0.217584
H2    H     H_    0.709294 0.495626 0.945487 0.217581
C19   C     C_R   0.538376 0.424409 0.238253 0.322690
C20   C     C_R   0.461576 0.424415 0.761741 0.322563
C21   C     C_R   0.543191 0.427610 0.297880 0.024124
C22   C     C_R   0.456772 0.427620 0.702113 0.024699
C23   C     C_R   0.503104 0.499698 0.327679 -0.105560
C24   C     C_R   0.496876 0.499700 0.672320 -0.105555
C25   C     C_R   0.464283 0.570651 0.296553 0.096075
C26   C     C_R   0.535698 0.570649 0.703451 0.095605
C27   C     C_R   0.466740 0.569124 0.237523 -0.139979
C28   C     C_R   0.533232 0.569119 0.762480 -0.139820
H3    H     H_    0.439215 0.624019 0.213433 0.168902
H4    H     H_    0.560761 0.624008 0.786574 0.168948
C29   C     C_R   0.502470 0.496810 0.208371 0.205343
C30   C     C_R   0.497489 0.496808 0.791628 0.205338
H5    H     H_    0.077038 0.642629 0.480405 0.146007
H6    H     H_    0.922964 0.357345 0.519591 0.147596
H7    H     H_    0.922980 0.642628 0.480372 0.146724
H8    H     H_    0.077023 0.357350 0.519634 0.147373
C31   C     C_R   0.956378 0.580272 0.488951 -0.158162
C32   C     C_R   0.043624 0.419704 0.511052 -0.156691
C33   C     C_R   0.043632 0.580274 0.488972 -0.158593
C34   C     C_R   0.956370 0.419701 0.511027 -0.156882
C35   C     C_R   0.912782 0.499985 0.499977 0.148060
C36   C     C_R   0.087219 0.499990 0.500024 0.148595
C37   C     C_1   0.823326 0.499989 0.499966 -0.048914
C38   C     C_1   0.176675 0.499991 0.500035 -0.048792
C39   C     C_1   0.251725 0.499995 0.500033 -0.161706
C40   C     C_1   0.748275 0.499994 0.499968 -0.161763
C41   C     C_R   0.513852 0.951324 0.550945 0.149058
C42   C     C_R   0.485965 0.048294 0.448912 0.144403
C43   C     C_R   0.486147 0.951322 0.449055 0.149078
C44   C     C_R   0.514034 0.048296 0.551088 0.144483
C45   C     C_R   0.500000 0.902940 0.500000 -0.050255
C46   C     C_R   0.500000 0.097136 0.500000 -0.036114
C47   C     C_1   0.500000 0.802501 0.500000 0.171867
C48   C     C_1   0.500000 0.197480 0.500000 0.166263
N3    N     N_1   0.500000 0.276710 0.500000 -0.161940
N4    N     N_1   0.500000 0.723290 0.500000 -0.158273
Br1   Br    Br    0.235363 0.498780 0.940457 -0.332670
Br2   Br    Br    0.764594 0.498730 0.059542 -0.332692
Br3   Br    Br    0.574667 0.318899 0.196482 -0.427966
Br4   Br    Br    0.425260 0.318910 0.803505 -0.428355
C49   C     C_3   0.593292 0.356227 0.329107 -0.711472
H9    H     H_    0.632129 0.388221 0.362542 0.216743
H10   H     H_    0.550574 0.305462 0.348163 0.240853
H11   H     H_    0.638221 0.320253 0.301472 0.261119
C50   C     C_3   0.406663 0.356249 0.670880 -0.712667
H12   H     H_    0.367842 0.388251 0.637440 0.216454
H13   H     H_    0.449373 0.305471 0.651829 0.240934
H14   H     H_    0.361718 0.320289 0.698510 0.260921
C51   C     C_3   0.418333 0.647968 0.324611 -0.772906
H15   H     H_    0.370995 0.621222 0.354654 0.232049
H16   H     H_    0.463265 0.692431 0.347148 0.245156
H17   H     H_    0.384704 0.690801 0.293372 0.225387
C52   C     C_3   0.581658 0.647962 0.675398 -0.771895
H18   H     H_    0.615284 0.690792 0.706640 0.225517
H19   H     H_    0.628999 0.621213 0.645359 0.232335
H20   H     H_    0.536732 0.692428 0.652858 0.245105
C53   C     C_3   0.529341 0.098817 0.606087 -0.813408
H21   H     H_    0.479862 0.081310 0.637174 0.243640
H22   H     H_    0.591609 0.080224 0.623302 0.241275
H23   H     H_    0.528915 0.173456 0.601824 0.226675
C54   C     C_3   0.471673 0.896936 0.395356 -0.828565
H24   H     H_    0.461442 0.938077 0.356911 0.245854
H25   H     H_    0.526814 0.853179 0.387085 0.231153
H26   H     H_    0.415689 0.853274 0.400741 0.229529
C55   C     C_3   0.470657 0.098812 0.393913 -0.812770
H27   H     H_    0.520137 0.081304 0.362826 0.243570
H28   H     H_    0.408389 0.080218 0.376698 0.241371
H29   H     H_    0.471082 0.173452 0.398176 0.226763
C56   C     C_3   0.528325 0.896940 0.604644 -0.828133
H30   H     H_    0.538557 0.938084 0.643089 0.245832
H31   H     H_    0.473185 0.853184 0.612915 0.231274
H32   H     H_    0.584309 0.853278 0.599259 0.229689

loop_
_geom_bond_atom_site_label_1
_geom_bond_atom_site_label_2
_geom_bond_distance
_ccdc_geom_bond_type
C51   H15   1.110573 S    
C31   C35   1.399773 A    
C15   C17   1.393511 A    
C56   H31   1.110606 S    
C53   H21   1.110371 S    
O3    C2    1.278805 A    
C53   H23   1.106647 S    
C21   C23   1.428266 A    
O5    C3    1.286233 A    
O1    C1    1.278803 A    
C7    C9    1.413589 A    
C12   C14   1.407324 A    
C5    C13   1.399362 A    
C1    C39   1.425343 S    
C36   C38   1.430819 S    
C27   H3    1.083933 S    
C2    C40   1.425352 S    
C45   C47   1.482973 S    
O7    Cu1   1.951559 S    
C4    C24   1.486943 S    
C47   N4    1.169533 T    
C50   H12   1.110582 S    
C56   H30   1.105135 S    
H5    C33   1.083566 S    
O3    Cu1   1.925365 S    
C43   C54   1.519550 S    
C8    O12   1.346865 S    
C22   C24   1.428263 A    
C42   C43   1.431781 A    
C9    C15   1.420367 A    
C10   C16   1.420367 A    
Cu1   Cu2   2.634636 S    
C23   C25   1.422747 A    
C22   C50   1.515797 S    
O2    C2    1.278777 A    
C24   C26   1.422740 A    
C15   Br1   1.926217 S    
C26   C28   1.395828 A    
C28   H4    1.083932 S    
H7    C31   1.083563 S    
C6    C14   1.399367 A    
H8    C32   1.083565 S    
C35   C37   1.430826 S    
C44   C53   1.518512 S    
Cu2   N3    1.979523 S    
C7    O11   1.346866 S    
C52   H18   1.111001 S    
C49   H10   1.109729 S    
C48   N3    1.169822 T    
C33   C36   1.399773 A    
C20   Br4   1.933469 S    
C34   C35   1.399781 A    
C19   Br3   1.933471 S    
C32   C36   1.399774 A    
C43   C45   1.417405 A    
C21   C49   1.515797 S    
C37   C40   1.200399 T    
C38   C39   1.200394 T    
C52   H19   1.110570 S    
C19   C29   1.404031 A    
C54   H24   1.105137 S    
C27   C29   1.393297 A    
O6    C4    1.286404 A    
C41   C44   1.431781 A    
C54   H26   1.110682 S    
C55   H28   1.110327 S    
C25   C27   1.395830 A    
C26   C52   1.510970 S    
H6    C34   1.083563 S    
C6    N2    1.366081 A    
C50   H13   1.109730 S    
C8    C10   1.413588 A    
C31   C33   1.395590 A    
O8    Cu2   1.951559 S    
C56   H32   1.110683 S    
C10   C12   1.419101 A    
O1    Cu1   1.925367 S    
C16   Br2   1.926217 S    
C13   C18   1.399974 A    
C5    N1    1.366081 A    
C17   H1    1.083475 S    
O6    Cu2   1.951554 S    
C54   H25   1.110605 S    
C42   C55   1.518511 S    
O4    C1    1.278776 A    
N1    C30   1.438338 S    
C49   H11   1.106840 S    
C53   H22   1.110328 S    
C5    O9    1.350068 S    
C20   C30   1.404030 A    
C6    O10   1.350067 S    
C28   C30   1.393300 A    
C18   H2    1.083474 S    
C25   C51   1.510973 S    
C9    C11   1.419102 A    
C19   C21   1.412110 A    
C52   H20   1.109572 S    
C20   C22   1.412113 A    
C42   C46   1.424159 A    
C41   C45   1.417406 A    
C16   C18   1.393510 A    
N1    C7    1.369748 A    
C32   C34   1.395596 A    
C3    C23   1.486951 S    
C55   H29   1.106648 S    
N2    C8    1.369749 A    
C11   C13   1.407323 A    
O4    Cu2   1.925367 S    
O2    Cu2   1.925365 S    
O7    C4    1.286231 A    
O8    C3    1.286409 A    
C11   C12   1.415110 A    
C49   H9    1.110579 S    
O5    Cu1   1.951554 S    
C50   H14   1.106843 S    
Cu1   N4    1.979523 S    
C14   C17   1.399973 A    
C44   C46   1.424160 A    
C51   H17   1.111002 S    
C55   H27   1.110370 S    
C51   H16   1.109569 S    
C46   C48   1.481563 S    
C41   C56   1.519548 S    
N2    C29   1.438337 S    
