data_mof_unit_6836.cif
_audit_creation_date              2012-12-10T19:00:14-0500
_audit_creation_method            fapswitch 2.2
_symmetry_space_group_name_H-M    P1
_symmetry_Int_Tables_number       1
_space_group_crystal_system       triclinic
_cell_length_a                    9.581035
_cell_length_b                    10.776946
_cell_length_c                    13.428353
_cell_angle_alpha                 90.513874
_cell_angle_beta                  73.329316
_cell_angle_gamma                 89.956232
_cell_volume                      1328.19676366

loop_
_atom_site_label
_atom_site_type_symbol
_atom_type_description
_atom_site_fract_x
_atom_site_fract_y
_atom_site_fract_z
_atom_type_partial_charge
C1    C     C_R   0.499924 0.737359 0.500664 0.785980
C2    C     C_R   0.447102 0.571925 0.975326 0.083801
C3    C     C_R   0.491916 0.568261 0.864992 0.086067
C4    C     C_R   0.554039 0.555017 0.029126 0.072075
C5    C     C_R   0.702254 0.538714 0.971716 0.168954
C6    C     C_R   0.745866 0.560408 0.865601 -0.245758
C7    C     C_R   0.642428 0.581734 0.813992 -0.192652
C8    C     C_R   0.518188 0.547401 0.137652 -0.215676
C9    C     C_R   0.766152 0.489923 0.128534 -0.198041
C10   C     C_R   0.384748 0.551488 0.810548 -0.103085
C11   C     C_R   0.403757 0.937152 0.581833 0.088061
C12   C     C_R   0.424032 0.515816 0.698826 0.798658
C13   C     C_R   0.502331 0.870569 0.502967 -0.068804
C14   C     C_R   0.616858 0.934399 0.433518 -0.210713
C15   C     C_R   0.616632 0.064036 0.433489 -0.211914
C16   C     C_R   0.502566 0.129501 0.503503 -0.098034
C17   C     C_R   0.404501 0.064692 0.582717 0.080255
C18   C     C_3   0.243211 0.072697 0.628416 -0.221851
C19   C     C_3   0.242217 0.930848 0.626697 -0.514687
C20   C     C_R   0.926573 0.391047 0.498692 0.259131
C21   C     C_R   0.921001 0.607015 0.512096 -0.101639
C22   C     C_R   0.068954 0.606906 0.512534 -0.083583
C23   C     C_R   0.499941 0.262671 0.500947 0.812188
C24   C     C_R   0.074573 0.391081 0.495815 0.210709
C25   C     C_3   0.107971 0.290939 0.413473 -0.284550
C26   C     C_3   0.946847 0.289602 0.419920 -0.537339
C27   C     C_R   0.577627 0.502316 0.300373 0.800448
C28   C     C_R   0.805916 0.503513 0.021257 -0.195146
C29   C     C_R   0.622127 0.512845 0.187164 -0.049028
C30   C     C_R   0.237159 0.567365 0.865011 -0.184820
C31   C     C_R   0.195457 0.591962 0.971255 -0.149992
C32   C     C_R   0.297373 0.589236 0.026763 -0.151395
Cu1   Cu    Cu3+1 0.359330 0.500020 0.500010 0.949893
Cu2   Cu    Cu3+1 0.640670 0.499980 0.499990 0.938248
H1    H     H_    0.847765 0.461838 0.165452 0.157574
H2    H     H_    0.700769 0.112668 0.375841 0.148223
H3    H     H_    0.185664 0.115580 0.576828 0.145492
H4    H     H_    0.210359 0.886925 0.704629 0.198337
H5    H     H_    0.187583 0.892273 0.570687 0.187206
H6    H     H_    0.863591 0.694464 0.520568 0.147677
H7    H     H_    0.119279 0.694066 0.521378 0.141059
H8    H     H_    0.145845 0.202834 0.438721 0.142895
H9    H     H_    0.919675 0.319578 0.348503 0.208597
H10   H     H_    0.860390 0.561290 0.822285 0.142455
H11   H     H_    0.891872 0.202933 0.454649 0.193331
H12   H     H_    0.916765 0.483581 0.976244 0.141210
H13   H     H_    0.409802 0.567504 0.185689 0.162844
H14   H     H_    0.153564 0.561918 0.825338 0.149091
H15   H     H_    0.255134 0.602720 0.109530 0.132295
H16   H     H_    0.082641 0.610098 0.012168 0.140755
H17   H     H_    0.684300 0.611415 0.734675 0.182174
H18   H     H_    0.701609 0.884412 0.376277 0.150451
N1    N     N_R   0.852320 0.499070 0.499340 -0.182914
N2    N     N_R   0.148230 0.499110 0.499340 -0.187398
O1    O     O_R   0.381190 0.680360 0.500000 -0.592253
O2    O     O_R   0.618780 0.680320 0.499990 -0.599541
O3    O     O_R   0.323230 0.500000 0.650990 -0.575825
O4    O     O_R   0.560820 0.499960 0.650980 -0.585888
O5    O     O_R   0.381220 0.319680 0.500010 -0.585977
O6    O     O_R   0.618810 0.319640 0.500000 -0.574910
O7    O     O_R   0.439180 0.500040 0.349020 -0.569730
O8    O     O_R   0.676770 0.500000 0.349010 -0.585202
C33   C     C_1   0.203413 0.126876 0.733746 0.291670
N3    N     N_1   0.172131 0.169791 0.816546 -0.284116
C34   C     C_1   0.198092 0.329865 0.310561 0.352714
N4    N     N_1   0.267650 0.358255 0.228529 -0.308058

loop_
_geom_bond_atom_site_label_1
_geom_bond_atom_site_label_2
_ccdc_geom_bond_type
C25   H8    S    
Cu1   O1    S    
C2    C4    A    
Cu2   O2    S    
C6    C7    A    
C27   O8    A    
C27   C29   S    
C5    C28   A    
C10   C30   A    
C3    C7    A    
C31   C32   A    
C17   C18   S    
C9    C29   A    
C30   C31   A    
C4    C8    A    
C12   O4    A    
C2    C3    A    
C23   O5    A    
C8    H13   S    
C7    H17   S    
Cu1   O5    S    
C3    C10   A    
C6    H10   S    
C13   C14   A    
Cu2   O6    S    
C11   C13   A    
C11   C19   S    
C5    C6    A    
C21   H6    S    
C19   H5    S    
C12   O3    A    
C21   N1    A    
C2    C32   A    
C30   H14   S    
C19   H4    S    
C18   H3    S    
C26   H9    S    
Cu1   Cu2   S    
C16   C23   S    
C10   C12   S    
C22   N2    A    
C1    O1    A    
C23   O6    A    
C32   H15   S    
Cu2   O4    S    
C14   H18   S    
C18   C33   S    
C22   H7    S    
C1    C13   S    
C8    C29   A    
C31   H16   S    
C24   N2    A    
C15   C16   A    
C16   C17   A    
C20   C24   A    
C15   H2    S    
Cu2   O8    S    
C25   C34   S    
C24   C25   S    
Cu2   N1    S    
Cu1   O7    S    
C34   N4    T    
Cu1   N2    S    
C9    H1    S    
C18   C19   S    
C28   H12   S    
C14   C15   A    
C4    C5    A    
Cu1   O3    S    
C27   O7    A    
C26   H11   S    
C25   C26   S    
C21   C22   A    
C1    O2    A    
C11   C17   A    
C33   N3    T    
C9    C28   A    
C20   N1    A    
C20   C26   S    
