data_mof_unit_66218.cif
_audit_creation_date              2012-12-10T17:40:19-0500
_audit_creation_method            fapswitch 2.2
_symmetry_space_group_name_H-M    P1
_symmetry_Int_Tables_number       1
_space_group_crystal_system       triclinic
_cell_length_a                    37.557054
_cell_length_b                    30.390277
_cell_length_c                    21.892689
_cell_angle_alpha                 90.10088
_cell_angle_beta                  126.007558
_cell_angle_gamma                 89.901401
_cell_volume                      20213.4512682

loop_
_atom_site_label
_atom_site_type_symbol
_atom_type_description
_atom_site_fract_x
_atom_site_fract_y
_atom_site_fract_z
_atom_type_partial_charge
C1    C     C_R   0.414842 0.499975 0.914582 0.831400
C2    C     C_R   0.585156 0.499934 0.085422 0.825407
C3    C     C_R   0.914842 0.999975 0.914582 0.831388
C4    C     C_R   0.085156 0.999934 0.085422 0.825410
C5    C     C_2   0.509550 0.500764 0.825804 -0.398901
C6    C     C_2   0.490385 0.499336 0.174179 -0.393174
C7    C     C_2   0.009550 0.000764 0.825804 -0.398902
C8    C     C_2   0.990383 0.999336 0.174178 -0.393182
C9    C     C_R   0.297837 0.458544 0.791463 0.283776
C10   C     C_R   0.702137 0.458161 0.206837 0.277853
C11   C     C_R   0.797837 0.958544 0.791463 0.283776
C12   C     C_R   0.202138 0.958161 0.206837 0.277853
C13   C     C_R   0.343703 0.459473 0.838230 -0.195360
C14   C     C_R   0.656274 0.459198 0.159978 -0.163788
C15   C     C_R   0.843702 0.959473 0.838230 -0.195363
C16   C     C_R   0.156274 0.959198 0.159978 -0.163788
C17   C     C_R   0.366420 0.499603 0.865351 -0.075895
C18   C     C_R   0.633575 0.499446 0.134687 -0.079760
C19   C     C_R   0.866420 0.999603 0.865352 -0.075900
C20   C     C_R   0.133576 0.999446 0.134687 -0.079761
C21   C     C_R   0.342513 0.539068 0.844495 -0.147540
C22   C     C_R   0.657498 0.538907 0.157464 -0.167139
C23   C     C_R   0.842513 0.039068 0.844496 -0.147532
C24   C     C_R   0.157498 0.038907 0.157465 -0.167138
C25   C     C_R   0.296650 0.538336 0.797810 -0.193170
C26   C     C_R   0.703352 0.538074 0.204185 -0.189570
C27   C     C_R   0.796650 0.038336 0.797810 -0.193171
C28   C     C_R   0.203352 0.038074 0.204185 -0.189569
C29   C     C_R   0.274058 0.498213 0.771573 0.035945
C30   C     C_R   0.725940 0.497855 0.228602 0.035856
C31   C     C_R   0.774058 0.998213 0.771573 0.035944
C32   C     C_R   0.225940 0.997855 0.228602 0.035856
C33   C     C_R   0.201971 0.519114 0.654018 -0.143331
C34   C     C_R   0.798003 0.518501 0.346472 -0.144928
C35   C     C_R   0.701971 0.019115 0.654018 -0.143330
C36   C     C_R   0.298003 0.018501 0.346472 -0.144927
C37   C     C_R   0.156149 0.518659 0.608925 -0.157597
C38   C     C_R   0.843821 0.518214 0.391431 -0.157635
C39   C     C_R   0.656149 0.018659 0.608925 -0.157597
C40   C     C_R   0.343821 0.018214 0.391431 -0.157635
C41   C     C_R   0.133496 0.498022 0.634089 -0.077176
C42   C     C_R   0.866513 0.497934 0.365920 -0.077547
C43   C     C_R   0.633496 0.998022 0.634089 -0.077179
C44   C     C_R   0.366513 0.997934 0.365920 -0.077551
C45   C     C_R   0.502907 0.500001 0.885425 0.880248
C46   C     C_R   0.497042 0.500010 0.114533 0.885509
C47   C     C_R   0.002907 0.000001 0.885425 0.880249
C48   C     C_R   0.997042 0.000010 0.114533 0.885498
C49   C     C_R   0.157683 0.476868 0.705184 0.268043
C50   C     C_R   0.842366 0.477031 0.294535 0.267371
C51   C     C_R   0.657683 0.976868 0.705184 0.268040
C52   C     C_R   0.342366 0.977031 0.294535 0.267367
C53   C     C_R   0.203567 0.477559 0.749894 -0.112026
C54   C     C_R   0.796486 0.477622 0.249910 -0.110501
C55   C     C_R   0.703567 0.977559 0.749894 -0.112025
C56   C     C_R   0.296486 0.977622 0.249910 -0.110500
C57   C     C_R   0.225800 0.498345 0.724420 0.064821
C58   C     C_R   0.774207 0.497974 0.275787 0.064183
C59   C     C_R   0.725800 0.998345 0.724421 0.064821
C60   C     C_R   0.274207 0.997974 0.275787 0.064183
C61   C     C_R   0.500016 0.414952 0.499984 0.812561
C62   C     C_R   0.000016 0.914952 0.499984 0.812559
C63   C     C_R   0.500112 0.496960 0.617637 0.883445
C64   C     C_R   0.499906 0.503010 0.382389 0.879980
C65   C     C_R   0.000112 0.996960 0.617637 0.883445
C66   C     C_R   0.999906 0.003010 0.382389 0.879992
C67   C     C_R   0.499981 0.585073 0.499934 0.810611
C68   C     C_R   0.999981 0.085073 0.499934 0.810621
C69   C     C_R   0.999991 0.414933 0.499940 0.875404
C70   C     C_R   0.499991 0.914933 0.499940 0.875401
C71   C     C_R   0.085127 0.498975 0.585368 0.885396
C72   C     C_R   0.914876 0.498965 0.414628 0.885143
C73   C     C_R   0.585127 0.998975 0.585368 0.885391
C74   C     C_R   0.414876 0.998965 0.414628 0.885137
C75   C     C_R   0.999991 0.585049 0.500039 0.853393
C76   C     C_R   0.499991 0.085049 0.500039 0.853390
C77   C     C_R   0.463262 0.297756 0.441336 -0.088788
C78   C     C_R   0.536726 0.297757 0.558884 -0.091437
C79   C     C_R   0.963262 0.797756 0.441336 -0.088789
C80   C     C_R   0.036726 0.797757 0.558885 -0.091437
C81   C     C_R   0.999839 0.273873 0.499381 -0.085947
C82   C     C_R   0.499839 0.773873 0.499381 -0.085948
C83   C     C_R   0.463090 0.343565 0.441668 -0.164384
C84   C     C_R   0.536973 0.343554 0.558356 -0.126896
C85   C     C_R   0.963090 0.843565 0.441667 -0.164386
C86   C     C_R   0.036972 0.843554 0.558357 -0.126896
C87   C     C_R   0.500034 0.366756 0.500013 -0.031816
C88   C     C_R   0.000034 0.866756 0.500013 -0.031815
C89   C     C_R   0.499975 0.274695 0.500164 0.146088
C90   C     C_R   0.999975 0.774695 0.500164 0.146089
C91   C     C_R   0.030225 0.703029 0.493335 -0.055829
C92   C     C_R   0.969757 0.703145 0.507029 -0.057549
C93   C     C_R   0.530223 0.203029 0.493331 -0.055830
C94   C     C_R   0.469758 0.203145 0.507033 -0.057550
C95   C     C_R   0.030784 0.656639 0.494795 -0.079507
C96   C     C_R   0.969219 0.656746 0.505554 -0.080059
C97   C     C_R   0.530783 0.156640 0.494792 -0.079506
C98   C     C_R   0.469221 0.156747 0.505558 -0.080059
C99   C     C_R   0.000001 0.633562 0.500148 -0.189925
C100  C     C_R   0.500001 0.133563 0.500148 -0.189927
C101  C     C_R   0.999984 0.726139 0.500179 -0.097589
C102  C     C_R   0.499984 0.226139 0.500179 -0.097590
C103  C     C_R   0.535552 0.702453 0.560382 -0.072383
C104  C     C_R   0.464252 0.702341 0.438609 -0.073690
C105  C     C_R   0.035551 0.202453 0.560385 -0.072382
C106  C     C_R   0.964253 0.202341 0.438608 -0.073694
C107  C     C_R   0.535826 0.656598 0.560147 -0.170235
C108  C     C_R   0.464030 0.656486 0.439154 -0.132896
C109  C     C_R   0.035825 0.156598 0.560150 -0.170237
C110  C     C_R   0.964031 0.156486 0.439152 -0.132891
C111  C     C_R   0.499941 0.633322 0.499736 -0.043557
C112  C     C_R   0.999941 0.133322 0.499736 -0.043554
C113  C     C_R   0.028860 0.296808 0.489995 0.215347
C114  C     C_R   0.970849 0.296904 0.508902 0.212394
C115  C     C_R   0.528857 0.796808 0.489988 0.215346
C116  C     C_R   0.470851 0.796904 0.508908 0.212394
C117  C     C_R   0.499885 0.725477 0.499431 0.167926
C118  C     C_R   0.999885 0.225477 0.499432 0.167928
C119  C     C_R   0.999943 0.366383 0.499756 -0.244325
C120  C     C_R   0.499943 0.866383 0.499755 -0.244325
C121  C     C_R   0.029510 0.343082 0.491298 -0.079656
C122  C     C_R   0.970304 0.343179 0.507975 -0.077440
C123  C     C_R   0.529508 0.843081 0.491292 -0.079655
C124  C     C_R   0.470306 0.843179 0.507981 -0.077441
C125  C     C_2   0.533163 0.471946 0.749594 -0.045791
C126  C     C_2   0.467422 0.528901 0.251067 -0.047620
C127  C     C_2   0.033163 0.971946 0.749594 -0.045790
C128  C     C_2   0.967425 0.028905 0.251070 -0.047625
C129  C     C_2   0.499694 0.490146 0.683577 -0.392244
C130  C     C_2   0.500398 0.509729 0.316527 -0.395640
C131  C     C_2   0.999694 0.990146 0.683577 -0.392244
C132  C     C_2   0.000398 0.009728 0.316527 -0.395635
C133  C     C_2   0.529972 0.468542 0.814172 -0.052006
C134  C     C_2   0.470529 0.531935 0.186315 -0.047518
C135  C     C_2   0.029972 0.968542 0.814172 -0.052005
C136  C     C_2   0.970532 0.031938 0.186319 -0.047512
Cu1   Cu    Cu3+1 0.500000 0.544050 0.000000 1.015163
Cu2   Cu    Cu3+1 1.000000 0.044050 0.000000 1.015163
Cu3   Cu    Cu3+1 0.500000 0.455950 0.000000 1.038911
Cu4   Cu    Cu3+1 1.000000 0.955950 0.000000 1.038909
Cu5   Cu    Cu3+1 0.544050 0.500000 0.544060 1.021020
Cu6   Cu    Cu3+1 0.455950 0.500000 0.455940 1.030794
Cu7   Cu    Cu3+1 0.044050 0.000000 0.544060 1.021022
Cu8   Cu    Cu3+1 0.955950 0.000000 0.455940 1.030792
Cu9   Cu    Cu3+1 0.000010 0.500010 0.438990 1.086435
Cu10  Cu    Cu3+1 0.999990 0.500010 0.561010 1.085606
Cu11  Cu    Cu3+1 0.500010 0.000010 0.438990 1.086436
Cu12  Cu    Cu3+1 0.499990 0.000010 0.561010 1.085608
H1    H     H_    0.138386 0.534818 0.554479 0.189564
H2    H     H_    0.861550 0.534226 0.446055 0.189163
H3    H     H_    0.638386 0.034818 0.554480 0.189567
H4    H     H_    0.361550 0.034226 0.446055 0.189166
H5    H     H_    0.222041 0.461404 0.804414 0.184794
H6    H     H_    0.778053 0.461740 0.195107 0.187846
H7    H     H_    0.722041 0.961404 0.804414 0.184794
H8    H     H_    0.278053 0.961740 0.195107 0.187846
H9    H     H_    0.434793 0.280206 0.395477 0.144629
H10   H     H_    0.565200 0.280211 0.604752 0.145490
H11   H     H_    0.934794 0.780206 0.395476 0.144629
H12   H     H_    0.065200 0.780211 0.604753 0.145490
H13   H     H_    0.434365 0.360826 0.395830 0.160553
H14   H     H_    0.565789 0.360777 0.603961 0.166564
H15   H     H_    0.934365 0.860826 0.395829 0.160552
H16   H     H_    0.065789 0.860777 0.603962 0.166564
H17   H     H_    0.563174 0.720065 0.607775 0.163199
H18   H     H_    0.436597 0.719864 0.391126 0.167559
H19   H     H_    0.063173 0.220065 0.607780 0.163200
H20   H     H_    0.936599 0.219864 0.391122 0.167559
H21   H     H_    0.469412 0.499188 0.676290 0.165055
H22   H     H_    0.530407 0.499858 0.323515 0.164873
H23   H     H_    0.969413 0.999188 0.676291 0.165054
H24   H     H_    0.030406 0.999852 0.323514 0.164870
H25   H     H_    0.563736 0.639347 0.607634 0.163578
H26   H     H_    0.436116 0.639154 0.391827 0.191232
H27   H     H_    0.063735 0.139347 0.607638 0.163576
H28   H     H_    0.936118 0.139154 0.391823 0.191235
H29   H     H_    0.498697 0.530423 0.791661 0.164244
H30   H     H_    0.500901 0.469573 0.208009 0.164506
H31   H     H_    0.998697 0.030423 0.791662 0.164243
H32   H     H_    0.000895 0.969571 0.208003 0.164510
H33   H     H_    0.361499 0.428673 0.852810 0.191515
H34   H     H_    0.638465 0.428374 0.143868 0.195246
H35   H     H_    0.861498 0.928673 0.852809 0.191515
H36   H     H_    0.138465 0.928374 0.143867 0.195246
H37   H     H_    0.359187 0.570469 0.864473 0.169837
H38   H     H_    0.640844 0.570400 0.139020 0.174199
H39   H     H_    0.859187 0.070469 0.864474 0.169841
H40   H     H_    0.140844 0.070400 0.139021 0.174200
H41   H     H_    0.278684 0.569072 0.782803 0.164491
H42   H     H_    0.721318 0.568832 0.220642 0.164972
H43   H     H_    0.778684 0.069072 0.782804 0.164491
H44   H     H_    0.221318 0.068833 0.220642 0.164971
H45   H     H_    0.218882 0.535264 0.633769 0.156517
H46   H     H_    0.781070 0.534367 0.367014 0.156866
H47   H     H_    0.718882 0.035264 0.633770 0.156517
H48   H     H_    0.281070 0.034367 0.367014 0.156867
O1    O     O_R   0.435730 0.537200 0.935720 -0.576244
O2    O     O_R   0.564270 0.537200 0.064280 -0.593892
O3    O     O_R   0.935730 0.037200 0.935720 -0.576245
O4    O     O_R   0.064270 0.037200 0.064280 -0.593891
O5    O     O_R   0.064280 0.500010 0.512760 -0.578882
O6    O     O_R   0.935720 0.500010 0.487240 -0.578966
O7    O     O_R   0.564280 0.000010 0.512760 -0.578879
O8    O     O_R   0.435720 0.000010 0.487240 -0.578962
O9    O     O_R   0.064270 0.500010 0.615800 -0.553340
O10   O     O_R   0.935730 0.500010 0.384200 -0.553380
O11   O     O_R   0.564270 0.000010 0.615800 -0.553341
O12   O     O_R   0.435730 0.000010 0.384200 -0.553381
O13   O     O_R   0.000010 0.564280 0.448470 -0.576738
O14   O     O_R   0.999990 0.564280 0.551530 -0.576457
O15   O     O_R   0.500010 0.064280 0.448470 -0.576738
O16   O     O_R   0.499990 0.064280 0.551530 -0.576457
O17   O     O_R   0.435730 0.462800 0.935730 -0.590983
O18   O     O_R   0.564270 0.462800 0.064270 -0.566171
O19   O     O_R   0.935730 0.962800 0.935730 -0.590983
O20   O     O_R   0.064270 0.962800 0.064270 -0.566170
O21   O     O_R   0.500010 0.537200 0.910980 -0.584318
O22   O     O_R   0.499990 0.537200 0.089020 -0.563048
O23   O     O_R   0.000010 0.037200 0.910980 -0.584317
O24   O     O_R   0.999990 0.037200 0.089020 -0.563051
O25   O     O_R   0.500010 0.462800 0.910980 -0.558222
O26   O     O_R   0.499990 0.462800 0.089020 -0.581071
O27   O     O_R   0.000010 0.962800 0.910980 -0.558222
O28   O     O_R   0.999990 0.962800 0.089020 -0.581071
O29   O     O_R   0.537200 0.435730 0.537210 -0.574437
O30   O     O_R   0.462800 0.435730 0.462790 -0.589969
O31   O     O_R   0.037200 0.935730 0.537210 -0.574437
O32   O     O_R   0.962800 0.935730 0.462790 -0.589970
O33   O     O_R   0.537190 0.500000 0.626220 -0.564432
O34   O     O_R   0.462810 0.500000 0.373780 -0.562097
O35   O     O_R   0.037190 0.000000 0.626220 -0.564433
O36   O     O_R   0.962810 0.000000 0.373780 -0.562095
O37   O     O_R   0.462790 0.500000 0.551820 -0.580253
O38   O     O_R   0.537210 0.500000 0.448180 -0.580376
O39   O     O_R   0.962790 0.000000 0.551820 -0.580253
O40   O     O_R   0.037210 0.000000 0.448180 -0.580377
O41   O     O_R   0.537200 0.564270 0.537200 -0.587576
O42   O     O_R   0.462800 0.564270 0.462800 -0.566211
O43   O     O_R   0.037200 0.064270 0.537200 -0.587576
O44   O     O_R   0.962800 0.064270 0.462800 -0.566208
O45   O     O_R   0.000000 0.435740 0.448480 -0.566051
O46   O     O_R   0.000000 0.435740 0.551520 -0.566558
O47   O     O_R   0.500000 0.935740 0.448480 -0.566051
O48   O     O_R   0.500000 0.935740 0.551520 -0.566558
C137  C     C_2   0.572592 0.452614 0.759183 0.938696
O49   O     O_2   0.609260 0.460402 0.816492 -0.573687
O50   O     O_R   0.567640 0.423990 0.704605 -0.741995
H49   H     H_    0.596879 0.412667 0.718200 0.329964
C138  C     C_2   0.428568 0.549566 0.241930 0.926180
O51   O     O_2   0.433408 0.573757 0.291010 -0.587082
O52   O     O_R   0.386627 0.542945 0.175046 -0.743198
H50   H     H_    0.362890 0.559222 0.174602 0.344054
C139  C     C_2   0.072591 0.952613 0.759182 0.938697
O53   O     O_2   0.109260 0.960400 0.816492 -0.573688
O54   O     O_R   0.067639 0.923990 0.704603 -0.741998
H51   H     H_    0.096878 0.912666 0.718197 0.329964
C140  C     C_2   0.928576 0.049578 0.241939 0.926163
O55   O     O_2   0.933419 0.073762 0.291028 -0.587099
O56   O     O_R   0.886633 0.042970 0.175049 -0.743194
H52   H     H_    0.862900 0.059251 0.174609 0.344054
Br1   Br    Br    0.130681 0.443787 0.742608 -0.402371
Br2   Br    Br    0.869396 0.444437 0.256477 -0.395749
Br3   Br    Br    0.630681 0.943787 0.742608 -0.402375
Br4   Br    Br    0.369396 0.944438 0.256476 -0.395750
Br5   Br    Br    0.068483 0.264459 0.477119 -0.398485
Br6   Br    Br    0.931147 0.264697 0.521514 -0.415681
Br7   Br    Br    0.568477 0.764459 0.477101 -0.398486
Br8   Br    Br    0.431153 0.764697 0.521530 -0.415680
C141  C     C_2   0.061762 0.727493 0.485724 0.883716
O57   O     O_2   0.048370 0.756084 0.437621 -0.562520
O58   O     O_R   0.106730 0.717867 0.533856 -0.741772
H53   H     H_    0.124762 0.736665 0.523170 0.348801
C142  C     C_2   0.938209 0.727742 0.514637 0.887206
O59   O     O_2   0.951581 0.756443 0.562665 -0.549711
O60   O     O_R   0.893254 0.718119 0.466588 -0.742436
H54   H     H_    0.875214 0.737012 0.477266 0.350249
C143  C     C_2   0.561760 0.227493 0.485718 0.883718
O61   O     O_2   0.548367 0.256084 0.437615 -0.562519
O62   O     O_R   0.606728 0.217867 0.533846 -0.741773
H55   H     H_    0.624758 0.236664 0.523158 0.348801
C144  C     C_2   0.438212 0.227743 0.514644 0.887206
O63   O     O_2   0.451585 0.256443 0.562672 -0.549711
O64   O     O_R   0.393257 0.218119 0.466599 -0.742436
H56   H     H_    0.375218 0.237012 0.477279 0.350250
C145  C     C_2   0.063847 0.632240 0.491155 0.911610
O65   O     O_2   0.087914 0.605277 0.539932 -0.620219
O66   O     O_R   0.067516 0.640347 0.432223 -0.725648
H57   H     H_    0.091249 0.621814 0.436130 0.339678
C146  C     C_2   0.936208 0.632454 0.509297 0.911470
O67   O     O_2   0.912189 0.605395 0.460629 -0.619788
O68   O     O_R   0.932541 0.640769 0.568220 -0.724362
H58   H     H_    0.908851 0.622294 0.564400 0.340198
C147  C     C_2   0.563844 0.132240 0.491148 0.911613
O69   O     O_2   0.587912 0.105277 0.539925 -0.620218
O70   O     O_R   0.567511 0.140348 0.432213 -0.725648
H59   H     H_    0.591244 0.121814 0.436119 0.339679
C148  C     C_2   0.436211 0.132455 0.509304 0.911475
O71   O     O_2   0.412190 0.105395 0.460637 -0.619786
O72   O     O_R   0.432547 0.140768 0.568231 -0.724363
H60   H     H_    0.408857 0.122294 0.564413 0.340199
C149  C     C_2   0.062391 0.366874 0.486814 0.944884
O73   O     O_2   0.087724 0.392855 0.536555 -0.586690
O74   O     O_R   0.064097 0.359861 0.425463 -0.689419
H61   H     H_    0.087775 0.378067 0.428776 0.348111
C150  C     C_2   0.937469 0.367082 0.512627 0.946055
O75   O     O_2   0.912171 0.393141 0.463051 -0.586830
O76   O     O_R   0.935763 0.360079 0.573946 -0.692050
H62   H     H_    0.912117 0.378364 0.570758 0.347512
C151  C     C_2   0.562387 0.866874 0.486804 0.944885
O77   O     O_2   0.587722 0.892854 0.536545 -0.586687
O78   O     O_R   0.564090 0.859861 0.425449 -0.689418
H63   H     H_    0.587767 0.878067 0.428760 0.348111
C152  C     C_2   0.437472 0.867082 0.512637 0.946056
O79   O     O_2   0.412173 0.893140 0.463062 -0.586828
O80   O     O_R   0.435769 0.860079 0.573959 -0.692049
H64   H     H_    0.412124 0.878364 0.570774 0.347513
C153  C     C_2   0.552030 0.430464 0.866363 0.927210
O81   O     O_2   0.575424 0.436066 0.934773 -0.570959
O82   O     O_R   0.547644 0.388454 0.836568 -0.734990
H65   H     H_    0.564694 0.365319 0.877257 0.348841
C154  C     C_2   0.448808 0.569893 0.133805 0.936729
O83   O     O_2   0.454004 0.607076 0.159207 -0.568270
O84   O     O_R   0.420955 0.562845 0.055791 -0.740938
H66   H     H_    0.407760 0.591152 0.026236 0.333706
C155  C     C_2   0.052030 0.930464 0.866363 0.927213
O85   O     O_2   0.075424 0.936066 0.934773 -0.570958
O86   O     O_R   0.047643 0.888453 0.836568 -0.734990
H67   H     H_    0.064694 0.865318 0.877257 0.348841
C156  C     C_2   0.948818 0.069901 0.133817 0.936751
O87   O     O_2   0.954026 0.107083 0.159226 -0.568275
O88   O     O_R   0.920960 0.062857 0.055802 -0.740928
H68   H     H_    0.907772 0.091167 0.026252 0.333707
Br9   Br    Br    0.269364 0.402515 0.753559 -0.433966
Br10  Br    Br    0.730528 0.401888 0.242346 -0.429138
Br11  Br    Br    0.769364 0.902516 0.753558 -0.433968
Br12  Br    Br    0.230528 0.901888 0.242346 -0.429138

loop_
_geom_bond_atom_site_label_1
_geom_bond_atom_site_label_2
_ccdc_geom_bond_type
C135  C155  S    
C55   C59   A    
C156  O88   S    
O68   H58   S    
Cu9   Cu10  S    
C149  O73   D    
C77   C89   A    
Cu12  O16   S    
C50   Br2   S    
C86   C88   A    
C69   O46   A    
C3    O19   A    
C62   O31   A    
C96   C99   A    
C128  C132  D    
C31   C59   S    
C9    C13   A    
C79   C90   A    
C80   C86   A    
C65   C131  S    
C11   C15   A    
C12   C16   A    
C122  C150  S    
C3    C19   S    
C93   C143  S    
C34   H46   S    
C151  O78   S    
C137  O49   D    
C106  C118  A    
C103  C117  A    
C41   C49   A    
C14   H34   S    
C65   O39   A    
C78   C89   A    
C25   C29   A    
C115  C123  A    
C27   C31   A    
O84   H66   S    
Cu7   O43   S    
C28   C32   A    
C68   O44   A    
C72   O10   A    
C62   C88   S    
C69   C119  S    
C17   C21   A    
C19   C23   A    
C10   C30   A    
O74   H61   S    
Cu11  O47   S    
C16   C20   A    
C131  H23   S    
C42   C72   S    
C44   C74   S    
Cu2   Cu4   S    
Cu1   O1    S    
C2    O18   A    
C141  O58   S    
C105  C118  A    
C79   C85   A    
C104  C117  A    
C47   O27   A    
Cu8   O39   S    
Cu7   O31   S    
C54   H6    S    
C109  H27   S    
C110  H28   S    
C76   C100  S    
C67   O42   A    
C46   O26   A    
C108  C111  A    
Cu11  O7    S    
C133  C153  S    
C145  O66   S    
C49   C53   A    
C51   C55   A    
C124  C152  S    
C121  C149  S    
C4    C20   S    
C125  C129  D    
C71   O9    A    
C94   C102  A    
C154  O83   D    
Cu1   O21   S    
C34   C58   A    
C126  C130  D    
C103  C107  A    
C132  H24   S    
O58   H53   S    
C43   C73   S    
C75   O14   A    
C53   H5    S    
C4    O20   A    
Cu11  Cu12  S    
C56   H8    S    
C16   H36   S    
C55   H7    S    
C73   O7    A    
C138  O51   D    
C126  C138  S    
C130  H22   S    
C82   C115  A    
C114  Br6   S    
C139  O53   D    
Cu3   O26   S    
Cu6   O34   S    
Cu3   O18   S    
C39   H3    S    
C92   C96   A    
C40   H4    S    
C140  O55   D    
C68   C112  S    
C155  O86   S    
C61   C87   S    
Cu12  O11   S    
C78   H10   S    
C70   C120  S    
C150  O76   S    
C81   C114  A    
C41   C71   S    
Cu2   O3    S    
C76   O16   A    
C143  O61   D    
C148  O72   S    
C91   C101  A    
Cu10  O9    S    
Cu9   O13   S    
C119  C121  A    
C7    H31   S    
C10   C14   A    
Cu4   O28   S    
C48   O28   A    
C51   Br3   S    
C15   H35   S    
Cu7   O40   S    
C22   H38   S    
C36   H48   S    
C64   O38   A    
C147  O69   D    
C70   O47   A    
Cu10  O46   S    
C75   C99   S    
C146  O67   D    
C126  C134  S    
C42   C50   A    
C64   C130  S    
Cu2   O23   S    
C103  H17   S    
C13   H33   S    
C93   C97   A    
C97   C100  A    
Cu12  O8    S    
C72   O6    A    
C85   C88   A    
C21   C25   A    
C18   C22   A    
C107  C111  A    
C1    O1    A    
C24   C28   A    
C116  Br8   S    
C26   C30   A    
C144  O64   S    
C1    C17   S    
C61   O30   A    
C13   C17   A    
C45   O25   A    
C128  C140  S    
Cu10  O6    S    
C25   H41   S    
C64   O34   A    
C69   O45   A    
C74   O8    A    
C62   O32   A    
C142  O60   S    
C37   C41   A    
Cu11  O12   S    
C110  C112  A    
C91   C95   A    
C4    O4    A    
C113  C121  A    
O64   H56   S    
Cu12  O48   S    
Cu7   O35   S    
C92   C142  S    
C98   C148  S    
O54   H51   S    
C83   C87   A    
C46   O22   A    
C8    C136  D    
C125  C137  S    
O60   H54   S    
O52   H50   S    
C9    Br9   S    
C15   C19   A    
Cu1   Cu3   S    
C50   C54   A    
C11   Br11  S    
C97   C147  S    
C127  C135  S    
C128  C136  S    
C79   H11   S    
C80   H12   S    
C94   C98   A    
C95   C99   A    
Cu5   O33   S    
C35   C59   A    
C156  O87   D    
C153  O82   S    
C105  C109  A    
Cu4   O19   S    
Cu6   O37   S    
C108  H26   S    
Cu5   O41   S    
O62   H55   S    
C120  C123  A    
C35   H47   S    
C63   O33   A    
C73   O11   A    
C33   H45   S    
O80   H64   S    
C127  C139  S    
C141  O57   D    
C6    H30   S    
Cu11  O15   S    
C12   Br12  S    
C115  Br7   S    
Cu6   O30   S    
C149  O74   S    
C52   Br4   S    
C65   O35   A    
O76   H62   S    
C96   C146  S    
O70   H59   S    
C49   Br1   S    
C91   C141  S    
C95   C145  S    
C5    C45   S    
C81   C118  S    
C67   O41   A    
C134  C154  S    
C33   C37   A    
C56   C60   A    
C7    C47   S    
C5    C133  D    
O72   H60   S    
C8    C48   S    
C145  O65   D    
O66   H57   S    
C10   Br10  S    
C123  C151  S    
C92   C101  A    
C94   C144  S    
C67   C111  S    
C29   C57   S    
C98   C100  A    
C137  O50   S    
C1    O17   A    
C85   H15   S    
C86   H16   S    
C32   C60   S    
C104  C108  A    
C84   H14   S    
C48   O24   A    
Cu6   O42   S    
C75   O13   A    
C53   C57   A    
C116  C124  A    
Cu8   O36   S    
C37   H1    S    
C68   O43   A    
C93   C102  A    
C21   H37   S    
C24   H40   S    
C127  C131  D    
Cu7   Cu8   S    
C82   C116  A    
O86   H67   S    
C43   C51   A    
C152  O79   D    
Cu3   O17   S    
C63   C129  S    
C155  O85   D    
C152  O80   S    
C104  H18   S    
O82   H65   S    
Cu1   O2    S    
C147  O70   S    
C150  O75   D    
C22   C26   A    
C81   C113  A    
C82   C117  S    
Cu2   O4    S    
C23   H39   S    
O78   H63   S    
C89   C102  S    
C2    C18   S    
C45   O21   A    
C148  O71   D    
C14   C18   A    
C35   C39   A    
C84   C87   A    
O88   H68   S    
C26   H42   S    
C74   O12   A    
C151  O77   D    
Cu8   O44   S    
C129  H21   S    
C136  C156  S    
C38   C42   A    
C77   C83   A    
C66   O36   A    
C8    H32   S    
C70   O48   A    
C120  C124  A    
C20   C24   A    
Cu5   O38   S    
C154  O84   S    
Cu1   O22   S    
C3    O3    A    
C23   C27   A    
C9    C29   A    
C83   H13   S    
C11   C31   A    
C12   C32   A    
C27   H43   S    
C28   H44   S    
Cu9   O10   S    
Cu10  O14   S    
C66   C132  S    
Cu5   O29   S    
C138  O52   S    
C36   C40   A    
C109  C112  A    
C139  O54   S    
C34   C38   A    
C39   C43   A    
C107  H25   S    
C144  O63   D    
C47   O23   A    
C61   O29   A    
C105  H19   S    
C66   O40   A    
C140  O56   S    
C106  H20   S    
C90   C101  S    
C7    C135  D    
C63   O37   A    
C40   C44   A    
C142  O59   D    
Cu9   O45   S    
C5    H29   S    
C76   O15   A    
C143  O62   S    
O56   H52   S    
C54   C58   A    
C119  C122  A    
C125  C133  S    
C71   O5    A    
C33   C57   A    
C6    C46   S    
C2    O2    A    
C36   C60   A    
C44   C52   A    
O50   H49   S    
Cu4   O27   S    
C6    C134  D    
Cu5   Cu6   S    
Cu9   O5    S    
Cu3   O25   S    
C30   C58   S    
C146  O68   S    
C80   C90   A    
C153  O81   D    
C113  Br5   S    
Cu4   O20   S    
Cu2   O24   S    
C114  C122  A    
C78   C84   A    
C106  C110  A    
Cu8   O32   S    
C38   H2    S    
C52   C56   A    
C77   H9    S    
