data_mof_unit_64817.cif
_audit_creation_date              2012-12-10T18:40:27-0500
_audit_creation_method            fapswitch 2.2
_symmetry_space_group_name_H-M    P1
_symmetry_Int_Tables_number       1
_space_group_crystal_system       triclinic
_cell_length_a                    10.777391
_cell_length_b                    11.573762
_cell_length_c                    16.789964
_cell_angle_alpha                 90.002953
_cell_angle_beta                  83.634704
_cell_angle_gamma                 90.030092
_cell_volume                      2081.38437358

loop_
_atom_site_label
_atom_site_type_symbol
_atom_type_description
_atom_site_fract_x
_atom_site_fract_y
_atom_site_fract_z
_atom_type_partial_charge
C1    C     C_R   0.500027 0.718838 0.499959 0.912893
C2    C     C_R   0.499982 0.281158 0.499967 0.918063
C3    C     C_1   0.500023 0.838946 0.500015 -0.154611
C4    C     C_1   0.499944 0.161035 0.499967 -0.158436
C5    C     C_1   0.499975 0.940831 0.500028 0.030024
C6    C     C_1   0.499947 0.059144 0.499994 0.029103
C7    C     C_1   0.930242 0.500008 0.500007 0.073033
C8    C     C_1   0.069757 0.500013 0.500002 0.076906
C9    C     C_R   0.480979 0.505360 0.653599 0.901728
C10   C     C_R   0.519082 0.499616 0.346212 0.904058
C11   C     C_R   0.466069 0.525738 0.739433 -0.128226
C12   C     C_R   0.536586 0.524867 0.261299 -0.120100
C13   C     C_R   0.550562 0.471730 0.784397 -0.216294
C14   C     C_R   0.466488 0.615405 0.234385 -0.223959
C15   C     C_R   0.549559 0.496850 0.864639 -0.152503
C16   C     C_R   0.487357 0.651614 0.155834 -0.161592
C17   C     C_R   0.464339 0.577001 0.901317 0.081617
C18   C     C_R   0.577208 0.596369 0.102605 0.088035
C19   C     C_R   0.375130 0.629314 0.858097 0.165587
C20   C     C_R   0.652796 0.508235 0.129380 0.160159
C21   C     C_R   0.376865 0.605243 0.775821 0.115474
C22   C     C_R   0.631725 0.471429 0.209587 0.118571
C23   C     C_2   0.466489 0.600599 0.986294 -0.170402
C24   C     C_2   0.574644 0.615321 0.017067 -0.182182
H1    H     H_    0.618707 0.410722 0.756986 0.175755
H2    H     H_    0.396202 0.659269 0.274648 0.173085
H3    H     H_    0.661869 0.620194 0.978023 0.191444
H4    H     H_    0.379125 0.593124 0.025057 0.187311
H5    H     H_    0.429761 0.719933 0.135476 0.175063
H6    H     H_    0.615547 0.453050 0.898360 0.183469
N1    N     N_1   0.819370 0.500000 0.500010 -0.068923
N2    N     N_1   0.180630 0.500000 0.499990 -0.066735
O1    O     O_R   0.397470 0.665550 0.500010 -0.598767
O2    O     O_R   0.602530 0.334450 0.499990 -0.599979
O3    O     O_R   0.602530 0.665550 0.499990 -0.607864
O4    O     O_R   0.397470 0.334450 0.500010 -0.605960
O5    O     O_R   0.385350 0.500000 0.615800 -0.588016
O6    O     O_R   0.614650 0.500000 0.384200 -0.590113
O7    O     O_R   0.590410 0.500000 0.615800 -0.612991
O8    O     O_R   0.409590 0.500000 0.384200 -0.613725
Zn1   Zn    Zn3+2 0.363080 0.500000 0.500000 1.018255
Zn2   Zn    Zn3+2 0.636920 0.500000 0.500000 1.017417
I1    I     I_    0.734960 0.329660 0.251171 -0.260440
I2    I     I_    0.253793 0.698761 0.707052 -0.257314
I3    I     I_    0.244370 0.749046 0.917500 -0.266986
I4    I     I_    0.791211 0.425899 0.047119 -0.290931

loop_
_geom_bond_atom_site_label_1
_geom_bond_atom_site_label_2
_ccdc_geom_bond_type
C2    C4    S    
C23   C24   D    
C19   I3    S    
N1    Zn2   S    
C21   I2    S    
C9    C11   S    
C22   I1    S    
O2    Zn2   S    
C24   H3    S    
C10   O6    A    
N2    Zn1   S    
O1    Zn1   S    
C2    O2    A    
C9    O5    A    
C1    O1    A    
C7    C8    S    
C23   H4    S    
C14   H2    S    
C11   C13   A    
C13   H1    S    
O4    Zn1   S    
C17   C23   S    
C10   C12   S    
C18   C24   S    
C4    C6    T    
O8    Zn1   S    
C19   C21   A    
C12   C14   A    
O6    Zn2   S    
O7    Zn2   S    
C18   C20   A    
C13   C15   A    
O5    Zn1   S    
C5    C6    S    
C14   C16   A    
C7    N1    T    
C8    N2    T    
C12   C22   A    
C9    O7    A    
C1    O3    A    
C15   H6    S    
C16   C18   A    
C2    O4    A    
C1    C3    S    
C15   C17   A    
O3    Zn2   S    
C10   O8    A    
C17   C19   A    
C16   H5    S    
C11   C21   A    
C20   I4    S    
C20   C22   A    
C3    C5    T    
