data_mof_unit_5496.cif
_audit_creation_date              2013-03-05T16:41:16-0500
_audit_creation_method            fapswitch 2.2
_symmetry_space_group_name_H-M    P1
_symmetry_Int_Tables_number       1
_space_group_crystal_system       triclinic
_cell_length_a                    10.67702
_cell_length_b                    10.75057
_cell_length_c                    9.842281
_cell_angle_alpha                 89.074503
_cell_angle_beta                  90.574714
_cell_angle_gamma                 90.156196
_cell_volume                      1129.52896163

loop_
_atom_site_label
_atom_site_type_symbol
_atom_site_description
_atom_site_fract_x
_atom_site_fract_y
_atom_site_fract_z
_atom_type_partial_charge
O1    O     O_R   0.500020 0.316790 0.614690 -0.613859
O2    O     O_R   0.500000 0.316760 0.385350 -0.622671
C1    C     C_R   0.496734 0.260161 0.500601 0.899419
O3    O     O_R   0.319080 0.500020 0.614640 -0.620933
O4    O     O_R   0.319070 0.499980 0.385300 -0.614224
C2    C     C_R   0.262117 0.496543 0.499114 0.939491
Zn1   Zn    Zn3+2 0.500010 0.500020 0.653130 0.931045
Zn2   Zn    Zn3+2 0.499990 0.499980 0.346870 0.927128
O5    O     O_R   0.500000 0.683240 0.614650 -0.622602
O6    O     O_R   0.499980 0.683210 0.385310 -0.628286
O7    O     O_R   0.680930 0.500020 0.614700 -0.627236
O8    O     O_R   0.680920 0.499980 0.385360 -0.638339
C3    C     C_R   0.499479 0.740414 0.497783 0.856249
C4    C     C_R   0.737222 0.512233 0.500276 0.897240
C5    C     C_2   0.932277 0.528975 0.387556 -0.208451
C6    C     C_2   0.865536 0.554395 0.498886 -0.046115
H1    H     H_    0.889273 0.488079 0.298182 0.155590
C7    C     C_2   0.066841 0.533460 0.387566 -0.182220
C8    C     C_2   0.129334 0.489082 0.495685 -0.361306
H2    H     H_    0.113801 0.566343 0.296298 0.170442
H3    H     H_    0.081960 0.451182 0.584503 0.152193
C9    C     C_R   0.453730 0.060489 0.614293 0.125004
C10   C     C_R   0.480286 0.129145 0.497778 -0.137142
C11   C     C_R   0.486210 0.070248 0.372408 -0.265868
H4    H     H_    0.498271 0.124339 0.279515 0.175472
C12   C     C_R   0.491472 0.941867 0.365680 0.076741
C13   C     C_R   0.485246 0.872539 0.490709 -0.142189
C14   C     C_R   0.455407 0.933596 0.610510 0.113993
C15   C     C_3   0.510957 0.923120 0.750498 -0.482570
C16   C     C_3   0.509928 0.064091 0.753662 -0.483808
H5    H     H_    0.445263 0.879272 0.824097 0.206934
H6    H     H_    0.606732 0.883516 0.751779 0.210980
H7    H     H_    0.443946 0.101200 0.829476 0.195952
H8    H     H_    0.605293 0.105980 0.755326 0.208167
C17   C     C_R   0.390181 0.490565 0.070339 0.203175
N1    N     N_R   0.499170 0.499140 0.142800 -0.105685
C18   C     C_R   0.607563 0.519072 0.072711 -0.136106
H9    H     H_    0.694619 0.533467 0.127199 0.153142
C19   C     C_R   0.607543 0.519291 0.928762 -0.157535
H10   H     H_    0.694542 0.533712 0.875464 0.154538
N2    N     N_R   0.499170 0.499180 0.857150 -0.104832
C20   C     C_R   0.390152 0.490796 0.927607 0.227074
C21   C     C_3   0.299110 0.385601 0.922475 -0.512733
C22   C     C_3   0.299553 0.384935 0.076771 -0.506676
H11   H     H_    0.207782 0.414479 0.877012 0.197168
H12   H     H_    0.340081 0.300376 0.878767 0.209468
H13   H     H_    0.208308 0.412923 0.120030 0.198697
H14   H     H_    0.341210 0.299343 0.123127 0.212481
C23   C     C_3   0.913997 0.633916 0.615921 -0.407579
C24   C     C_3   0.834234 0.751165 0.633189 -0.357671
C25   C     C_3   0.894304 0.839416 0.735102 -0.906620
H15   H     H_    0.906948 0.791637 0.835191 0.261344
H16   H     H_    0.986875 0.872078 0.697978 0.265476
H17   H     H_    0.833333 0.921762 0.748164 0.250468
H18   H     H_    0.823046 0.800839 0.533779 0.215959
H19   H     H_    0.740175 0.724712 0.670656 0.239241
H20   H     H_    0.913232 0.577514 0.711586 0.189794
H21   H     H_    0.011265 0.666371 0.598804 0.235353
C26   C     C_3   0.518089 0.890011 0.225433 -0.363799
C27   C     C_3   0.657871 0.859788 0.209522 -0.315040
C28   C     C_3   0.691263 0.842366 0.060630 -0.919134
H22   H     H_    0.626751 0.774795 0.012374 0.270898
H23   H     H_    0.684798 0.932603 0.004454 0.268293
H24   H     H_    0.788609 0.807261 0.053663 0.246917
H25   H     H_    0.715956 0.937124 0.249941 0.216079
H26   H     H_    0.682741 0.773970 0.267710 0.235483
H27   H     H_    0.457014 0.809852 0.200517 0.215084
H28   H     H_    0.492207 0.960216 0.145673 0.183059

loop_
_geom_bond_atom_site_label_1
_geom_bond_atom_site_label_2
_geom_bond_distance
_ccdc_geom_bond_type
O4    Zn2   1.972088 S    
C25   H16   1.111277 S    
C10   C11   1.398039 A    
N2    C20   1.362893 A    
C15   C16   1.516418 S    
C17   C22   1.490904 S    
O2    C1    1.279272 A    
C26   H28   1.113509 S    
C5    C7    1.437415 S    
C12   C26   1.526604 S    
C1    C10   1.419609 S    
C24   H18   1.112604 S    
C22   H13   1.111298 S    
Zn2   O8    1.964855 S    
C25   H17   1.110175 S    
C26   H27   1.108396 S    
Zn1   O5    1.999782 S    
C24   C25   1.527130 S    
C27   H26   1.109457 S    
C26   C27   1.538333 S    
C15   H5    1.111879 S    
C9    C14   1.365452 A    
C11   H4    1.084164 S    
C28   H24   1.109881 S    
Zn1   O7    1.972089 S    
C2    C8    1.419872 S    
C21   H11   1.111695 S    
C12   C13   1.430367 A    
C18   H9    1.080465 S    
O3    Zn1   1.964855 S    
O4    C2    1.279910 A    
Zn2   O6    2.011824 S    
N1    C18   1.367869 A    
C21   H12   1.111106 S    
C11   C12   1.384142 A    
C27   H25   1.112219 S    
C7    C8    1.332779 D    
C15   H6    1.108639 S    
C7    H2    1.086776 S    
Zn1   N2    2.008006 S    
C21   C22   1.518488 S    
C28   H22   1.108860 S    
C18   C19   1.416751 A    
O7    C4    1.286532 A    
C4    C6    1.441996 S    
O3    C2    1.285120 A    
C20   C21   1.490391 S    
C16   H8    1.112308 S    
C25   H15   1.110788 S    
C22   H14   1.112332 S    
C13   C14   1.398698 A    
C23   H20   1.111738 S    
C6    C23   1.530646 S    
C19   N2    1.367330 A    
C28   H23   1.110774 S    
C23   C24   1.535798 S    
Zn2   N1    2.008612 S    
O2    Zn2   1.999784 S    
C19   H10   1.080935 S    
C5    H1    1.086819 S    
C17   C20   1.404764 A    
O5    C3    1.295346 A    
C9    C10   1.385020 A    
C14   C15   1.497249 S    
C3    C13   1.429442 S    
C9    C16   1.492719 S    
C16   H7    1.110836 S    
C8    H3    1.087323 S    
O1    Zn1   2.011824 S    
C5    C6    1.345187 D    
C24   H19   1.108102 S    
C23   H21   1.108285 S    
C17   N1    1.362412 A    
O8    C4    1.284015 A    
C27   C28   1.526245 S    
O1    C1    1.286060 A    
O6    C3    1.275064 A    
