data_mof_unit_5602.cif
_audit_creation_date              2012-12-10T19:44:24-0500
_audit_creation_method            fapswitch 2.2
_symmetry_space_group_name_H-M    P1
_symmetry_Int_Tables_number       1
_space_group_crystal_system       triclinic
_cell_length_a                    10.859503
_cell_length_b                    12.293597
_cell_length_c                    13.233554
_cell_angle_alpha                 116.531968
_cell_angle_beta                  77.723494
_cell_angle_gamma                 100.921235
_cell_volume                      1535.45913639

loop_
_atom_site_label
_atom_site_type_symbol
_atom_type_description
_atom_site_fract_x
_atom_site_fract_y
_atom_site_fract_z
_atom_type_partial_charge
C1    C     C_R   0.514664 0.854788 0.286813 0.760705
C2    C     C_R   0.686477 0.720229 0.720459 -0.191502
C3    C     C_R   0.041620 0.934421 0.546037 -0.243723
C4    C     C_R   0.130088 0.998310 0.492981 -0.088256
C5    C     C_R   0.088922 0.061768 0.441619 0.002129
C6    C     C_R   0.959514 0.062402 0.448922 -0.246777
C7    C     C_R   0.870777 0.998807 0.502748 -0.082656
C8    C     C_R   0.912603 0.932819 0.551239 0.025376
C9    C     C_R   0.171642 0.250839 0.410381 -0.169732
C10   C     C_R   0.255137 0.311797 0.351460 -0.152418
C11   C     C_R   0.344906 0.249001 0.260491 -0.122864
C12   C     C_R   0.737117 0.000212 0.502048 0.787361
C13   C     C_R   0.349395 0.124525 0.226629 -0.119048
C14   C     C_R   0.263841 0.062337 0.283158 -0.083811
C15   C     C_R   0.176344 0.125791 0.377576 0.123104
C16   C     C_R   0.315636 0.282793 0.013557 -0.204544
C17   C     C_R   0.454022 0.227894 0.833478 -0.054737
C18   C     C_R   0.634615 0.808682 0.095699 -0.143919
C19   C     C_R   0.680296 0.724546 0.988366 -0.107353
C20   C     C_R   0.628996 0.602806 0.948581 -0.216071
C21   C     C_R   0.525978 0.562832 0.014484 0.085102
C22   C     C_R   0.476140 0.650521 0.122623 0.084507
C23   C     C_R   0.480809 0.145061 0.713071 0.793037
C24   C     C_R   0.471490 0.438769 0.977286 0.081419
C25   C     C_R   0.369104 0.404896 0.048258 0.163792
C26   C     C_R   0.317565 0.493708 0.150989 -0.256507
C27   C     C_R   0.367677 0.615036 0.186002 -0.200867
C28   C     C_R   0.513017 0.347450 0.870273 -0.253591
C29   C     C_R   0.357808 0.194599 0.906451 -0.222537
C30   C     C_R   0.536333 0.771992 0.165229 -0.118001
C31   C     C_R   0.696108 0.342287 0.323038 -0.316656
C32   C     C_R   0.327981 0.759784 0.645059 0.045833
C33   C     C_R   0.291110 0.663167 0.676527 -0.252580
C34   C     C_R   0.263204 0.998912 0.496665 0.785813
C35   C     C_R   0.355356 0.559201 0.621338 -0.196189
C36   C     C_R   0.457561 0.550481 0.533092 -0.007694
C37   C     C_R   0.491818 0.651924 0.503792 0.296536
C38   C     C_R   0.527210 0.445668 0.473172 -0.037375
C39   C     C_R   0.626356 0.443095 0.383249 0.160578
C40   C     C_R   0.657040 0.542024 0.355163 -0.290991
C41   C     C_R   0.593073 0.644958 0.415620 -0.155890
C42   C     C_R   0.503530 0.342533 0.498281 0.046187
C43   C     C_R   0.668167 0.244147 0.352156 0.069590
C44   C     C_R   0.680515 0.846647 0.770146 0.542197
C45   C     C_R   0.753088 0.916917 0.713530 -0.200277
C46   C     C_R   0.828004 0.859841 0.607500 0.071957
C47   C     C_R   0.833968 0.733223 0.560528 -0.156911
C48   C     C_R   0.763517 0.663977 0.616870 -0.227642
Cu1   Cu    Cu3+1 0.529370 0.098270 0.475420 0.936463
Cu2   Cu    Cu3+1 0.470630 0.901730 0.524580 0.914218
H1    H     H_    0.631414 0.665239 0.762649 0.156717
H2    H     H_    0.411567 0.297007 0.216817 0.148594
H3    H     H_    0.420048 0.076428 0.157446 0.133866
H4    H     H_    0.268093 0.965673 0.255590 0.101194
H5    H     H_    0.310556 0.102263 0.878310 0.140271
H6    H     H_    0.236285 0.469641 0.203622 0.140844
H7    H     H_    0.237870 0.256481 0.067559 0.140745
H8    H     H_    0.587647 0.367027 0.810876 0.141899
H9    H     H_    0.681600 0.901182 0.126997 0.148800
H10   H     H_    0.673166 0.543018 0.866056 0.121556
H11   H     H_    0.759304 0.753076 0.937004 0.148195
H12   H     H_    0.318955 0.680830 0.262972 0.166315
H13   H     H_    0.721050 0.165568 0.305763 0.119837
H14   H     H_    0.733981 0.541460 0.287621 0.150227
H15   H     H_    0.771976 0.339641 0.254175 0.138713
H16   H     H_    0.429596 0.336080 0.564559 0.125995
H17   H     H_    0.277746 0.840265 0.688410 0.120956
H18   H     H_    0.322433 0.486988 0.648842 0.138101
H19   H     H_    0.212453 0.668856 0.743861 0.143255
H20   H     H_    0.628519 0.718003 0.391423 0.205854
H21   H     H_    0.754750 0.015468 0.752892 0.116546
H22   H     H_    0.893938 0.688271 0.480370 0.140533
H23   H     H_    0.768776 0.566435 0.580254 0.162826
H24   H     H_    0.072805 0.886202 0.585979 0.160463
H25   H     H_    0.928186 0.110138 0.408641 0.156383
H26   H     H_    0.104423 0.301334 0.482349 0.128565
H27   H     H_    0.251704 0.408232 0.377558 0.140989
N1    N     N_R   0.573890 0.246290 0.438210 -0.180519
N2    N     N_R   0.426890 0.754320 0.561170 -0.209319
O1    O     O_R   0.536940 0.972510 0.318130 -0.581074
O2    O     O_R   0.487330 0.806530 0.359650 -0.600859
O3    O     O_R   0.705160 0.082990 0.479250 -0.588717
O4    O     O_R   0.655550 0.917010 0.520760 -0.593508
O5    O     O_R   0.512670 0.193470 0.640350 -0.584078
O6    O     O_R   0.463060 0.027490 0.681870 -0.605695
O7    O     O_R   0.344450 0.082990 0.479240 -0.570910
O8    O     O_R   0.294840 0.917010 0.520750 -0.595900
O9    O     O_3   0.614134 0.899399 0.879129 -0.598292
C49   C     C_3   0.527092 0.972816 0.882359 -0.314194
H28   H     H_    0.472575 0.925625 0.809402 0.184672
H29   H     H_    0.575510 0.062460 0.886546 0.169394
H30   H     H_    0.457100 0.990880 0.960623 0.175974

loop_
_geom_bond_atom_site_label_1
_geom_bond_atom_site_label_2
_ccdc_geom_bond_type
C45   H21   S    
C17   C29   A    
C35   C36   A    
Cu2   N2    S    
C43   H13   S    
C7    C8    A    
C45   C46   A    
C43   N1    A    
C37   N2    A    
C26   C27   A    
C17   C23   S    
C31   C43   A    
Cu1   O5    S    
C36   C37   A    
C38   C42   A    
C5    C6    A    
C1    O2    A    
Cu1   N1    S    
C18   C19   A    
C34   O7    A    
C3    H24   S    
C11   H2    S    
Cu2   O6    S    
C19   C20   A    
C2    C44   A    
C18   C30   A    
C9    H26   S    
C20   H10   S    
C9    C10   A    
C33   H19   S    
C34   O8    A    
C21   C22   A    
C48   H23   S    
C10   H27   S    
Cu2   O4    S    
C13   H3    S    
C7    C12   S    
C4    C34   S    
C23   O5    A    
C6    H25   S    
C24   C25   A    
C3    C8    A    
C2    H1    S    
C39   C40   A    
C29   H5    S    
C2    C48   A    
C25   C26   A    
C12   O4    A    
Cu1   O3    S    
C27   H12   S    
C47   C48   A    
C12   O3    A    
C20   C21   A    
C49   H30   S    
Cu2   O8    S    
C32   H17   S    
C40   C41   A    
C14   H4    S    
C42   N1    A    
C22   C27   A    
C49   H29   S    
C3    C4    A    
C44   C45   A    
C16   C25   A    
C31   H15   S    
C46   C47   A    
C22   C30   A    
C17   C28   A    
Cu1   O7    S    
C24   C28   A    
C4    C5    A    
C26   H6    S    
C6    C7    A    
C28   H8    S    
C40   H14   S    
Cu1   O1    S    
C32   C33   A    
C36   C38   A    
C9    C15   A    
C44   O9    S    
C32   N2    A    
C11   C13   A    
C38   C39   A    
C35   H18   S    
C19   H11   S    
C1    C30   S    
C33   C35   A    
C31   C39   A    
C16   H7    S    
C37   C41   A    
C8    C46   S    
C47   H22   S    
C5    C15   S    
C10   C11   A    
C18   H9    S    
O9    C49   S    
C16   C29   A    
Cu1   Cu2   S    
C23   O6    A    
C21   C24   A    
C42   H16   S    
C1    O1    A    
C14   C15   A    
C49   H28   S    
C13   C14   A    
Cu2   O2    S    
C41   H20   S    
