data_mof_unit_15954.cif
_audit_creation_date              2012-12-11T15:55:00-0500
_audit_creation_method            fapswitch 2.2
_symmetry_space_group_name_H-M    P1
_symmetry_Int_Tables_number       1
_space_group_crystal_system       triclinic
_cell_length_a                    17.856764
_cell_length_b                    24.21644
_cell_length_c                    15.143433
_cell_angle_alpha                 90.089764
_cell_angle_beta                  126.464329
_cell_angle_gamma                 90.039432
_cell_volume                      5266.40978627

loop_
_atom_site_label
_atom_site_type_symbol
_atom_type_description
_atom_site_fract_x
_atom_site_fract_y
_atom_site_fract_z
_atom_type_partial_charge
C1    C     C_R   0.906415 0.869484 0.090413 -0.105240
C2    C     C_R   0.130177 0.843422 0.088226 -0.065428
C3    C     C_R   0.320004 0.645511 0.997106 -0.001708
C4    C     C_R   0.705184 0.999878 0.625695 0.053870
C5    C     C_R   0.207312 0.499871 0.624685 0.038969
C6    C     C_R   0.057200 0.000149 0.361685 -0.018772
C7    C     C_R   0.563416 0.500255 0.365104 0.091272
C8    C     C_R   0.266430 0.953493 0.249276 -0.121561
C9    C     C_R   0.266213 0.045727 0.243467 -0.086912
C10   C     C_R   0.767109 0.454117 0.249384 -0.119075
C11   C     C_R   0.766996 0.546614 0.252520 -0.013981
C12   C     C_R   0.019888 0.046629 0.755067 -0.084750
C13   C     C_R   0.632383 0.656201 0.089695 -0.074189
C14   C     C_R   0.018251 0.954235 0.751950 -0.067067
C15   C     C_R   0.518306 0.545830 0.752010 -0.100068
C16   C     C_R   0.520236 0.453565 0.755328 -0.073726
C17   C     C_2   0.932570 0.085781 0.525149 0.589997
C18   C     C_2   0.869486 0.974402 0.487532 0.569461
C19   C     C_2   0.374034 0.515938 0.488091 0.672553
C20   C     C_2   0.459149 0.400116 0.543385 0.547471
C21   C     C_2   0.233595 0.012030 0.577448 0.617291
C22   C     C_2   0.173247 0.918281 0.546914 0.457616
C23   C     C_2   0.675507 0.583991 0.544446 0.418154
C24   C     C_R   0.629848 0.343387 0.088629 -0.074524
C25   C     C_2   0.745024 0.492036 0.596901 0.635145
C26   C     C_2   0.736652 0.237799 0.831978 0.534412
C27   C     C_2   0.734382 0.763156 0.828304 0.632062
C28   C     C_2   0.263655 0.744577 0.855554 0.591234
C29   C     C_2   0.220234 0.267661 0.818980 0.603701
C30   C     C_2   0.516816 0.214546 0.800408 0.549657
C31   C     C_2   0.516502 0.783297 0.799693 0.658075
C32   C     C_2   0.029524 0.731540 0.782170 0.508268
C33   C     C_2   0.012292 0.291532 0.814447 0.677496
C34   C     C_2   0.129369 0.812249 0.822584 0.496865
C35   C     C_R   0.322973 0.999591 0.278890 -0.008611
C36   C     C_2   0.077968 0.210099 0.786491 0.530205
C37   C     C_2   0.594293 0.297162 0.795593 0.504940
C38   C     C_2   0.595803 0.701177 0.795739 0.562739
C39   C     C_2   0.749129 0.116870 0.118427 0.666184
C40   C     C_2   0.748768 0.883146 0.117664 0.695016
C41   C     C_2   0.226965 0.611552 0.089353 0.665392
C42   C     C_2   0.259967 0.380394 0.132310 0.730675
C43   C     C_2   0.553623 0.187244 0.016169 0.544556
C44   C     C_2   0.553892 0.808934 0.018245 0.601356
C45   C     C_2   0.035488 0.688687 0.978035 0.597669
C46   C     C_R   0.823698 0.500440 0.287061 -0.014194
C47   C     C_2   0.064537 0.309225 0.039139 0.602585
C48   C     C_2   0.183535 0.704743 0.158082 0.475928
C49   C     C_2   0.221313 0.280080 0.188800 0.565810
C50   C     C_2   0.707488 0.214269 0.178882 0.489839
C51   C     C_2   0.709135 0.785097 0.178916 0.566538
C52   C     C_2   0.629239 0.910179 0.448089 0.482363
C53   C     C_2   0.616491 0.020483 0.365411 0.525478
C54   C     C_2   0.118031 0.474567 0.369521 0.591157
C55   C     C_2   0.125881 0.583465 0.431105 0.499478
C56   C     C_2   0.405729 0.956644 0.511099 0.418454
C57   C     C_R   0.040152 0.001011 0.717836 -0.016893
C58   C     C_2   0.384164 0.055781 0.490319 0.448972
C59   C     C_2   0.892091 0.440066 0.496148 0.511491
C60   C     C_2   0.907614 0.537838 0.527764 0.579927
C61   C     C_2   0.944203 0.829638 0.807381 0.514769
C62   C     C_2   0.939666 0.172625 0.817882 0.536945
C63   C     C_2   0.441463 0.329407 0.810577 0.514064
C64   C     C_2   0.442312 0.672625 0.814753 0.504562
C65   C     C_2   0.147669 0.172772 0.193651 0.448434
C66   C     C_2   0.139819 0.823604 0.186628 0.449849
C67   C     C_2   0.646209 0.674181 0.191409 0.458578
C68   C     C_R   0.541906 0.499276 0.719138 -0.041427
C69   C     C_2   0.639922 0.324580 0.187786 0.454462
C70   C     C_R   0.093007 0.809655 0.995658 0.039934
C71   C     C_R   0.092474 0.190744 0.998412 -0.113964
C72   C     C_R   0.591692 0.309287 0.996103 0.049149
C73   C     C_R   0.906888 0.130632 0.091038 -0.052676
C74   C     C_R   0.593799 0.690266 0.997354 -0.110877
C75   C     C_3   0.045225 0.060506 0.482852 -0.380414
C76   C     C_3   0.974063 0.966512 0.430649 -0.539088
C77   C     C_3   0.480606 0.535054 0.433267 -0.474607
C78   C     C_3   0.547247 0.441124 0.484124 -0.482980
C79   C     C_3   0.031213 0.063329 0.573674 -0.137490
C80   C     C_3   0.969370 0.960991 0.528479 -0.072703
C81   C     C_3   0.470183 0.536432 0.527351 -0.120456
C82   C     C_3   0.545550 0.436301 0.583497 -0.087132
C83   C     C_3   0.155952 0.977695 0.566528 -0.185272
C84   C     C_R   0.406859 0.369255 0.090815 -0.111976
C85   C     C_3   0.660969 0.525173 0.570389 -0.202440
C86   C     C_3   0.060425 0.000292 0.461257 0.152692
C87   C     C_3   0.566364 0.500764 0.464801 0.217791
C88   C     C_3   0.048605 0.001626 0.625425 0.205672
C89   C     C_3   0.552961 0.499057 0.628263 0.230022
C90   C     C_R   0.812819 0.126021 0.906474 -0.137052
C91   C     C_R   0.812409 0.874214 0.905718 -0.048465
C92   C     C_R   0.312746 0.626011 0.906144 -0.132522
C93   C     C_R   0.312134 0.374613 0.906431 -0.042145
C94   C     C_3   0.151286 0.980303 0.669935 -0.012357
C95   C     C_R   0.406376 0.629791 0.091062 -0.058465
C96   C     C_3   0.653561 0.525121 0.672117 -0.064709
C97   C     C_3   0.685716 0.209391 0.873158 -0.228505
C98   C     C_3   0.684772 0.790549 0.871823 -0.289121
C99   C     C_3   0.200185 0.717105 0.879516 -0.228510
C100  C     C_3   0.177657 0.295046 0.871303 -0.278294
C101  C     C_3   0.125716 0.756700 0.869071 -0.179495
C102  C     C_3   0.102245 0.258015 0.866166 -0.242160
C103  C     C_3   0.609428 0.246475 0.865093 -0.184466
C104  C     C_3   0.609853 0.752359 0.864653 -0.254596
C105  C     C_3   0.315818 0.730821 0.084864 -0.385653
C106  C     C_R   0.036136 0.844584 0.907854 -0.157233
C107  C     C_3   0.311332 0.263135 0.061829 -0.411517
C108  C     C_3   0.813447 0.235440 0.070539 -0.392974
C109  C     C_3   0.813793 0.764796 0.068979 -0.419481
C110  C     C_3   0.696188 0.159699 0.027724 -0.409910
C111  C     C_3   0.695975 0.839988 0.027112 -0.302989
C112  C     C_3   0.185348 0.659147 0.007884 -0.406159
C113  C     C_3   0.201822 0.339672 0.038142 -0.323371
C114  C     C_3   0.755331 0.186520 0.992991 0.145564
C115  C     C_3   0.754939 0.813513 0.991764 0.109920
C116  C     C_3   0.256803 0.687100 0.993354 0.133042
C117  C     C_R   0.034997 0.156067 0.910061 -0.096097
C118  C     C_3   0.254010 0.314264 0.992757 0.107545
C119  C     C_3   0.148087 0.762903 0.990244 0.058073
C120  C     C_3   0.145399 0.238646 0.991603 0.048120
C121  C     C_3   0.645517 0.261672 0.990145 0.066160
C122  C     C_3   0.646927 0.737694 0.990265 0.050079
C123  C     C_3   0.254513 0.779347 0.069301 -0.425681
C124  C     C_3   0.245675 0.215879 0.040522 -0.366689
C125  C     C_3   0.748807 0.282929 0.050726 -0.428745
C126  C     C_3   0.750077 0.716895 0.049731 -0.360752
C127  C     C_3   0.137057 0.704544 0.033659 -0.172088
C128  C     C_R   0.535282 0.344350 0.908377 -0.152628
C129  C     C_3   0.157642 0.291624 0.064704 -0.208391
C130  C     C_3   0.649796 0.206504 0.053591 -0.179572
C131  C     C_3   0.650761 0.792718 0.053715 -0.211203
C132  C     C_3   0.469077 0.945512 0.367794 -0.464609
C133  C     C_3   0.473530 0.046862 0.350995 -0.502221
C134  C     C_3   0.971116 0.452548 0.355257 -0.447636
C135  C     C_3   0.968967 0.554859 0.374433 -0.493108
C136  C     C_R   0.752776 0.954666 0.691095 -0.152282
C137  C     C_R   0.749746 0.045434 0.692858 -0.021803
C138  C     C_R   0.252627 0.454482 0.691455 -0.149442
C139  C     C_R   0.536032 0.655723 0.909348 -0.101402
C140  C     C_R   0.252079 0.545331 0.691958 -0.027888
C141  C     C_3   0.568404 0.937979 0.475097 -0.096796
C142  C     C_3   0.582270 0.041218 0.431765 -0.067289
C143  C     C_3   0.080129 0.456653 0.432640 -0.125565
C144  C     C_3   0.072478 0.560617 0.473923 -0.101031
C145  C     C_3   0.440234 0.008627 0.486600 -0.158047
C146  C     C_3   0.943735 0.490348 0.494754 -0.258948
C147  C     C_3   0.424217 0.000490 0.370513 0.223466
C148  C     C_3   0.924939 0.499796 0.377856 0.248140
C149  C     C_3   0.604406 0.999264 0.528916 0.097749
C150  C     C_R   0.131956 0.156148 0.090263 -0.066522
C151  C     C_3   0.106260 0.499804 0.529575 0.184984
C152  C     C_3   0.548632 0.019918 0.577130 0.004691
C153  C     C_3   0.053164 0.480805 0.582376 -0.009033
C154  C     C_R   0.047763 0.046126 0.302240 -0.137420
C155  C     C_R   0.045644 0.953965 0.301592 -0.077480
C156  C     C_R   0.549748 0.546159 0.303652 -0.150688
C157  C     C_R   0.549930 0.454139 0.303351 -0.044459
C158  C     C_R   0.819423 0.854361 0.996081 0.004502
C159  C     C_R   0.820079 0.145923 0.997095 -0.001401
C160  C     C_R   0.319306 0.354595 0.996866 0.006650
H1    H     H_    0.935930 0.859671 0.174707 0.088183
H2    H     H_    0.648446 0.826980 0.818102 0.166674
H3    H     H_    0.637536 0.664619 0.834706 -0.052328
H4    H     H_    0.811809 0.128327 0.198028 0.013537
H5    H     H_    0.811574 0.872041 0.197263 -0.068346
H6    H     H_    0.287420 0.618224 0.173451 -0.018931
H7    H     H_    0.323306 0.367055 0.209298 -0.066852
H8    H     H_    0.530226 0.145378 0.986524 0.047230
H9    H     H_    0.508485 0.777831 0.014912 0.021220
H10   H     H_    0.007075 0.650695 0.930989 0.013195
H11   H     H_    0.017282 0.278327 0.032238 0.023282
H12   H     H_    0.251607 0.722471 0.216522 0.027583
H13   H     H_    0.161858 0.684532 0.815752 0.157311
H14   H     H_    0.278285 0.251164 0.225290 -0.004716
H15   H     H_    0.769348 0.239620 0.223966 0.027580
H16   H     H_    0.770035 0.759096 0.223248 -0.011234
H17   H     H_    0.696258 0.927265 0.477018 0.064952
H18   H     H_    0.579624 0.988368 0.304252 0.029283
H19   H     H_    0.192526 0.478189 0.414396 0.091983
H20   H     H_    0.088603 0.603712 0.351722 0.090093
H21   H     H_    0.525706 0.862810 0.500835 0.185874
H22   H     H_    0.624147 0.884317 0.611352 0.125139
H23   H     H_    0.592057 0.124500 0.406521 0.163511
H24   H     H_    0.143249 0.333112 0.822673 0.165255
H25   H     H_    0.693244 0.097717 0.508216 0.195681
H26   H     H_    0.083567 0.372517 0.408171 0.161460
H27   H     H_    0.187838 0.398640 0.501663 0.126014
H28   H     H_    0.020976 0.608654 0.544488 0.167653
H29   H     H_    0.094509 0.642367 0.533336 0.151210
H30   H     H_    0.379070 0.921187 0.457199 0.095572
H31   H     H_    0.367168 0.053676 0.547865 0.114401
H32   H     H_    0.861274 0.408929 0.433100 0.072348
H33   H     H_    0.918736 0.536321 0.606400 0.055691
H34   H     H_    0.577205 0.950467 0.681599 0.164521
H35   H     H_    0.374934 0.746103 0.085608 0.191591
H36   H     H_    0.552336 0.009059 0.717017 0.163563
H37   H     H_    0.551213 0.092148 0.657269 0.143539
H38   H     H_    0.530118 0.105755 0.536773 0.198313
H39   H     H_    0.033587 0.393784 0.548557 0.146199
H40   H     H_    0.067922 0.410389 0.674865 0.172188
H41   H     H_    0.062018 0.494458 0.725195 0.136271
H42   H     H_    0.079892 0.552382 0.681074 0.095546
H43   H     H_    0.915038 0.853023 0.732650 0.025333
H44   H     H_    0.907052 0.207894 0.825900 0.022541
H45   H     H_    0.410912 0.351918 0.734591 0.065734
H46   H     H_    0.359894 0.249195 0.043227 0.212262
H47   H     H_    0.409424 0.708002 0.821606 0.043181
H48   H     H_    0.200284 0.152219 0.269655 0.075601
H49   H     H_    0.107421 0.785314 0.183775 0.097112
H50   H     H_    0.700200 0.655838 0.269433 0.065025
H51   H     H_    0.606544 0.286872 0.185897 0.106835
H52   H     H_    0.866031 0.250222 0.058914 0.180602
H53   H     H_    0.866175 0.750418 0.056749 0.205115
H54   H     H_    0.755621 0.128599 0.820921 0.138670
H55   H     H_    0.755347 0.871750 0.819746 0.117977
H56   H     H_    0.256241 0.629499 0.820151 0.126011
H57   H     H_    0.936594 0.140219 0.175589 0.094839
H58   H     H_    0.254191 0.372929 0.820964 0.125224
H59   H     H_    0.270342 0.814996 0.037130 0.166938
H60   H     H_    0.243522 0.185593 0.984166 0.156861
H61   H     H_    0.753205 0.315482 0.002710 0.168481
H62   H     H_    0.754382 0.684595 0.001091 0.157006
H63   H     H_    0.639833 0.135900 0.954628 0.148323
H64   H     H_    0.639021 0.863302 0.954110 0.189776
H65   H     H_    0.131277 0.639753 0.927084 0.138032
H66   H     H_    0.144208 0.364971 0.969836 0.188131
H67   H     H_    0.347859 0.712101 0.166865 0.157867
H68   H     H_    0.437134 0.359140 0.175221 0.083867
H69   H     H_    0.356097 0.273845 0.150579 0.152830
H70   H     H_    0.853859 0.221995 0.157521 0.160165
H71   H     H_    0.854338 0.778293 0.156071 0.151555
H72   H     H_    0.277629 0.793436 0.151666 0.166157
H73   H     H_    0.277788 0.192360 0.117881 0.153572
H74   H     H_    0.777975 0.303264 0.130730 0.163109
H75   H     H_    0.779984 0.696456 0.129665 0.147528
H76   H     H_    0.428198 0.908199 0.353971 0.156739
H77   H     H_    0.450836 0.087953 0.358796 0.209424
H78   H     H_    0.948763 0.412073 0.366441 0.129365
H79   H     H_    0.435546 0.638601 0.175721 0.098658
H80   H     H_    0.931766 0.592439 0.369516 0.188767
H81   H     H_    0.467929 0.945342 0.293646 0.180064
H82   H     H_    0.448912 0.045560 0.263941 0.154241
H83   H     H_    0.942535 0.452277 0.267016 0.216240
H84   H     H_    0.960181 0.555118 0.295147 0.174949
H85   H     H_    0.753606 0.913744 0.663826 0.110504
H86   H     H_    0.735561 0.088501 0.672762 0.136179
H87   H     H_    0.240877 0.411340 0.670529 0.142570
H88   H     H_    0.244809 0.588056 0.668952 0.181182
H89   H     H_    0.063375 0.088778 0.328334 0.109837
H90   H     H_    0.985560 0.079249 0.405554 0.197807
H91   H     H_    0.055835 0.911187 0.325521 0.104297
H92   H     H_    0.561091 0.589010 0.328286 0.118903
H93   H     H_    0.563597 0.411336 0.327874 0.129979
H94   H     H_    0.284350 0.910464 0.259648 0.144311
H95   H     H_    0.285874 0.088251 0.247105 0.131236
H96   H     H_    0.787051 0.411495 0.255084 0.130683
H97   H     H_    0.785379 0.589627 0.262726 0.095491
H98   H     H_    0.032620 0.089621 0.752159 0.121969
H99   H     H_    0.027786 0.911428 0.742750 0.119598
H100  H     H_    0.527817 0.588728 0.743358 0.167099
H101  H     H_    0.911339 0.987700 0.359668 0.218580
H102  H     H_    0.529095 0.410377 0.748614 0.115103
H103  H     H_    0.104303 0.086913 0.502897 0.169043
H104  H     H_    0.970859 0.925032 0.397172 0.146085
H105  H     H_    0.483319 0.577567 0.408120 0.128330
H106  H     H_    0.598030 0.411233 0.492364 0.216029
H107  H     H_    0.916342 0.102475 0.578149 0.106920
H108  H     H_    0.813156 0.974171 0.400242 0.103794
H109  H     H_    0.356248 0.515922 0.545252 0.064841
H110  H     H_    0.452949 0.360740 0.504988 0.090857
H111  H     H_    0.163074 0.102436 0.673079 0.186759
H112  H     H_    0.418340 0.517819 0.355668 0.238964
H113  H     H_    0.074882 0.144146 0.621729 0.155933
H114  H     H_    0.035150 0.883876 0.560575 0.170779
H115  H     H_    0.923520 0.879182 0.505664 0.134706
H116  H     H_    0.521427 0.618392 0.557456 0.159784
H117  H     H_    0.409360 0.614346 0.499767 0.170797
H118  H     H_    0.642822 0.403735 0.742440 0.104917
H119  H     H_    0.620606 0.361671 0.639827 0.158984
H120  H     H_    0.251320 0.002458 0.522036 0.031841
H121  H     H_    0.116706 0.889454 0.498251 0.034237
H122  H     H_    0.625433 0.616101 0.523114 0.062178
H123  H     H_    0.479371 0.427523 0.407445 0.145707
H124  H     H_    0.814474 0.504424 0.666151 0.028255
H125  H     H_    0.289168 0.000434 0.793214 0.172266
H126  H     H_    0.215594 0.021577 0.819897 0.095580
H127  H     H_    0.178140 0.928887 0.795722 0.094185
H128  H     H_    0.234816 0.911006 0.746483 0.170959
H129  H     H_    0.671286 0.580718 0.787488 0.111408
H130  H     H_    0.722681 0.600604 0.732961 0.120451
H131  H     H_    0.789291 0.519037 0.817895 0.114418
H132  H     H_    0.754954 0.459910 0.752469 0.131549
H133  H     H_    0.786217 0.270768 0.878635 0.000134
H134  H     H_    0.650107 0.173045 0.818636 0.165168
H135  H     H_    0.787114 0.731899 0.875511 0.050369
H136  H     H_    0.317706 0.773308 0.913302 -0.011201
H137  H     H_    0.270725 0.234704 0.860278 0.047955
H138  H     H_    0.471660 0.214069 0.825077 0.081710
H139  H     H_    0.472431 0.784736 0.825921 -0.038750
H140  H     H_    0.980926 0.721048 0.798863 0.066595
H141  H     H_    0.969317 0.287340 0.842052 -0.072898
H142  H     H_    0.163624 0.847876 0.875209 -0.025148
H143  H     H_    0.121948 0.173909 0.814356 -0.036112
H144  H     H_    0.638356 0.333034 0.833935 -0.047654
N1    N     N_R   0.950530 0.896220 0.057200 -0.042395
N2    N     N_R   0.818150 0.028600 0.792440 -0.046999
N3    N     N_R   0.318150 0.471400 0.792440 -0.058158
N4    N     N_R   0.318150 0.528600 0.792440 -0.054224
N5    N     N_R   0.025710 0.028600 0.207560 -0.043305
N6    N     N_R   0.025710 0.971400 0.207560 -0.032050
N7    N     N_R   0.525710 0.528600 0.207560 -0.051000
N8    N     N_R   0.525710 0.471400 0.207560 -0.048284
N9    N     N_R   0.181850 0.971400 0.207560 -0.024228
N10   N     N_R   0.181850 0.028600 0.207560 -0.065641
N11   N     N_R   0.681850 0.471400 0.207560 -0.017841
N12   N     N_R   0.950530 0.103780 0.057200 -0.045510
N13   N     N_R   0.681850 0.528600 0.207560 -0.060011
N14   N     N_R   0.974290 0.028600 0.792440 -0.010012
N15   N     N_R   0.974290 0.971400 0.792440 -0.043536
N16   N     N_R   0.474290 0.528600 0.792440 -0.027375
N17   N     N_R   0.474290 0.471400 0.792440 -0.058268
N18   N     N_R   0.049470 0.896220 0.942800 -0.092346
N19   N     N_R   0.049470 0.103780 0.942800 -0.057778
N20   N     N_R   0.549470 0.396220 0.942800 -0.088074
N21   N     N_R   0.549470 0.603780 0.942800 -0.054334
N22   N     N_R   0.106670 0.103780 0.057200 -0.083693
N23   N     N_R   0.450530 0.396220 0.057200 -0.044423
N24   N     N_R   0.106670 0.896220 0.057200 -0.053126
N25   N     N_R   0.606670 0.603780 0.057200 -0.083670
N26   N     N_R   0.606670 0.396220 0.057200 -0.053196
N27   N     N_3   0.097322 0.104699 0.655668 -0.244454
N28   N     N_3   0.983358 0.902374 0.561828 -0.188477
N29   N     N_3   0.472871 0.594905 0.557935 -0.197373
N30   N     N_3   0.627464 0.402872 0.664730 -0.209730
N31   N     N_3   0.223099 0.017552 0.756787 -0.178138
N32   N     N_3   0.169730 0.925301 0.721611 -0.197430
N33   N     N_3   0.661150 0.582121 0.712171 -0.213708
N34   N     N_R   0.450530 0.603780 0.057200 -0.044559
N35   N     N_3   0.730256 0.494007 0.769568 -0.210573
N36   N     N_3   0.560545 0.898909 0.544379 -0.199829
N37   N     N_3   0.622057 0.097005 0.472589 -0.201826
N38   N     N_3   0.118291 0.400769 0.473357 -0.211456
N39   N     N_3   0.081501 0.603102 0.550451 -0.223849
N40   N     N_3   0.584931 0.992932 0.683722 -0.202056
N41   N     N_3   0.567429 0.079764 0.604231 -0.207970
N42   N     N_3   0.074632 0.421376 0.613122 -0.195205
N43   N     N_3   0.091182 0.510172 0.687562 -0.203859
N44   N     N_R   0.893330 0.103780 0.942800 -0.052230
N45   N     N_R   0.893330 0.896220 0.942800 -0.048254
N46   N     N_R   0.393330 0.603780 0.942800 -0.052088
N47   N     N_R   0.393330 0.396220 0.942800 -0.048696
N48   N     N_R   0.818150 0.971400 0.792440 -0.053759
Ni1   Ni    Ni4+2 0.065600 0.934400 0.131190 0.273105
Ni2   Ni    Ni4+2 0.065600 0.065600 0.131190 0.226057
Ni3   Ni    Ni4+2 0.565600 0.434400 0.131190 0.282720
Ni4   Ni    Ni4+2 0.565600 0.565600 0.131190 0.245478
Ni5   Ni    Ni4+2 0.934400 0.065600 0.868810 0.276775
Ni6   Ni    Ni4+2 0.934400 0.934400 0.868810 0.239335
Ni7   Ni    Ni4+2 0.434400 0.565600 0.868810 0.272453
Ni8   Ni    Ni4+2 0.434400 0.434400 0.868810 0.233290
O1    O     O_2   0.870177 0.087170 0.426534 -0.550754
O2    O     O_2   0.711461 0.774303 0.736677 -0.530183
O3    O     O_2   0.251238 0.736202 0.768193 -0.555851
O4    O     O_2   0.194200 0.280937 0.726973 -0.546770
O5    O     O_2   0.488166 0.191438 0.713761 -0.523317
O6    O     O_2   0.486384 0.804979 0.711548 -0.490862
O7    O     O_2   0.004696 0.722378 0.688877 -0.509420
O8    O     O_2   0.982313 0.320614 0.733988 -0.506345
O9    O     O_2   0.098829 0.816617 0.726247 -0.544504
O10   O     O_2   0.011929 0.212641 0.689360 -0.535680
O11   O     O_2   0.536156 0.297279 0.695889 -0.566379
O12   O     O_2   0.848907 0.981250 0.550445 -0.608135
O13   O     O_2   0.541909 0.701596 0.695479 -0.528266
O14   O     O_2   0.722147 0.069064 0.102510 -0.518740
O15   O     O_2   0.721553 0.930846 0.101598 -0.514025
O16   O     O_2   0.193587 0.565251 0.060738 -0.519559
O17   O     O_2   0.236349 0.428642 0.122256 -0.495497
O18   O     O_2   0.502297 0.217691 0.022178 -0.600854
O19   O     O_2   0.526469 0.856639 0.996345 -0.548111
O20   O     O_2   0.984806 0.717483 0.988072 -0.582555
O21   O     O_2   0.042285 0.357788 0.029073 -0.534582
O22   O     O_2   0.147462 0.681797 0.196153 -0.551809
O23   O     O_2   0.314795 0.501120 0.393642 -0.548906
O24   O     O_2   0.212633 0.305772 0.251876 -0.522339
O25   O     O_2   0.688067 0.189334 0.233072 -0.524435
O26   O     O_2   0.691675 0.811082 0.234037 -0.517005
O27   O     O_2   0.604478 0.867079 0.395776 -0.512166
O28   O     O_2   0.683141 0.041404 0.374816 -0.522525
O29   O     O_2   0.068321 0.484086 0.271042 -0.542096
O30   O     O_2   0.210716 0.582837 0.486609 -0.591684
O31   O     O_2   0.406285 0.953687 0.592046 -0.549413
O32   O     O_2   0.367433 0.099230 0.441331 -0.613914
O33   O     O_2   0.895586 0.429847 0.577490 -0.519390
O34   O     O_2   0.397778 0.411974 0.552560 -0.616308
O35   O     O_2   0.863561 0.576883 0.468479 -0.583262
O36   O     O_2   0.896988 0.793945 0.809147 -0.542201
O37   O     O_2   0.894890 0.145354 0.733625 -0.584093
O38   O     O_2   0.394498 0.295126 0.816314 -0.563714
O39   O     O_2   0.399377 0.645805 0.729881 -0.551472
O40   O     O_2   0.097222 0.206678 0.193814 -0.580536
O41   O     O_2   0.178179 0.851593 0.269796 -0.591641
O42   O     O_2   0.592749 0.707031 0.188027 -0.564674
O43   O     O_2   0.680811 0.352576 0.271092 -0.588314
O44   O     O_2   0.271075 0.051868 0.638156 -0.606307
O45   O     O_2   0.252143 0.900969 0.589898 -0.494655
O46   O     O_2   0.743231 0.596673 0.547297 -0.543146
O47   O     O_2   0.737251 0.452639 0.541844 -0.551937
O48   O     O_2   0.718944 0.225224 0.743243 -0.562549

loop_
_geom_bond_atom_site_label_1
_geom_bond_atom_site_label_2
_ccdc_geom_bond_type
C124  H60   S    
C76   C86   S    
C55   H20   S    
N18   Ni6   S    
C105  C116  S    
C118  C160  S    
C45   H10   S    
H27   N38   S    
C65   H48   S    
C43   H8    S    
C138  H87   S    
C78   H106  S    
H115  N28   S    
C144  C151  S    
C14   H99   S    
C72   C121  S    
C85   C96   S    
H132  N35   S    
C105  C123  S    
C49   O24   D    
C91   H55   S    
C29   H137  S    
C134  C143  S    
C52   O27   D    
C31   O6    D    
C46   C148  S    
C21   C83   S    
C41   C112  S    
C26   H133  S    
N21   N25   A    
C69   H51   S    
C64   O39   D    
C6    C155  A    
N8    Ni3   S    
N21   Ni7   S    
C54   C143  S    
C106  N18   A    
C134  H78   S    
C141  N36   S    
C60   C146  S    
C107  C124  S    
H21   N36   S    
C110  H63   S    
C98   H2    S    
C88   C94   S    
C91   C158  A    
C32   H140  S    
C75   H103  S    
C85   C87   S    
C48   O22   D    
C33   C102  S    
C99   C116  S    
C33   O8    D    
H131  N35   S    
C25   H124  S    
H29   N39   S    
C128  N20   A    
C3    C92   A    
C8    C35   A    
C78   C82   S    
C75   C86   S    
C77   H112  S    
C95   H79   S    
C132  H76   S    
C97   C103  S    
N44   Ni5   S    
H37   N41   S    
C99   C101  S    
N46   Ni7   S    
C107  H69   S    
C149  C152  S    
C59   O33   D    
C28   O3    D    
C103  C121  S    
C90   H54   S    
C42   H7    S    
C23   H122  S    
C20   O34   D    
C14   C57   A    
H114  N28   S    
N34   Ni4   S    
N20   Ni8   S    
C27   H135  S    
N45   Ni6   S    
C47   H11   S    
C15   N16   A    
C7    C157  A    
C119  C123  S    
H40   N42   S    
N12   Ni2   S    
C5    C151  S    
C89   C96   S    
C22   O45   D    
C80   C88   S    
C48   C127  S    
N23   Ni3   S    
C51   O26   D    
C47   O21   D    
C111  H64   S    
C151  C153  S    
C45   O20   D    
C51   H16   S    
C78   H123  S    
H38   N41   S    
C21   O44   D    
C83   C86   S    
H117  N29   S    
C11   C46   A    
C3    C95   A    
N17   Ni8   S    
C58   O32   D    
C39   H4    S    
C54   O29   D    
C75   C79   S    
C78   C87   S    
N16   Ni7   S    
H111  N27   S    
N34   N46   A    
C20   C82   S    
C91   N45   A    
N11   Ni3   S    
C121  C130  S    
C67   O42   D    
C113  H66   S    
C19   H109  S    
C108  H70   S    
C54   H19   S    
C133  C142  S    
H39   N42   S    
C47   C129  S    
C11   H97   S    
C142  C149  S    
C23   O46   D    
H25   N37   S    
C3    C116  S    
C71   C150  A    
N23   N47   A    
C94   N32   S    
C53   C142  S    
C90   C159  A    
C52   H17   S    
C62   C117  S    
C4    C137  A    
N18   N24   A    
C123  H72   S    
N7    Ni4   S    
C110  C130  S    
C133  C147  S    
C55   O30   D    
C110  C114  S    
C107  C118  S    
N14   Ni5   S    
H22   N36   S    
C76   H104  S    
C24   N26   A    
C153  N42   S    
C9    H95   S    
C133  H77   S    
C14   N15   A    
C19   O23   D    
C108  H52   S    
C60   H33   S    
H34   N40   S    
C64   H47   S    
C56   H30   S    
C71   C117  A    
C115  C158  S    
C120  C129  S    
H118  N30   S    
C30   H138  S    
C95   N34   A    
C1    N1    A    
C50   H15   S    
C34   O9    D    
C144  N39   S    
C121  C125  S    
C133  H82   S    
H128  N32   S    
C33   H141  S    
N9    Ni1   S    
C41   H6    S    
C25   C85   S    
C62   H44   S    
C40   H5    S    
C12   C57   A    
H26   N38   S    
C28   C99   S    
C111  C131  S    
C38   H3    S    
C140  N4    A    
C28   H136  S    
C122  C131  S    
C112  C116  S    
N47   Ni8   S    
C24   C72   A    
C36   H143  S    
C132  C141  S    
C123  H59   S    
C66   O41   D    
C112  H65   S    
C140  H88   S    
C132  C147  S    
C76   C80   S    
C2    C66   S    
H23   N37   S    
C125  H61   S    
C73   C159  A    
C52   C141  S    
C6    C86   S    
C22   C83   S    
C155  H91   S    
C98   C115  S    
C143  C151  S    
C10   N11   A    
C105  H67   S    
C145  C152  S    
C26   C97   S    
N1    Ni1   S    
C109  C126  S    
C77   C87   S    
C32   C101  S    
N1    N45   A    
C97   C114  S    
C19   C81   S    
H129  N33   S    
C15   H100  S    
N22   Ni2   S    
C119  C127  S    
C139  N21   A    
C157  N8    A    
C8    N9    A    
N7    N8    A    
C92   N46   A    
C84   C160  A    
C58   C145  S    
C27   C98   S    
C53   O28   D    
C37   H144  S    
C43   O18   D    
H41   N43   S    
C80   N28   S    
C10   H96   S    
C1    C158  A    
N48   Ni6   S    
C69   O43   D    
C62   O37   D    
C56   O31   D    
C135  H80   S    
C108  C114  S    
C44   H9    S    
C79   C88   S    
C125  H74   S    
C150  N22   A    
C7    C87   S    
C60   O35   D    
C30   C103  S    
H130  N33   S    
C44   O19   D    
C63   C128  S    
C4    C136  A    
C81   C89   S    
C155  N6    A    
C1    H1    S    
C59   H32   S    
N15   Ni6   S    
C49   H14   S    
C145  C147  S    
C146  C148  S    
N24   Ni1   S    
C34   C101  S    
N3    N4    A    
H127  N32   S    
C73   N12   A    
C70   C106  A    
C37   C103  S    
C16   N17   A    
N3    Ni8   S    
C83   C94   S    
C97   H134  S    
C135  H84   S    
C93   C160  A    
C99   H13   S    
C77   C81   S    
C36   O10   D    
C68   C89   S    
C61   C106  S    
C82   C89   S    
C6    C154  A    
C124  H73   S    
H116  N29   S    
C74   C122  S    
C156  N7    A    
C100  C118  S    
C20   H110  S    
C102  C120  S    
C51   C131  S    
C29   C100  S    
H42   N43   S    
C156  H92   S    
C29   O4    D    
C34   H142  S    
C93   N47   A    
C31   C104  S    
C109  H71   S    
N2    N48   A    
N9    N10   A    
C146  C153  S    
C143  N38   S    
C77   H105  S    
C92   H56   S    
C79   N27   S    
C100  H24   S    
C30   O5    D    
C132  H81   S    
C104  C122  S    
C13   C74   A    
N2    Ni5   S    
C81   N29   S    
C63   H45   S    
C58   H31   S    
C9    C35   A    
C65   O40   D    
C96   N33   S    
C27   O2    D    
C2    C70   A    
C64   C139  S    
N25   Ni4   S    
C76   H101  S    
N4    Ni7   S    
C50   O25   D    
C12   N14   A    
C90   N44   A    
N10   Ni2   S    
C17   C79   S    
C53   H18   S    
C141  C149  S    
C5    C138  A    
N5    N6    A    
C44   C131  S    
C4    C149  S    
C113  C129  S    
C71   C120  S    
C72   C128  A    
C13   N25   A    
C109  H53   S    
C98   C104  S    
N20   N26   A    
C56   C145  S    
C67   H50   S    
C36   C102  S    
C65   C150  S    
C107  H46   S    
C38   C104  S    
C50   C130  S    
C48   H12   S    
C39   C110  S    
C112  C127  S    
C10   C46   A    
C61   O36   D    
C16   C68   A    
C108  C125  S    
C39   O14   D    
C136  N48   A    
C25   O47   D    
C16   H102  S    
C152  N41   S    
C26   O48   D    
C17   O1    D    
C12   H98   S    
C63   O38   D    
C24   C69   S    
C40   C111  S    
N12   N44   A    
C41   O16   D    
C134  H83   S    
N11   N13   A    
C7    C156  A    
C101  C119  S    
C82   N30   S    
C40   O15   D    
C21   H120  S    
C11   N13   A    
C49   C129  S    
C84   H68   S    
C94   N31   S    
C42   O17   D    
C93   H58   S    
C122  C126  S    
C154  N5    A    
N14   N15   A    
C32   O7    D    
C157  H93   S    
C42   C113  S    
H125  N31   S    
C70   C119  S    
C100  C102  S    
C73   H57   S    
N6    Ni1   S    
C96   N35   S    
C35   C147  S    
C66   H49   S    
C126  H75   S    
C31   H139  S    
C37   O11   D    
C138  N3    A    
C135  C144  S    
C84   N23   A    
C153  N43   S    
N13   Ni4   S    
H126  N31   S    
C75   H90   S    
N19   Ni5   S    
C5    C140  A    
C9    N10   A    
C13   C67   S    
C105  H35   S    
C55   C144  S    
C38   O13   D    
H28   N39   S    
C43   C130  S    
C22   H121  S    
C126  H62   S    
N26   Ni3   S    
C117  N19   A    
C154  H89   S    
N5    Ni2   S    
C134  C148  S    
C74   C139  A    
C57   C88   S    
N19   N22   A    
N16   N17   A    
C17   H107  S    
C61   H43   S    
C18   H108  S    
C137  H86   S    
C45   C127  S    
C2    N24   A    
C15   C68   A    
C152  N40   S    
C8    H94   S    
C136  H85   S    
H119  N30   S    
H36   N40   S    
C114  C159  S    
C109  C115  S    
C113  C118  S    
C59   C146  S    
C18   C80   S    
C135  C148  S    
C23   C85   S    
C18   O12   D    
H113  N27   S    
C111  C115  S    
C137  N2    A    
C120  C124  S    
C142  N37   S    
