data_mof_unit_63658.cif
_audit_creation_date              2012-12-10T19:19:21-0500
_audit_creation_method            fapswitch 2.2
_symmetry_space_group_name_H-M    P1
_symmetry_Int_Tables_number       1
_space_group_crystal_system       triclinic
_cell_length_a                    15.996823
_cell_length_b                    14.752864
_cell_length_c                    23.518402
_cell_angle_alpha                 90.222359
_cell_angle_beta                  89.959809
_cell_angle_gamma                 89.956673
_cell_volume                      5550.27351378

loop_
_atom_site_label
_atom_site_type_symbol
_atom_type_description
_atom_site_fract_x
_atom_site_fract_y
_atom_site_fract_z
_atom_type_partial_charge
C1    C     C_R   0.340815 0.500024 0.499985 0.834911
C2    C     C_R   0.659185 0.499976 0.500014 0.834898
C3    C     C_R   0.538301 0.572506 0.239857 0.215937
C4    C     C_R   0.461734 0.427464 0.760142 0.215934
C5    C     C_R   0.536580 0.570596 0.299137 -0.266761
C6    C     C_R   0.463454 0.429379 0.700862 -0.266759
C7    C     C_R   0.496883 0.499422 0.328091 -0.122523
C8    C     C_R   0.503117 0.500577 0.671910 -0.122540
C9    C     C_R   0.457066 0.430030 0.296494 0.136913
C10   C     C_R   0.542898 0.569990 0.703509 0.136935
C11   C     C_R   0.459137 0.432445 0.237197 -0.156051
C12   C     C_R   0.540825 0.567571 0.762807 -0.156059
C13   C     C_R   0.499649 0.502920 0.208795 0.273577
C14   C     C_R   0.500350 0.497070 0.791206 0.273577
C15   C     C_R   0.956294 0.579490 0.513481 -0.152892
C16   C     C_R   0.043706 0.420509 0.486517 -0.152888
C17   C     C_R   0.043537 0.579530 0.513431 -0.158879
C18   C     C_R   0.956463 0.420470 0.486566 -0.158878
C19   C     C_R   0.912790 0.499960 0.500049 0.145037
C20   C     C_R   0.087210 0.500040 0.499949 0.145036
C21   C     C_1   0.823341 0.499937 0.500064 -0.043300
C22   C     C_1   0.176659 0.500063 0.499934 -0.043295
C23   C     C_1   0.251703 0.500065 0.499947 -0.142615
C24   C     C_1   0.748297 0.499935 0.500052 -0.142626
C25   C     C_R   0.498002 0.499712 0.390652 0.836270
C26   C     C_R   0.501998 0.500288 0.609348 0.836267
C27   C     C_R   0.529510 0.952343 0.547209 -0.129850
C28   C     C_R   0.470490 0.047657 0.452791 -0.129855
C29   C     C_R   0.470506 0.951818 0.452793 -0.146231
C30   C     C_R   0.529493 0.048182 0.547207 -0.146230
C31   C     C_R   0.500013 0.902869 0.500001 0.034293
C32   C     C_R   0.499986 0.097131 0.499999 0.034296
C33   C     C_1   0.500011 0.802745 0.500005 0.157969
C34   C     C_1   0.499989 0.197254 0.499995 0.157957
C35   C     C_R   0.563509 0.455209 0.880589 0.573419
C36   C     C_R   0.436489 0.544778 0.119412 0.573402
C37   C     C_R   0.435794 0.539439 0.880287 0.573789
C38   C     C_R   0.564202 0.460544 0.119714 0.573803
C39   C     C_R   0.434552 0.541557 0.939916 -0.022063
C40   C     C_R   0.565444 0.458426 0.060085 -0.022064
C41   C     C_R   0.499868 0.499246 0.970000 -0.011835
C42   C     C_R   0.500128 0.500738 0.030001 -0.011834
C43   C     C_R   0.564978 0.455541 0.940224 -0.022092
C44   C     C_R   0.435018 0.544444 0.059777 -0.022091
C45   C     C_R   0.369970 0.584962 0.970032 -0.142848
C46   C     C_R   0.630025 0.415019 0.029969 -0.142845
C47   C     C_R   0.370195 0.586381 0.029355 -0.142980
C48   C     C_R   0.629800 0.413602 0.970646 -0.142977
Cu1   Cu    Cu3+1 0.500000 0.589220 0.500000 1.015974
Cu2   Cu    Cu3+1 0.500000 0.410780 0.500000 1.015969
H1    H     H_    0.319079 0.617970 0.947889 0.194555
H2    H     H_    0.680916 0.382010 0.052112 0.194556
H3    H     H_    0.319449 0.620403 0.051258 0.194543
H4    H     H_    0.680547 0.379581 0.948743 0.194543
H5    H     H_    0.567292 0.624375 0.322625 0.184784
H6    H     H_    0.432769 0.375583 0.677373 0.184797
H7    H     H_    0.428474 0.379669 0.212826 0.171032
H8    H     H_    0.571461 0.620364 0.787179 0.171032
H9    H     H_    0.076867 0.641299 0.523867 0.149169
H10   H     H_    0.923134 0.358700 0.476131 0.149169
H11   H     H_    0.922831 0.641232 0.523947 0.151866
H12   H     H_    0.077169 0.358768 0.476051 0.151869
H13   H     H_    0.552621 0.084124 0.584224 0.146080
H14   H     H_    0.447379 0.915876 0.415777 0.146078
H15   H     H_    0.447351 0.083190 0.415777 0.157958
H16   H     H_    0.552649 0.916810 0.584223 0.157969
N1    N     N_R   0.499521 0.496608 0.852085 -0.459274
N2    N     N_R   0.500477 0.503379 0.147916 -0.459275
N3    N     N_1   0.500000 0.276710 0.500000 -0.140492
N4    N     N_1   0.500000 0.723290 0.500000 -0.140489
O1    O     O_R   0.380310 0.575320 0.500010 -0.571338
O2    O     O_R   0.619690 0.424680 0.499990 -0.571338
O3    O     O_R   0.619690 0.575320 0.499990 -0.561314
O4    O     O_R   0.380310 0.424680 0.500010 -0.561308
O5    O     O_R   0.499980 0.575360 0.417880 -0.581631
O6    O     O_R   0.500020 0.424640 0.582120 -0.581639
O7    O     O_R   0.500020 0.575360 0.582120 -0.547189
O8    O     O_R   0.499980 0.424640 0.417880 -0.547195
O9    O     O_2   0.625399 0.414014 0.851239 -0.513123
O10   O     O_2   0.374601 0.585977 0.148762 -0.513128
O11   O     O_2   0.374014 0.579820 0.850645 -0.513443
O12   O     O_2   0.625980 0.420159 0.149357 -0.513439
I1    I     I_    0.599938 0.681132 0.198840 -0.273212
I2    I     I_    0.400148 0.318801 0.801156 -0.273213
I3    I     I_    0.387108 0.322742 0.333475 -0.326129
I4    I     I_    0.612805 0.677324 0.666535 -0.326132

loop_
_geom_bond_atom_site_label_1
_geom_bond_atom_site_label_2
_ccdc_geom_bond_type
C30   C32   A    
C8    C26   S    
C41   C42   A    
C20   C22   S    
C39   C41   A    
C48   H4    S    
C1    O1    A    
C42   C44   A    
C1    O4    A    
C28   C29   A    
C19   C21   S    
Cu2   N3    S    
Cu2   O4    S    
C45   H1    S    
C46   H2    S    
C17   C20   A    
C7    C9    A    
C18   C19   A    
C3    I1    S    
Cu2   O2    S    
C9    I3    S    
C26   O6    A    
C14   N1    S    
Cu1   O5    S    
C35   C43   A    
C43   C48   A    
C3    C13   A    
C44   C47   A    
C39   C45   A    
C12   H8    S    
C40   C42   A    
C29   H14   S    
C30   H13   S    
C38   O12   S    
C27   C30   A    
C41   C43   A    
C37   O11   S    
C16   H12   S    
C2    O2    A    
Cu2   O8    S    
C45   C47   A    
C46   C48   A    
C26   O7    A    
C27   C31   A    
C25   O8    A    
C28   C32   A    
C4    C6    A    
C36   O10   S    
C6    H6    S    
C5    C7    A    
C6    C8    A    
C25   O5    A    
C32   C34   S    
C15   C19   A    
Cu2   O6    S    
C4    I2    S    
C35   N1    A    
C16   C20   A    
C31   C33   S    
C15   H11   S    
C16   C18   A    
C9    C11   A    
C34   N3    T    
C2    O3    A    
C10   C12   A    
C33   N4    T    
C17   H9    S    
C18   H10   S    
C38   N2    A    
C1    C23   S    
Cu1   N4    S    
C2    C24   S    
Cu1   O3    S    
C36   C44   A    
C40   C46   A    
C15   C17   A    
C10   I4    S    
C5    H5    S    
C8    C10   A    
C12   C14   A    
C3    C5    A    
C36   N2    A    
C7    C25   S    
C47   H3    S    
C28   H15   S    
C37   C39   A    
C27   H16   S    
C38   C40   A    
C11   C13   A    
C37   N1    A    
C35   O9    S    
Cu1   O7    S    
C4    C14   A    
C29   C31   A    
Cu1   Cu2   S    
Cu1   O1    S    
C21   C24   T    
C22   C23   T    
C11   H7    S    
C13   N2    S    
