data_mof_unit_65045.cif
_audit_creation_date              2012-12-10T17:38:09-0500
_audit_creation_method            fapswitch 2.2
_symmetry_space_group_name_H-M    P1
_symmetry_Int_Tables_number       1
_space_group_crystal_system       triclinic
_cell_length_a                    37.193634
_cell_length_b                    30.155768
_cell_length_c                    21.31094
_cell_angle_alpha                 89.999779
_cell_angle_beta                  54.191191
_cell_angle_gamma                 89.99988
_cell_volume                      19384.2265347

loop_
_atom_site_label
_atom_site_type_symbol
_atom_type_description
_atom_site_fract_x
_atom_site_fract_y
_atom_site_fract_z
_atom_type_partial_charge
C1    C     C_R   0.086453 0.499996 0.414462 0.880267
C2    C     C_R   0.658293 0.489141 0.892718 -0.287565
C3    C     C_R   0.973707 0.157475 0.983612 -0.106232
C4    C     C_R   0.500000 0.634692 1.000000 -0.103971
C5    C     C_R   0.000000 0.134692 1.000000 -0.103962
C6    C     C_R   0.472890 0.703662 0.984683 -0.069974
C7    C     C_R   0.527110 0.703662 0.015316 -0.069975
C8    C     C_R   0.972890 0.203662 0.984684 -0.069972
C9    C     C_R   0.027110 0.203662 0.015315 -0.069975
C10   C     C_R   0.500000 0.726885 0.999999 -0.087952
C11   C     C_R   1.000000 0.226885 1.000000 -0.087952
C12   C     C_R   0.445470 0.727004 0.970961 0.548931
C13   C     C_R   0.841707 0.989127 0.107291 -0.287452
C14   C     C_R   0.554531 0.727003 0.029038 0.548936
C15   C     C_R   0.945469 0.227004 0.970963 0.548944
C16   C     C_R   0.054531 0.227003 0.029036 0.548940
C17   C     C_R   0.944744 0.273207 0.972645 0.547770
C18   C     C_R   0.055255 0.273206 0.027354 0.547783
C19   C     C_R   0.444745 0.773207 0.972644 0.547782
C20   C     C_R   0.555255 0.773206 0.027356 0.547774
C21   C     C_R   0.971902 0.296545 0.986974 -0.071112
C22   C     C_R   0.028098 0.296545 0.013025 -0.071122
C23   C     C_R   0.471902 0.796545 0.986973 -0.071122
C24   C     C_R   0.158293 0.989121 0.892707 -0.287374
C25   C     C_R   0.528098 0.796545 0.013026 -0.071116
C26   C     C_3   0.991642 0.458785 0.779220 -0.353119
C27   C     C_3   0.008290 0.458770 0.220850 -0.353102
C28   C     C_3   0.491722 0.958768 0.779139 -0.353095
C29   C     C_3   0.508317 0.958777 0.220822 -0.353113
C30   C     C_R   0.000000 0.273320 1.000000 -0.087279
C31   C     C_R   0.500000 0.773320 1.000000 -0.087281
C32   C     C_R   0.971660 0.342730 0.988371 -0.119198
C33   C     C_R   0.028340 0.342730 0.011629 -0.119193
C34   C     C_R   0.471660 0.842730 0.988370 -0.119198
C35   C     C_R   0.364921 0.501720 0.137325 -0.223686
C36   C     C_R   0.528340 0.842730 0.011629 -0.119200
C37   C     C_R   1.000000 0.365475 1.000000 -0.095792
C38   C     C_R   0.500000 0.865475 1.000000 -0.095799
C39   C     C_R   0.541065 0.343540 0.955360 0.072208
C40   C     C_R   0.458940 0.343540 0.044643 0.072198
C41   C     C_R   0.041078 0.843544 0.955891 0.072201
C42   C     C_R   0.958920 0.843541 0.044096 0.072164
C43   C     C_R   0.500002 0.365925 0.999999 -0.103587
C44   C     C_R   0.999999 0.865926 0.000000 -0.103593
C45   C     C_R   0.458970 0.296918 0.042324 0.087655
C46   C     C_R   0.635079 0.501722 0.862676 -0.223666
C47   C     C_R   0.541038 0.296917 0.957690 0.087631
C48   C     C_R   0.958962 0.796918 0.041753 0.087585
C49   C     C_R   0.041031 0.796920 0.958190 0.087574
C50   C     C_R   0.500005 0.273867 0.000006 -0.014335
C51   C     C_R   0.999996 0.773868 0.999966 -0.014272
C52   C     C_R   0.419022 0.272516 0.081427 -0.185470
C53   C     C_R   0.580990 0.272514 0.918601 -0.185471
C54   C     C_R   0.919025 0.772515 0.080319 -0.185532
C55   C     C_R   0.080963 0.772516 0.919582 -0.185553
C56   C     C_R   0.919431 0.726607 0.079273 -0.186278
C57   C     C_R   0.864922 0.001727 0.137322 -0.223614
C58   C     C_R   0.080555 0.726607 0.920616 -0.186327
C59   C     C_R   0.419423 0.226608 0.080376 -0.186353
C60   C     C_R   0.580589 0.226606 0.919651 -0.186331
C61   C     C_R   0.959549 0.703860 0.039844 0.108947
C62   C     C_R   0.040441 0.703860 0.960072 0.108981
C63   C     C_R   0.459549 0.203859 0.040412 0.109015
C64   C     C_R   0.540461 0.203859 0.959605 0.108994
C65   C     C_3   0.000942 0.500064 0.810056 -0.303850
C66   C     C_3   0.999058 0.500065 0.189943 -0.303859
C67   C     C_3   0.500943 0.000066 0.810056 -0.303877
C68   C     C_R   0.135078 0.001722 0.862676 -0.223636
C69   C     C_3   0.499057 0.000066 0.189944 -0.303872
C70   C     C_R   0.999995 0.727262 0.999960 0.092619
C71   C     C_R   0.500006 0.227262 0.000008 0.092613
C72   C     C_R   0.959777 0.657850 0.039556 -0.209949
C73   C     C_R   0.040217 0.657849 0.960381 -0.210052
C74   C     C_R   0.459773 0.157849 0.040104 -0.210062
C75   C     C_R   0.540234 0.157849 0.959907 -0.210005
C76   C     C_R   0.999999 0.634878 0.999981 -0.072209
C77   C     C_R   0.500002 0.134878 0.000003 -0.072091
C78   C     C_3   0.040592 0.512552 0.728591 0.677924
C79   C     C_R   0.342160 0.515148 0.214783 0.686656
C80   C     C_3   0.959428 0.512619 0.271388 0.677919
C81   C     C_3   0.540570 0.012630 0.728615 0.677909
C82   C     C_3   0.459420 0.012593 0.271396 0.677919
C83   C     C_3   0.010171 0.541660 0.718661 -0.412898
C84   C     C_3   0.989896 0.541677 0.281268 -0.412893
C85   C     C_3   0.510094 0.041680 0.718740 -0.412871
C86   C     C_3   0.489868 0.041670 0.281298 -0.412867
C87   C     C_3   0.970390 0.528450 0.800572 0.580522
C88   C     C_3   0.029657 0.528402 0.199380 0.580512
C89   C     C_3   0.470337 0.028395 0.800625 0.580522
C90   C     C_R   0.657840 0.515164 0.785224 0.686651
C91   C     C_3   0.529637 0.028422 0.199402 0.580529
C92   C     C_3   0.961170 0.487733 0.769226 0.687241
C93   C     C_3   0.038809 0.487668 0.230797 0.687222
C94   C     C_3   0.461194 0.987658 0.769199 0.687210
C95   C     C_3   0.538817 0.987695 0.230789 0.687230
C96   C     C_3   0.126638 0.520984 0.493984 -0.323779
C97   C     C_3   0.117897 0.570474 0.512505 -0.651406
C98   C     C_3   0.873361 0.521006 0.506023 -0.323879
C99   C     C_3   0.882118 0.570496 0.487510 -0.651326
C100  C     C_3   0.626640 0.021047 0.493964 -0.323826
C101  C     C_R   0.842162 0.015190 0.214761 0.686676
C102  C     C_3   0.617880 0.070539 0.512451 -0.651361
C103  C     C_3   0.373360 0.021046 0.506035 -0.323769
C104  C     C_3   0.382110 0.070540 0.487554 -0.651394
C105  C     C_3   0.584426 0.369681 0.905661 -0.410614
C106  C     C_3   0.605469 0.377213 0.948468 -0.829543
C107  C     C_3   0.415570 0.369677 0.094342 -0.410683
C108  C     C_3   0.394509 0.377178 0.051558 -0.829530
C109  C     C_3   0.084481 0.869689 0.906744 -0.410468
C110  C     C_3   0.105146 0.877128 0.950203 -0.828621
C111  C     C_3   0.915527 0.869682 0.093297 -0.410520
C112  C     C_R   0.913547 0.499996 0.585536 0.880293
C113  C     C_R   0.157838 0.015184 0.785236 0.686673
C114  C     C_3   0.894858 0.877195 0.049862 -0.828705
C115  C     C_R   0.295840 0.515117 0.262987 -0.257894
C116  C     C_R   0.704159 0.515135 0.737020 -0.257898
C117  C     C_R   0.795842 0.015160 0.262966 -0.257883
C118  C     C_R   0.204158 0.015153 0.737030 -0.257893
C119  C     C_R   0.272432 0.501818 0.232794 -0.080945
C120  C     C_R   0.727567 0.501823 0.767207 -0.080935
C121  C     C_R   0.772433 0.001826 0.232792 -0.080906
C122  C     C_R   0.227567 0.001820 0.767205 -0.080905
C123  C     C_R   0.295708 0.488941 0.154376 0.084088
C124  C     C_R   0.586453 0.999996 0.414466 0.880289
C125  C     C_R   0.704292 0.488932 0.845620 0.084110
C126  C     C_R   0.795708 0.988915 0.154391 0.084179
C127  C     C_R   0.204292 0.988908 0.845607 0.084168
C128  C     C_R   0.272543 0.528145 0.340535 0.636492
C129  C     C_R   0.727456 0.528179 0.659478 0.636491
C130  C     C_R   0.772545 0.028224 0.340496 0.636502
C131  C     C_R   0.227455 0.028216 0.659499 0.636507
C132  C     C_R   0.226519 0.527727 0.388371 0.491483
C133  C     C_R   0.773481 0.527762 0.611643 0.491472
C134  C     C_R   0.726520 0.027806 0.388333 0.491492
C135  C     C_R   0.413547 0.999996 0.585535 0.880272
C136  C     C_R   0.273480 0.027797 0.611662 0.491485
C137  C     C_R   0.202041 0.513997 0.359931 -0.111581
C138  C     C_R   0.797959 0.514016 0.640075 -0.111573
C139  C     C_R   0.702042 0.014040 0.359914 -0.111558
C140  C     C_R   0.297958 0.014034 0.640084 -0.111568
C141  C     C_R   0.000022 0.500026 0.621465 0.966571
C142  C     C_R   0.999976 0.500026 0.378536 0.966548
C143  C     C_R   0.500024 0.000026 0.621463 0.966553
C144  C     C_R   0.499976 0.000027 0.378536 0.966564
C145  C     C_R   0.225846 0.501341 0.280644 -0.076788
C146  C     C_3   0.000847 0.500244 0.688005 -0.281611
C147  C     C_R   0.774153 0.501345 0.719356 -0.076788
C148  C     C_R   0.725847 0.001348 0.280645 -0.076815
C149  C     C_R   0.274153 0.001342 0.719353 -0.076799
C150  C     C_R   0.203302 0.487951 0.248613 0.013073
C151  C     C_R   0.796698 0.487942 0.751381 0.013065
C152  C     C_R   0.703303 0.987920 0.248634 0.013085
C153  C     C_R   0.296697 0.987917 0.751366 0.013081
C154  C     C_R   0.226846 0.475313 0.170648 0.657744
C155  C     C_R   0.773154 0.475291 0.829341 0.657736
C156  C     C_R   0.726847 0.975247 0.170686 0.657802
C157  C     C_3   0.999152 0.500245 0.311996 -0.281624
C158  C     C_R   0.273153 0.975244 0.829314 0.657802
C159  C     C_R   0.272807 0.475787 0.123959 -0.261145
C160  C     C_R   0.727194 0.475766 0.876031 -0.261149
C161  C     C_R   0.772807 0.975725 0.123994 -0.261320
C162  C     C_R   0.227193 0.975720 0.876006 -0.261336
C163  C     C_R   0.154934 0.512310 0.406921 0.122383
C164  C     C_R   0.845065 0.512326 0.593084 0.122416
C165  C     C_R   0.654935 0.012349 0.406908 0.122419
C166  C     C_R   0.345065 0.012345 0.593091 0.122398
C167  C     C_R   0.133882 0.499981 0.371774 -0.108379
C168  C     C_3   0.500849 0.000245 0.688003 -0.281631
C169  C     C_R   0.866117 0.499983 0.628224 -0.108403
C170  C     C_R   0.633883 0.999983 0.371779 -0.108427
C171  C     C_R   0.366117 0.999982 0.628221 -0.108413
C172  C     C_R   0.157526 0.487651 0.294670 -0.177474
C173  C     C_R   0.842474 0.487641 0.705323 -0.177449
C174  C     C_R   0.657527 0.987618 0.294693 -0.177449
C175  C     C_R   0.342473 0.987617 0.705309 -0.177460
C176  C     C_R   0.000000 0.413311 0.000000 0.834447
C177  C     C_R   0.500000 0.913311 0.000000 0.834448
C178  C     C_R   0.000311 0.500215 0.878148 0.950728
C179  C     C_3   0.499152 0.000245 0.311996 -0.281627
C180  C     C_R   0.999689 0.500216 0.121852 0.950716
C181  C     C_R   0.500311 0.000216 0.878148 0.950711
C182  C     C_R   0.499689 0.000216 0.121852 0.950723
C183  C     C_R   1.000000 0.586860 0.999997 0.898450
C184  C     C_R   0.500000 0.086860 0.000000 0.898428
C185  C     C_3   0.031985 0.471440 0.696259 -0.277469
C186  C     C_3   0.967966 0.471492 0.303791 -0.277452
C187  C     C_3   0.532042 0.971500 0.696202 -0.277441
C188  C     C_3   0.467985 0.971471 0.303771 -0.277460
C189  C     C_R   0.500002 0.413489 0.999998 0.875366
C190  C     C_R   0.341707 0.489151 0.107278 -0.287530
C191  C     C_R   0.999997 0.913490 0.000003 0.875370
C192  C     C_R   0.413051 0.500596 0.087548 0.908191
C193  C     C_R   0.586949 0.500596 0.912452 0.908204
C194  C     C_R   0.913051 0.000600 0.087547 0.908053
C195  C     C_R   0.086949 0.000599 0.912452 0.908000
C196  C     C_R   0.500000 0.586799 1.000000 0.876853
C197  C     C_R   0.000000 0.086799 1.000000 0.876883
C198  C     C_R   0.526293 0.657475 0.016388 -0.106244
C199  C     C_R   0.473707 0.657476 0.983611 -0.106248
C200  C     C_R   0.026293 0.157475 0.016387 -0.106230
F1    F     F_    0.207158 0.541822 0.461922 -0.612863
F2    F     F_    0.580859 0.705111 0.043570 -0.597584
F3    F     F_    0.919140 0.205111 0.956432 -0.597582
F4    F     F_    0.080860 0.205111 0.043567 -0.597576
F5    F     F_    0.917715 0.295102 0.959746 -0.594957
F6    F     F_    0.082285 0.295101 0.040254 -0.594930
F7    F     F_    0.417716 0.795102 0.959743 -0.594930
F8    F     F_    0.582284 0.795101 0.040256 -0.594945
F9    F     F_    0.081691 0.525259 0.709035 -0.615386
F10   F     F_    0.918350 0.525395 0.290917 -0.615412
F11   F     F_    0.581645 0.025417 0.709088 -0.615455
F12   F     F_    0.792842 0.541874 0.538100 -0.612879
F13   F     F_    0.418333 0.025341 0.290936 -0.615440
F14   F     F_    0.938486 0.557204 0.855846 -0.598832
F15   F     F_    0.061610 0.557103 0.144058 -0.598760
F16   F     F_    0.438376 0.057088 0.855954 -0.598680
F17   F     F_    0.561570 0.057145 0.144100 -0.598720
F18   F     F_    0.920055 0.475458 0.788368 -0.599776
F19   F     F_    0.079905 0.475324 0.211676 -0.599729
F20   F     F_    0.420102 0.975303 0.788317 -0.599718
F21   F     F_    0.579919 0.975379 0.211660 -0.599747
F22   F     F_    0.365166 0.528894 0.242618 -0.576704
F23   F     F_    0.707159 0.041936 0.461864 -0.612915
F24   F     F_    0.634832 0.528922 0.757396 -0.576707
F25   F     F_    0.865171 0.028969 0.242573 -0.576699
F26   F     F_    0.134830 0.028964 0.757423 -0.576692
F27   F     F_    0.294123 0.541538 0.371167 -0.528246
F28   F     F_    0.705876 0.541588 0.628854 -0.528244
F29   F     F_    0.794125 0.041652 0.371108 -0.528256
F30   F     F_    0.205875 0.041642 0.628886 -0.528251
F31   F     F_    0.292840 0.041925 0.538128 -0.612900
F32   F     F_    0.205396 0.462446 0.139529 -0.608545
F33   F     F_    0.794604 0.462413 0.860455 -0.608559
F34   F     F_    0.705396 0.962344 0.139586 -0.608584
F35   F     F_    0.294604 0.962343 0.860416 -0.608573
F36   F     F_    0.419141 0.705112 0.956429 -0.597582
H1    H     H_    0.983760 0.425268 0.805711 0.210689
H2    H     H_    0.709483 0.465817 0.936082 0.185792
H3    H     H_    0.790518 0.965758 0.063953 0.185735
H4    H     H_    0.209482 0.965754 0.936047 0.185734
H5    H     H_    0.546693 0.639035 0.028348 0.201842
H6    H     H_    0.453307 0.639035 0.971651 0.201841
H7    H     H_    0.046694 0.139035 0.028347 0.201840
H8    H     H_    0.953306 0.139035 0.971652 0.201840
H9    H     H_    0.950216 0.361208 0.978876 0.201176
H10   H     H_    0.049784 0.361208 0.021124 0.201193
H11   H     H_    0.450216 0.861208 0.978874 0.201196
H12   H     H_    0.016116 0.425239 0.194418 0.210655
H13   H     H_    0.549784 0.861208 0.021126 0.201186
H14   H     H_    0.057626 0.448548 0.651439 0.192364
H15   H     H_    0.942286 0.448642 0.348650 0.192292
H16   H     H_    0.557728 0.948657 0.651337 0.192288
H17   H     H_    0.442321 0.948605 0.348613 0.192332
H18   H     H_    0.386854 0.288133 0.112728 0.169392
H19   H     H_    0.613158 0.288129 0.887314 0.169370
H20   H     H_    0.886870 0.788131 0.111191 0.169380
H21   H     H_    0.113116 0.788131 0.888685 0.169415
H22   H     H_    0.888197 0.708851 0.109542 0.168031
H23   H     H_    0.483903 0.925235 0.805564 0.210651
H24   H     H_    0.111786 0.708851 0.890323 0.168035
H25   H     H_    0.388178 0.208852 0.111058 0.168004
H26   H     H_    0.611834 0.208849 0.888977 0.168002
H27   H     H_    0.928573 0.640005 0.070248 0.183397
H28   H     H_    0.071421 0.640003 0.929694 0.183394
H29   H     H_    0.428559 0.140005 0.071206 0.183330
H30   H     H_    0.571447 0.140005 0.928804 0.183332
H31   H     H_    0.017781 0.575384 0.693006 0.206814
H32   H     H_    0.982338 0.575415 0.306869 0.206857
H33   H     H_    0.517645 0.075419 0.693145 0.206860
H34   H     H_    0.516166 0.925252 0.194366 0.210671
H35   H     H_    0.482288 0.075402 0.306923 0.206838
H36   H     H_    0.359477 0.478823 0.047354 0.191179
H37   H     H_    0.640523 0.478803 0.952637 0.191162
H38   H     H_    0.859477 0.978780 0.047378 0.191051
H39   H     H_    0.140522 0.978775 0.952621 0.191043
H40   H     H_    0.149071 0.589950 0.479473 0.289399
H41   H     H_    0.095620 0.583232 0.497995 0.238096
H42   H     H_    0.101586 0.575728 0.575241 0.264528
H43   H     H_    0.094179 0.503939 0.523963 0.151209
H44   H     H_    0.141506 0.505688 0.521121 0.276374
H45   H     H_    0.139755 0.478093 0.270621 0.234399
H46   H     H_    0.850947 0.589978 0.520509 0.289428
H47   H     H_    0.904377 0.583243 0.502069 0.238121
H48   H     H_    0.898457 0.575752 0.424766 0.264540
H49   H     H_    0.905816 0.503950 0.476043 0.151189
H50   H     H_    0.858489 0.505726 0.478884 0.276334
H51   H     H_    0.649049 0.090022 0.479440 0.289423
H52   H     H_    0.595621 0.083274 0.497886 0.238139
H53   H     H_    0.601540 0.075810 0.575191 0.264489
H54   H     H_    0.594186 0.003988 0.523958 0.151184
H55   H     H_    0.641514 0.005781 0.521109 0.276333
H56   H     H_    0.860245 0.478072 0.729367 0.234411
H57   H     H_    0.350939 0.090019 0.520586 0.289406
H58   H     H_    0.404380 0.083279 0.502093 0.238128
H59   H     H_    0.398433 0.075813 0.424820 0.264470
H60   H     H_    0.405817 0.003994 0.476041 0.151199
H61   H     H_    0.358489 0.005775 0.478888 0.276353
H62   H     H_    0.638035 0.393831 0.909344 0.253866
H63   H     H_    0.610777 0.345325 0.967912 0.268894
H64   H     H_    0.583812 0.398724 0.999716 0.272719
H65   H     H_    0.608102 0.352886 0.849527 0.212563
H66   H     H_    0.579484 0.402395 0.888055 0.211108
H67   H     H_    0.639756 0.978031 0.270658 0.234402
H68   H     H_    0.361934 0.393792 0.090688 0.253875
H69   H     H_    0.389205 0.345282 0.032133 0.268885
H70   H     H_    0.416163 0.398673 0.000293 0.272731
H71   H     H_    0.391903 0.352897 0.150491 0.212585
H72   H     H_    0.420508 0.402397 0.111913 0.211130
H73   H     H_    0.137770 0.893707 0.911431 0.253592
H74   H     H_    0.110260 0.845208 0.969865 0.268686
H75   H     H_    0.083350 0.898634 0.001374 0.272979
H76   H     H_    0.108337 0.852934 0.850666 0.212454
H77   H     H_    0.079687 0.902436 0.889020 0.210393
H78   H     H_    0.360244 0.978032 0.729345 0.234396
H79   H     H_    0.862248 0.893798 0.088650 0.253585
H80   H     H_    0.889708 0.845298 0.030207 0.268702
H81   H     H_    0.916672 0.898708 0.998693 0.272997
H82   H     H_    0.891666 0.852891 0.149344 0.212487
H83   H     H_    0.920337 0.902402 0.111079 0.210474
H84   H     H_    0.290518 0.465848 0.063904 0.185796
O1    O     O_R   0.066070 0.537300 0.433950 -0.617087
O2    O     O_R   0.566110 0.499970 0.986370 -0.634003
O3    O     O_R   0.933890 0.999970 0.013630 -0.634002
O4    O     O_R   0.066110 0.999970 0.986370 -0.633976
O5    O     O_R   0.500060 0.566050 0.052450 -0.602406
O6    O     O_R   0.499940 0.566050 0.947550 -0.602398
O7    O     O_R   0.000060 0.066050 0.052450 -0.602397
O8    O     O_R   0.999940 0.066050 0.947550 -0.602397
O9    O     O_R   0.066060 0.462690 0.433950 -0.611466
O10   O     O_R   0.933940 0.462690 0.566050 -0.611497
O11   O     O_R   0.566060 0.962690 0.433950 -0.611484
O12   O     O_R   0.933930 0.537300 0.566050 -0.617082
O13   O     O_R   0.433940 0.962690 0.566050 -0.611468
O14   O     O_R   0.999990 0.537300 0.593030 -0.624826
O15   O     O_R   0.000010 0.537300 0.406970 -0.624864
O16   O     O_R   0.499990 0.037300 0.593030 -0.624867
O17   O     O_R   0.500010 0.037300 0.406970 -0.624846
O18   O     O_R   0.999980 0.462680 0.593030 -0.603892
O19   O     O_R   0.000020 0.462680 0.406970 -0.603819
O20   O     O_R   0.499980 0.962680 0.593030 -0.603806
O21   O     O_R   0.500020 0.962680 0.406970 -0.603844
O22   O     O_R   0.962690 0.433950 0.037260 -0.616004
O23   O     O_R   0.566070 0.037300 0.433950 -0.617093
O24   O     O_R   0.037310 0.433950 0.962740 -0.615974
O25   O     O_R   0.462690 0.933950 0.037260 -0.615983
O26   O     O_R   0.537310 0.933950 0.962740 -0.616000
O27   O     O_R   0.962690 0.500030 0.944250 -0.585782
O28   O     O_R   0.037310 0.500030 0.055750 -0.585719
O29   O     O_R   0.462690 0.000030 0.944250 -0.585674
O30   O     O_R   0.537310 0.000030 0.055750 -0.585708
O31   O     O_R   0.037300 0.500060 0.869680 -0.577402
O32   O     O_R   0.962700 0.500060 0.130320 -0.577430
O33   O     O_R   0.537300 0.000060 0.869680 -0.577477
O34   O     O_R   0.433930 0.037300 0.566050 -0.617095
O35   O     O_R   0.462700 0.000060 0.130320 -0.577461
O36   O     O_R   0.962680 0.566120 0.037310 -0.616531
O37   O     O_R   0.037320 0.566120 0.962690 -0.616562
O38   O     O_R   0.462680 0.066120 0.037310 -0.616548
O39   O     O_R   0.537320 0.066120 0.962690 -0.616531
O40   O     O_R   0.499970 0.433870 0.052530 -0.628255
O41   O     O_R   0.500030 0.433870 0.947470 -0.628259
O42   O     O_R   0.999970 0.933870 0.052530 -0.628148
O43   O     O_R   0.000030 0.933870 0.947470 -0.628147
O44   O     O_R   0.433940 0.499980 0.118610 -0.553996
O45   O     O_R   0.566060 0.499980 0.881390 -0.554015
O46   O     O_R   0.933940 0.999980 0.118610 -0.553946
O47   O     O_R   0.066060 0.999980 0.881390 -0.553940
O48   O     O_R   0.433890 0.499970 0.013630 -0.633995
Zn1   Zn    Zn3+2 0.000000 0.549810 0.500000 0.998717
Zn2   Zn    Zn3+2 0.499980 0.499960 0.929910 1.059670
Zn3   Zn    Zn3+2 0.000020 0.999960 0.070090 1.059658
Zn4   Zn    Zn3+2 0.999980 0.999960 0.929910 1.059660
Zn5   Zn    Zn3+2 0.500000 0.049810 0.500000 0.998680
Zn6   Zn    Zn3+2 0.000000 0.450170 0.500000 1.051547
Zn7   Zn    Zn3+2 0.500000 0.950170 0.500000 1.051595
Zn8   Zn    Zn3+2 0.950180 0.500030 0.049790 1.098722
Zn9   Zn    Zn3+2 0.049820 0.500030 0.950210 1.098797
Zn10  Zn    Zn3+2 0.450180 0.000030 0.049790 1.098774
Zn11  Zn    Zn3+2 0.549820 0.000030 0.950210 1.098734
Zn12  Zn    Zn3+2 0.500020 0.499960 0.070090 1.059675

loop_
_geom_bond_atom_site_label_1
_geom_bond_atom_site_label_2
_ccdc_geom_bond_type
C35   C192  S    
C136  C140  A    
C103  H60   S    
C175  H78   S    
C132  F1    S    
C79   F22   S    
O19   Zn6   S    
C80   F10   S    
C192  O44   A    
C26   C185  S    
C65   C178  S    
C155  F33   S    
C26   C92   S    
C62   C70   A    
C101  F25   S    
C193  O2    A    
C89   C94   S    
C149  C153  A    
C100  H54   S    
C118  C131  A    
C4    C199  A    
C150  C172  A    
C152  C156  A    
C49   C51   A    
C24   C127  A    
O47   Zn4   S    
C65   C78   S    
C151  C155  A    
C73   H28   S    
C47   C53   A    
C1    O9    A    
O30   Zn11  S    
O31   Zn9   S    
C108  H70   S    
C168  C187  S    
C130  C134  A    
C42   C44   A    
C1    C167  S    
C41   C49   A    
C65   C87   S    
C5    C200  A    
C29   C69   S    
C192  O48   A    
C153  C158  A    
C96   H44   S    
C122  C149  A    
O41   Zn2   S    
O29   Zn10  S    
C3    C8    A    
C28   C187  S    
C120  C125  A    
C179  C188  S    
O5    Zn12  S    
C104  H57   S    
C17   C21   A    
C58   H24   S    
C23   C31   A    
C91   F17   S    
C19   C23   A    
C112  C169  S    
C28   H23   S    
O11   Zn7   S    
C33   H10   S    
C105  H65   S    
C106  H62   S    
C186  H15   S    
C142  O19   A    
C40   C107  S    
C161  H3    S    
C108  H68   S    
C131  F30   S    
C81   F11   S    
C63   C71   A    
C35   C190  A    
O2    Zn12  S    
C27   C93   S    
O34   Zn5   S    
C39   C47   A    
C170  C174  A    
C4    C196  S    
C72   H27   S    
C54   H20   S    
O32   Zn8   S    
C42   C111  S    
C84   C88   S    
C190  H36   S    
C197  O8    A    
C15   F3    S    
C111  H83   S    
C63   C74   A    
C119  C123  A    
C107  H72   S    
C153  C175  A    
C59   C63   A    
C29   C188  S    
C60   C64   A    
C27   C66   S    
C194  O46   A    
C26   H1    S    
C123  C159  A    
C45   C50   A    
C129  F28   S    
C68   C195  S    
C144  O21   A    
C182  O35   A    
O4    Zn3   S    
C98   C99   S    
O25   Zn10  S    
C80   C186  S    
O27   Zn8   S    
C16   F4    S    
O42   Zn3   S    
O46   Zn3   S    
C199  H6    S    
C37   C176  S    
C25   C31   A    
C143  O20   A    
C79   C115  A    
C146  C185  S    
C97   H42   S    
C125  C160  A    
O6    Zn2   S    
C104  H59   S    
C196  O6    A    
C86   H35   S    
C66   C88   S    
C6    C199  A    
C13   C57   A    
O17   Zn5   S    
C189  O41   A    
C110  H74   S    
C118  C122  A    
C102  H52   S    
C122  C127  A    
C139  C165  A    
C97   H41   S    
C69   C82   S    
C156  F34   S    
C74   C77   A    
C107  C108  S    
C62   C73   A    
O36   Zn8   S    
C145  C150  A    
C4    C198  A    
C38   C177  S    
C41   C109  S    
O44   Zn12  S    
C10   C31   A    
C53   C60   A    
C47   C50   A    
C40   C43   A    
C136  F31   S    
C139  C148  A    
C92   C146  S    
C60   H26   S    
C114  H80   S    
C131  C136  A    
C94   C168  S    
C134  C139  A    
C137  C163  A    
C28   C94   S    
C5    C197  S    
C25   C36   A    
C45   C52   A    
C49   C55   A    
C115  C128  A    
C116  C120  A    
C82   C188  S    
C100  C165  S    
C109  H76   S    
C147  C151  A    
C82   F13   S    
C200  H7    S    
C135  O13   A    
C23   C34   A    
C194  O3    A    
C114  H81   S    
C42   C48   A    
C32   C37   A    
C123  C190  A    
C75   C77   A    
C89   F16   S    
C172  H45   S    
C173  H56   S    
C156  C161  A    
C67   C81   S    
C127  C162  A    
C115  C119  A    
C102  H53   S    
O18   Zn6   S    
C126  C161  A    
C27   H12   S    
O16   Zn5   S    
C22   C30   A    
C18   C22   A    
O1    Zn1   S    
C59   H25   S    
C148  C152  A    
O13   Zn7   S    
C9    C200  A    
C15   C17   A    
C57   C101  A    
C68   C113  A    
C57   C194  S    
C93   F19   S    
C17   F5    S    
C154  C159  A    
O38   Zn10  S    
O28   Zn9   S    
C191  O42   A    
C154  F32   S    
C14   F2    S    
C35   C79   A    
C86   C179  S    
C64   C75   A    
C3    H8    S    
C176  O22   A    
C180  O28   A    
C91   C95   S    
C2    C125  A    
C184  O39   A    
C34   H11   S    
C169  C173  A    
C174  H67   S    
C69   C91   S    
C140  C149  A    
C81   C85   S    
C61   C70   A    
C58   C62   A    
C7    C10   A    
C83   C87   S    
C88   F15   S    
O26   Zn11  S    
C80   C84   S    
O39   Zn11  S    
O48   Zn2   S    
C184  O38   A    
C95   F21   S    
C105  C106  S    
C111  H82   S    
C137  C145  A    
C144  O17   A    
C86   C91   S    
C6    C12   A    
C74   H29   S    
C20   C25   A    
C104  H58   S    
C178  O27   A    
C84   H32   S    
C39   C105  S    
C64   C71   A    
C85   H33   S    
C52   H18   S    
C67   C181  S    
C78   C83   S    
C11   C30   A    
C135  C171  S    
C76   C183  S    
C138  C164  A    
C106  H63   S    
C98   H49   S    
C128  F27   S    
C177  O26   A    
C99   H48   S    
C133  C138  A    
C87   C92   S    
C26   C65   S    
C198  H5    S    
C140  C166  A    
C40   C45   A    
O10   Zn6   S    
C14   C20   A    
C197  O7    A    
C85   C89   S    
C107  H71   S    
C82   C86   S    
C66   C180  S    
C124  O23   A    
C33   C37   A    
C196  O5    A    
C55   H21   S    
C50   C71   A    
C176  O24   A    
C90   F24   S    
C83   C146  S    
C90   C116  A    
C94   F20   S    
C36   H13   S    
C121  C148  A    
C78   C185  S    
C92   F18   S    
C109  H77   S    
C13   H38   S    
C13   C126  A    
C61   C72   A    
C108  H69   S    
C8    C15   A    
O15   Zn1   S    
C41   C44   A    
O14   Zn1   S    
C142  C157  S    
C181  O29   A    
C195  O4    A    
C66   C80   S    
C165  C170  A    
C103  H61   S    
O9    Zn6   S    
C181  O33   A    
C96   H43   S    
C3    C5    A    
C6    C10   A    
C1    O1    A    
C180  O32   A    
C167  C172  A    
O40   Zn12  S    
C119  C145  A    
C21   C30   A    
C32   H9    S    
C130  F29   S    
C101  C117  A    
C7    C198  A    
C36   C38   A    
C132  C137  A    
O33   Zn11  S    
C109  C110  S    
C2    H37   S    
C193  O45   A    
C113  F26   S    
O20   Zn7   S    
C12   C19   A    
C195  O47   A    
C110  H75   S    
C111  C114  S    
C105  H66   S    
C97   H40   S    
O37   Zn9   S    
O43   Zn4   S    
C24   C68   A    
C191  O43   A    
C99   H46   S    
C120  C147  A    
C134  F23   S    
C55   C58   A    
C103  C104  S    
C56   C61   A    
C53   H19   S    
C142  O15   A    
C75   H30   S    
C151  C173  A    
C183  O37   A    
C72   C76   A    
C2    C46   A    
C48   C54   A    
C160  H2    S    
C29   H34   S    
C188  H17   S    
C9    C16   A    
O23   Zn5   S    
C100  H55   S    
C141  O14   A    
C44   C191  S    
C182  O30   A    
C124  O11   A    
C67   C89   S    
C77   C184  S    
C187  H16   S    
O21   Zn7   S    
C117  C121  A    
C185  H14   S    
C87   F14   S    
C7    C14   A    
C116  C129  A    
C46   C90   A    
C135  O34   A    
C112  O10   A    
C69   C182  S    
C152  C174  A    
C166  C171  A    
C19   F7    S    
C164  C169  A    
C128  C132  A    
C48   C51   A    
C21   C32   A    
C54   C56   A    
C178  O31   A    
O7    Zn3   S    
C28   C67   S    
C157  C186  S    
C29   C95   S    
C158  C162  A    
C39   C43   A    
C171  C175  A    
C110  H73   S    
C27   C186  S    
C183  O36   A    
C163  C167  A    
O3    Zn4   S    
C52   C59   A    
C158  F35   S    
C162  H4    S    
C144  C179  S    
C138  C147  A    
C96   C97   S    
C100  C102  S    
O12   Zn1   S    
C93   C157  S    
C117  C130  A    
C9    C11   A    
C78   F9    S    
O45   Zn2   S    
O35   Zn10  S    
C141  C146  S    
C95   C179  S    
C51   C70   A    
C129  C133  A    
C20   F8    S    
C189  O40   A    
C46   C193  S    
C12   F36   S    
C22   C33   A    
C88   C93   S    
C155  C160  A    
C34   C38   A    
C85   C168  S    
C141  O18   A    
C56   H22   S    
C114  H79   S    
O24   Zn9   S    
C102  H51   S    
C98   C164  S    
C84   C157  S    
O8    Zn4   S    
C143  O16   A    
C96   C163  S    
C18   F6    S    
C83   H31   S    
C121  C126  A    
C8    C11   A    
C73   C76   A    
C143  C168  S    
C112  O12   A    
C113  C118  A    
C124  C170  S    
C43   C189  S    
C103  C166  S    
C16   C18   A    
C150  C154  A    
C133  F12   S    
O22   Zn8   S    
C106  H64   S    
C159  H84   S    
C81   C187  S    
C98   H50   S    
C177  O25   A    
C24   H39   S    
C99   H47   S    
