data_mof_unit_21347.cif
_audit_creation_date              2012-12-11T20:34:10-0500
_audit_creation_method            fapswitch 2.2
_symmetry_space_group_name_H-M    P1
_symmetry_Int_Tables_number       1
_space_group_crystal_system       triclinic
_cell_length_a                    24.83245
_cell_length_b                    28.161134
_cell_length_c                    8.468916
_cell_angle_alpha                 89.982912
_cell_angle_beta                  95.451416
_cell_angle_gamma                 90.055299
_cell_volume                      5895.60803501

loop_
_atom_site_label
_atom_site_type_symbol
_atom_type_description
_atom_site_fract_x
_atom_site_fract_y
_atom_site_fract_z
_atom_type_partial_charge
Ba1   Ba    Ba6+2 0.999910 0.466800 0.844920 1.661295
Ba2   Ba    Ba6+2 0.999910 0.533200 0.344920 1.634225
Ba3   Ba    Ba6+2 0.499910 0.966800 0.844920 1.661203
Ba4   Ba    Ba6+2 0.499910 0.033200 0.344920 1.634120
C1    C     C_3   0.046335 0.288746 0.605064 -0.298597
C2    C     C_2   0.849682 0.676487 0.856472 -0.127163
C3    C     C_3   0.253286 0.942673 0.688213 -0.347454
C4    C     C_3   0.981445 0.227893 0.487206 -0.194308
C5    C     C_3   0.926617 0.217759 0.396053 -0.385361
C6    C     C_3   0.003452 0.762822 0.978418 -0.197143
C7    C     C_3   0.056891 0.775794 0.912798 -0.456491
C8    C     C_3   0.481428 0.727887 0.487217 -0.194313
C9    C     C_3   0.426597 0.717757 0.396076 -0.385355
C10   C     C_3   0.503451 0.262823 0.978409 -0.197111
C11   C     C_3   0.556893 0.275794 0.912799 -0.456475
C12   C     C_3   0.088024 0.174960 0.135180 -0.267724
C13   C     C_2   0.351555 0.822213 0.355499 -0.139274
C14   C     C_3   0.039666 0.141754 0.144453 -0.417482
C15   C     C_3   0.897982 0.756272 0.490840 -0.274503
C16   C     C_3   0.869883 0.796877 0.395399 -0.364253
C17   C     C_3   0.587992 0.674954 0.135205 -0.267740
C18   C     C_3   0.539629 0.641753 0.144454 -0.417453
C19   C     C_3   0.397950 0.256253 0.490702 -0.274488
C20   C     C_3   0.369859 0.296850 0.395198 -0.364247
C21   C     C_1   0.124334 0.239165 0.979382 0.267500
C22   C     C_1   0.986077 0.797136 0.544912 0.314686
C23   C     C_1   0.624318 0.739152 0.979411 0.267503
C24   C     C_2   0.349681 0.176485 0.856469 -0.127149
C25   C     C_1   0.486027 0.297132 0.544948 0.314699
C26   C     C_3   0.205921 0.442931 0.107757 -0.158521
C27   C     C_3   0.238036 0.418831 0.987377 -0.430504
C28   C     C_3   0.221546 0.541324 0.534949 -0.162202
C29   C     C_3   0.198621 0.578444 0.641400 -0.285293
C30   C     C_3   0.705885 0.942938 0.107551 -0.158503
C31   C     C_3   0.738052 0.918856 0.987259 -0.430454
C32   C     C_3   0.721582 0.041301 0.535057 -0.162273
C33   C     C_3   0.698385 0.078454 0.640836 -0.284937
C34   C     C_2   0.828957 0.321439 0.194795 -0.066835
C35   C     C_2   0.825061 0.676388 0.697633 -0.080476
C36   C     C_2   0.328957 0.821440 0.194797 -0.066840
C37   C     C_2   0.325060 0.176387 0.697630 -0.080483
C38   C     C_2   0.844654 0.357919 0.092215 -0.123439
C39   C     C_2   0.841019 0.640245 0.594182 -0.163920
C40   C     C_2   0.344655 0.857919 0.092214 -0.123442
C41   C     C_3   0.048368 0.703317 0.170000 -0.262507
C42   C     C_2   0.341017 0.140243 0.594179 -0.163935
C43   C     C_1   0.881347 0.392620 0.148732 0.091433
C44   C     C_1   0.879714 0.606942 0.648335 0.080901
C45   C     C_1   0.381348 0.892620 0.148730 0.091439
C46   C     C_1   0.379713 0.106941 0.648333 0.080907
C47   C     C_R   0.216986 0.715360 0.027509 0.459015
C48   C     C_R   0.212593 0.282232 0.530017 0.453070
C49   C     C_R   0.716986 0.215359 0.027497 0.459030
C50   C     C_R   0.712579 0.782224 0.530043 0.453063
C51   C     C_R   0.789772 0.283608 0.135218 0.460192
C52   C     C_3   0.546325 0.788735 0.605069 -0.298599
C53   C     C_R   0.784944 0.713732 0.639076 0.450684
C54   C     C_R   0.289772 0.783609 0.135223 0.460191
C55   C     C_R   0.284945 0.213733 0.639069 0.450679
C56   C     C_R   0.165024 0.637441 0.074381 -0.149550
C57   C     C_R   0.158424 0.358850 0.578558 -0.147271
C58   C     C_R   0.665022 0.137441 0.074368 -0.149506
C59   C     C_R   0.658396 0.858834 0.578599 -0.147252
C60   C     C_R   0.124917 0.604143 0.024075 0.004348
C61   C     C_R   0.121751 0.394487 0.523469 0.009209
C62   C     C_R   0.624917 0.104142 0.024059 0.004420
C63   C     C_3   0.548362 0.203316 0.169993 -0.262503
C64   C     C_R   0.621736 0.894478 0.523493 0.009338
C65   C     C_R   0.106237 0.649718 0.779630 0.014654
C66   C     C_R   0.105676 0.350205 0.273207 -0.024532
C67   C     C_R   0.606250 0.149709 0.779587 0.014687
C68   C     C_R   0.605666 0.850200 0.273221 -0.024531
C69   C     C_3   0.041967 0.256216 0.113863 0.278160
C70   C     C_3   0.984281 0.708513 0.548769 0.262633
C71   C     C_3   0.541950 0.756216 0.113867 0.278171
C72   C     C_3   0.484254 0.208508 0.548758 0.262633
C73   C     C_R   0.147010 0.682679 0.827500 -0.151046
C74   C     C_3   0.884069 0.361962 0.413158 -0.057885
C75   C     C_R   0.146333 0.317289 0.323778 -0.155880
C76   C     C_R   0.647018 0.182673 0.827470 -0.151041
C77   C     C_R   0.646320 0.817281 0.323801 -0.155868
C78   C     C_R   0.176070 0.678699 0.970700 -0.052726
C79   C     C_R   0.172223 0.319335 0.471813 -0.043728
C80   C     C_R   0.676072 0.178696 0.970681 -0.052731
C81   C     C_R   0.672204 0.819324 0.471845 -0.043772
C82   C     C_R   0.095658 0.609907 0.884497 -0.244089
C83   C     C_R   0.095336 0.390512 0.378188 -0.234886
C84   C     C_R   0.595670 0.109898 0.884457 -0.244188
C85   C     C_3   0.882868 0.636837 0.912707 -0.024803
C86   C     C_R   0.595328 0.890508 0.378200 -0.234952
C87   C     C_3   0.074062 0.218659 0.028987 -0.125069
C88   C     C_3   0.959147 0.754436 0.475197 -0.135693
C89   C     C_3   0.574042 0.718653 0.029004 -0.125066
C90   C     C_3   0.459121 0.254429 0.475167 -0.135698
C91   C     C_3   0.194490 0.496569 0.081635 0.272691
C92   C     C_3   0.200909 0.489653 0.559536 0.305291
C93   C     C_3   0.694458 0.996576 0.081461 0.272756
C94   C     C_3   0.700909 0.989635 0.559484 0.305203
C95   C     C_3   0.245661 0.527334 0.120543 -0.268150
C96   C     C_3   0.384069 0.861964 0.413158 -0.057880
C97   C     C_3   0.249019 0.456316 0.608774 -0.297437
C98   C     C_3   0.745645 0.027336 0.120157 -0.268250
C99   C     C_3   0.749007 0.956259 0.608483 -0.297504
C100  C     C_3   0.841700 0.528881 0.966305 0.309469
C101  C     C_3   0.842595 0.470807 0.464422 0.311527
C102  C     C_3   0.341700 0.028880 0.966305 0.309469
C103  C     C_3   0.342595 0.970807 0.464422 0.311528
C104  C     C_3   0.787896 0.554758 0.919222 -0.222090
C105  C     C_3   0.789079 0.444565 0.416261 -0.220178
C106  C     C_3   0.287895 0.054757 0.919220 -0.222088
C107  C     C_3   0.382866 0.136836 0.912703 -0.024789
C108  C     C_3   0.289078 0.944566 0.416256 -0.220177
C109  C     C_3   0.989115 0.280940 0.526673 0.387176
C110  C     C_3   0.001547 0.711611 0.042298 0.346898
C111  C     C_3   0.489104 0.780934 0.526679 0.387171
C112  C     C_3   0.501543 0.211612 0.042286 0.346842
C113  C     C_2   0.911255 0.383799 0.290882 -0.235023
C114  C     C_2   0.910200 0.616392 0.788719 -0.246291
C115  C     C_2   0.411256 0.883799 0.290882 -0.235025
C116  C     C_2   0.410199 0.116391 0.788716 -0.246293
C117  C     C_1   0.282381 0.529100 0.995203 0.243700
C118  C     C_2   0.851557 0.322210 0.355496 -0.139271
C119  C     C_1   0.290215 0.454572 0.495437 0.229211
C120  C     C_1   0.782226 0.029195 0.994476 0.243698
C121  C     C_1   0.790191 0.954564 0.495104 0.229178
C122  C     C_3   0.768741 0.586440 0.050612 -0.222051
C123  C     C_3   0.752832 0.558020 0.191907 -0.354331
C124  C     C_3   0.769216 0.413590 0.548427 -0.220491
C125  C     C_3   0.753287 0.442673 0.688217 -0.347455
C126  C     C_3   0.268739 0.086440 0.050608 -0.222053
C127  C     C_3   0.252832 0.058021 0.191906 -0.354332
C128  C     C_3   0.269213 0.913591 0.548419 -0.220492
H1    H     H_    0.983875 0.301506 0.413671 -0.056938
H2    H     H_    0.269179 0.467643 0.723969 0.126632
H3    H     H_    0.300701 0.887559 0.591396 0.128945
H4    H     H_    0.893562 0.225061 0.472055 0.160146
H5    H     H_    0.920931 0.239853 0.287128 0.118454
H6    H     H_    0.924353 0.179768 0.361085 0.124832
H7    H     H_    0.013814 0.215687 0.415148 0.060158
H8    H     H_    0.984857 0.206687 0.598566 0.121844
H9    H     H_    0.091463 0.773553 0.005506 0.135550
H10   H     H_    0.064172 0.752290 0.812253 0.155024
H11   H     H_    0.055130 0.813121 0.871355 0.170747
H12   H     H_    0.969963 0.767584 0.883003 0.111401
H13   H     H_    0.768754 0.014937 0.230391 0.105159
H14   H     H_    0.996366 0.788279 0.074696 0.122693
H15   H     H_    0.393544 0.725064 0.472082 0.160146
H16   H     H_    0.420912 0.739847 0.287144 0.118451
H17   H     H_    0.424327 0.679765 0.361123 0.124842
H18   H     H_    0.513793 0.715677 0.415152 0.060165
H19   H     H_    0.484840 0.706681 0.598578 0.121843
H20   H     H_    0.591463 0.273554 0.005515 0.135537
H21   H     H_    0.564176 0.252286 0.812263 0.155059
H22   H     H_    0.555133 0.313118 0.871344 0.170754
H23   H     H_    0.469964 0.267586 0.882990 0.111426
H24   H     H_    0.769195 0.967521 0.723715 0.126611
H25   H     H_    0.496364 0.288280 0.074686 0.122696
H26   H     H_    0.006208 0.159837 0.197868 0.130973
H27   H     H_    0.024776 0.128892 0.024188 0.142423
H28   H     H_    0.052264 0.110579 0.219298 0.137705
H29   H     H_    0.120551 0.153916 0.086259 0.128549
H30   H     H_    0.103584 0.186376 0.256801 0.127304
H31   H     H_    0.885193 0.831799 0.441029 0.145287
H32   H     H_    0.876688 0.793641 0.268078 0.145456
H33   H     H_    0.825708 0.795399 0.405947 0.147738
H34   H     H_    0.879247 0.722570 0.445149 0.150961
H35   H     H_    0.862344 0.523534 0.857270 0.002582
H36   H     H_    0.890604 0.759953 0.617749 0.118171
H37   H     H_    0.506167 0.659840 0.197837 0.130976
H38   H     H_    0.524747 0.628889 0.024185 0.142434
H39   H     H_    0.552218 0.610579 0.219316 0.137715
H40   H     H_    0.620520 0.653906 0.086302 0.128555
H41   H     H_    0.603547 0.686370 0.256831 0.127291
H42   H     H_    0.385153 0.331776 0.440829 0.145307
H43   H     H_    0.376688 0.293609 0.267896 0.145469
H44   H     H_    0.325679 0.295366 0.405675 0.147746
H45   H     H_    0.379231 0.222546 0.445002 0.151000
H46   H     H_    0.863341 0.476573 0.355849 0.003477
H47   H     H_    0.390547 0.259939 0.617590 0.118184
H48   H     H_    0.214464 0.420608 0.870989 0.142553
H49   H     H_    0.278626 0.434948 0.984900 0.141985
H50   H     H_    0.243519 0.380761 0.019198 0.145729
H51   H     H_    0.226676 0.436848 0.227560 0.094671
H52   H     H_    0.166503 0.424074 0.105399 0.130153
H53   H     H_    0.153915 0.577380 0.624183 0.153097
H54   H     H_    0.211836 0.571462 0.767878 0.102130
H55   H     H_    0.212667 0.614399 0.610230 0.110606
H56   H     H_    0.266354 0.543831 0.554046 0.092884
H57   H     H_    0.362344 0.023534 0.857270 0.002583
H58   H     H_    0.210336 0.552485 0.411234 0.106695
H59   H     H_    0.714513 0.920621 0.870816 0.142575
H60   H     H_    0.778636 0.934997 0.984896 0.141929
H61   H     H_    0.743551 0.880788 0.019088 0.145706
H62   H     H_    0.726604 0.936848 0.227396 0.094669
H63   H     H_    0.666466 0.924078 0.105080 0.130196
H64   H     H_    0.653688 0.077274 0.623151 0.153523
H65   H     H_    0.711458 0.071598 0.767490 0.101903
H66   H     H_    0.712372 0.114413 0.609508 0.110655
H67   H     H_    0.766372 0.043829 0.555029 0.093452
H68   H     H_    0.363342 0.976573 0.355851 0.003481
H69   H     H_    0.710639 0.052400 0.411143 0.106177
H70   H     H_    0.868257 0.550406 0.051514 0.041841
H71   H     H_    0.869201 0.449306 0.549486 0.039179
H72   H     H_    0.368256 0.050406 0.051515 0.041845
H73   H     H_    0.004840 0.686473 0.942180 -0.026649
H74   H     H_    0.369199 0.949306 0.549488 0.039185
H75   H     H_    0.792722 0.577592 0.814864 0.051354
H76   H     H_    0.794553 0.421179 0.313766 0.045010
H77   H     H_    0.292721 0.077590 0.814860 0.051356
H78   H     H_    0.294553 0.921180 0.313761 0.045013
H79   H     H_    0.755650 0.528754 0.880649 0.124042
H80   H     H_    0.756948 0.470286 0.374684 0.123916
H81   H     H_    0.255649 0.028752 0.880650 0.124042
H82   H     H_    0.256948 0.970288 0.374679 0.123915
H83   H     H_    0.076448 0.276440 0.525857 0.043767
H84   H     H_    0.483867 0.801500 0.413676 -0.056933
H85   H     H_    0.086766 0.699955 0.115759 0.058745
H86   H     H_    0.576436 0.776426 0.525860 0.043772
H87   H     H_    0.586762 0.199955 0.115760 0.058762
H88   H     H_    0.053067 0.326832 0.631945 0.133110
H89   H     H_    0.042054 0.670188 0.234912 0.172700
H90   H     H_    0.553060 0.826819 0.631957 0.133125
H91   H     H_    0.542044 0.170186 0.234891 0.172735
H92   H     H_    0.839487 0.295980 0.439141 0.099525
H93   H     H_    0.839691 0.703812 0.939256 0.109179
H94   H     H_    0.339482 0.795985 0.439148 0.099523
H95   H     H_    0.504837 0.186475 0.942167 -0.026618
H96   H     H_    0.339689 0.203810 0.939252 0.109176
H97   H     H_    0.827598 0.359243 0.969523 0.115957
H98   H     H_    0.823495 0.638647 0.471916 0.116304
H99   H     H_    0.327600 0.859242 0.969521 0.115963
H100  H     H_    0.323494 0.138646 0.471912 0.116300
H101  H     H_    0.187182 0.633590 0.189982 0.096308
H102  H     H_    0.177536 0.360553 0.698472 0.106445
H103  H     H_    0.687177 0.133591 0.189974 0.096325
H104  H     H_    0.677508 0.860537 0.698514 0.106495
H105  H     H_    0.154231 0.711770 0.748570 0.109084
H106  H     H_    0.233662 0.564334 0.141757 0.045768
H107  H     H_    0.155606 0.289205 0.244215 0.093407
H108  H     H_    0.654238 0.211766 0.748544 0.109081
H109  H     H_    0.655596 0.789200 0.244234 0.093419
H110  H     H_    0.954665 0.389689 0.303854 0.046283
H111  H     H_    0.953818 0.611942 0.799071 0.043565
H112  H     H_    0.454666 0.889688 0.303852 0.046293
H113  H     H_    0.453817 0.111941 0.799068 0.043582
H114  H     H_    0.064661 0.584441 0.844512 0.073527
H115  H     H_    0.067041 0.417714 0.334203 0.078313
H116  H     H_    0.564677 0.084429 0.844464 0.073534
H117  H     H_    0.234737 0.419698 0.620612 0.048406
H118  H     H_    0.567043 0.917716 0.334200 0.078311
H119  H     H_    0.052452 0.268625 0.717619 0.132634
H120  H     H_    0.052228 0.733322 0.255083 0.124473
H121  H     H_    0.552440 0.768612 0.717621 0.132626
H122  H     H_    0.552219 0.233319 0.255089 0.124458
H123  H     H_    0.002970 0.240045 0.138478 0.054221
H124  H     H_    0.964214 0.678272 0.482521 0.092236
H125  H     H_    0.502949 0.740052 0.138477 0.054211
H126  H     H_    0.464207 0.178266 0.482468 0.092269
H127  H     H_    0.062341 0.265479 0.231476 -0.066015
H128  H     H_    0.733661 0.064321 0.141711 0.045926
H129  H     H_    0.976478 0.705920 0.675356 -0.040124
H130  H     H_    0.562323 0.765479 0.231482 -0.066019
H131  H     H_    0.476430 0.205907 0.675326 -0.040075
H132  H     H_    0.049296 0.207021 0.919536 0.086454
H133  H     H_    0.965438 0.754785 0.347836 0.131820
H134  H     H_    0.549276 0.707017 0.919549 0.086456
H135  H     H_    0.465440 0.254787 0.347825 0.131813
H136  H     H_    0.175891 0.503301 0.959753 0.073450
H137  H     H_    0.181012 0.476311 0.446098 0.043041
H138  H     H_    0.675809 0.003306 0.959636 0.073581
H139  H     H_    0.734713 0.919640 0.620162 0.048428
H140  H     H_    0.680966 0.976342 0.446040 0.043271
H141  H     H_    0.721646 0.531091 0.153112 0.122550
H142  H     H_    0.788972 0.540248 0.251077 0.169301
H143  H     H_    0.736283 0.582281 0.278617 0.115799
H144  H     H_    0.800624 0.612339 0.092168 0.130113
H145  H     H_    0.732928 0.607008 0.000481 0.119370
H146  H     H_    0.789534 0.460147 0.748165 0.166714
H147  H     H_    0.722732 0.469907 0.647624 0.123711
H148  H     H_    0.735939 0.418912 0.775011 0.117683
H149  H     H_    0.733264 0.393155 0.498337 0.125335
H150  H     H_    0.268664 0.514987 0.231019 0.104988
H151  H     H_    0.800706 0.387560 0.591408 0.128944
H152  H     H_    0.221646 0.031091 0.153115 0.122547
H153  H     H_    0.288972 0.040250 0.251077 0.169303
H154  H     H_    0.236282 0.082282 0.278614 0.115798
H155  H     H_    0.300622 0.112339 0.092161 0.130114
H156  H     H_    0.232926 0.107007 0.000475 0.119361
H157  H     H_    0.289535 0.960145 0.748164 0.166714
H158  H     H_    0.222734 0.969911 0.647623 0.123709
H159  H     H_    0.235936 0.918913 0.775003 0.117685
H160  H     H_    0.233260 0.893159 0.498327 0.125336
N1    N     N_R   0.242132 0.713503 0.177232 -0.243042
N2    N     N_R   0.758261 0.710867 0.491459 -0.253751
N3    N     N_R   0.264808 0.785359 0.985275 -0.244671
N4    N     N_R   0.258258 0.210865 0.491459 -0.253760
N5    N     N_R   0.229207 0.752081 0.932746 -0.245596
N6    N     N_R   0.222887 0.244231 0.438345 -0.256073
N7    N     N_R   0.729210 0.252080 0.932733 -0.245591
N8    N     N_R   0.722885 0.744230 0.438354 -0.256051
N9    N     N_1   0.312263 0.531436 0.898662 -0.294056
N10   N     N_1   0.323255 0.452728 0.408020 -0.287289
N11   N     N_1   0.812001 0.031608 0.897668 -0.294228
N12   N     N_R   0.239416 0.285170 0.677450 -0.230428
N13   N     N_1   0.823227 0.952755 0.407665 -0.287382
N14   N     N_1   0.163882 0.255104 0.939923 -0.262420
N15   N     N_1   0.006849 0.831257 0.596688 -0.299243
N16   N     N_1   0.663870 0.755085 0.939961 -0.262412
N17   N     N_1   0.506777 0.331256 0.596777 -0.299219
N18   N     N_R   0.742129 0.213503 0.177223 -0.243048
N19   N     N_R   0.739398 0.785159 0.677482 -0.230442
N20   N     N_R   0.777658 0.246844 0.229889 -0.248362
N21   N     N_R   0.774714 0.751727 0.730765 -0.235902
N22   N     N_R   0.277661 0.746844 0.229894 -0.248366
N23   N     N_R   0.274727 0.251734 0.730741 -0.235902
N24   N     N_R   0.764810 0.285357 0.985266 -0.244670
O1    O     O_2   0.893910 0.433590 0.874460 -0.462266
O2    O     O_3   0.040320 0.708389 0.535148 -0.622319
O3    O     O_3   0.528862 0.795410 0.014176 -0.576836
O4    O     O_3   0.540299 0.208400 0.535226 -0.622294
O5    O     O_3   0.061740 0.523180 0.062830 -0.456782
O6    O     O_3   0.061740 0.476820 0.562830 -0.458168
O7    O     O_3   0.561740 0.023180 0.062830 -0.456843
O8    O     O_3   0.561740 0.976820 0.562830 -0.458278
O9    O     O_3   0.938210 0.476710 0.126870 -0.486685
O10   O     O_3   0.938210 0.523290 0.626870 -0.483910
O11   O     O_3   0.438210 0.976710 0.126870 -0.486681
O12   O     O_2   0.893910 0.566410 0.374460 -0.465977
O13   O     O_3   0.438210 0.023290 0.626870 -0.483905
O14   O     O_3   0.981570 0.392580 0.636990 -0.475348
O15   O     O_3   0.981570 0.607420 0.136990 -0.488349
O16   O     O_3   0.481570 0.892580 0.636990 -0.475328
O17   O     O_3   0.481570 0.107420 0.136990 -0.488340
O18   O     O_2   0.892859 0.357090 0.740681 -0.459576
O19   O     O_2   0.894250 0.645676 0.241676 -0.490998
O20   O     O_2   0.392856 0.857094 0.740674 -0.459577
O21   O     O_2   0.394248 0.145676 0.241668 -0.491026
O22   O     O_3   0.830806 0.485056 0.034596 -0.658417
O23   O     O_2   0.393910 0.933590 0.874460 -0.462260
O24   O     O_3   0.831196 0.514383 0.533352 -0.655147
O25   O     O_3   0.330806 0.985055 0.034596 -0.658417
O26   O     O_3   0.331196 0.014383 0.533351 -0.655146
O27   O     O_3   0.952036 0.293613 0.635117 -0.560054
O28   O     O_3   0.952282 0.706536 0.110605 -0.614918
O29   O     O_3   0.452028 0.793613 0.635124 -0.560054
O30   O     O_3   0.452277 0.206537 0.110588 -0.614925
O31   O     O_2   0.105800 0.433150 0.815270 -0.446695
O32   O     O_2   0.105800 0.566850 0.315270 -0.432154
O33   O     O_2   0.605800 0.933150 0.815270 -0.446710
O34   O     O_2   0.393910 0.066410 0.374460 -0.465974
O35   O     O_2   0.605800 0.066850 0.315270 -0.432255
O36   O     O_3   0.018000 0.392500 0.052760 -0.446371
O37   O     O_3   0.018000 0.607500 0.552760 -0.487908
O38   O     O_3   0.518000 0.892500 0.052760 -0.446372
O39   O     O_3   0.518000 0.107500 0.552760 -0.487945
O40   O     O_2   0.103555 0.353905 0.942315 -0.473591
O41   O     O_2   0.107975 0.644916 0.456568 -0.485096
O42   O     O_2   0.603555 0.853903 0.942327 -0.473615
O43   O     O_2   0.607944 0.144947 0.456479 -0.485254
O44   O     O_3   0.164128 0.489956 0.677812 -0.633126
O45   O     O_3   0.158369 0.506850 0.193880 -0.638963
O46   O     O_3   0.664161 0.989922 0.677845 -0.633259
O47   O     O_3   0.658393 0.006869 0.193845 -0.639006
O48   O     O_3   0.028869 0.295410 0.014182 -0.576847
P1    P     P_3+3 0.888690 0.449140 0.046940 0.972157
P2    P     P_3+3 0.067687 0.652173 0.582784 0.920109
P3    P     P_3+3 0.565846 0.846591 0.075257 0.981437
P4    P     P_3+3 0.567678 0.152182 0.582770 0.919917
P5    P     P_3+3 0.928140 0.648006 0.097997 0.927189
P6    P     P_3+3 0.928220 0.351646 0.601709 0.985976
P7    P     P_3+3 0.428139 0.148005 0.097991 0.927167
P8    P     P_3+3 0.428219 0.851648 0.601708 0.985979
P9    P     P_3+3 0.888690 0.550860 0.546940 0.968903
P10   P     P_3+3 0.388690 0.949140 0.046940 0.972164
P11   P     P_3+3 0.388690 0.050860 0.546940 0.968907
P12   P     P_3+3 0.111080 0.448680 0.642780 1.002233
P13   P     P_3+3 0.111080 0.551320 0.142780 0.993570
P14   P     P_3+3 0.611080 0.948680 0.642780 1.002080
P15   P     P_3+3 0.611080 0.051320 0.142780 0.993565
P16   P     P_3+3 0.065850 0.346593 0.075252 0.981461

loop_
_geom_bond_atom_site_label_1
_geom_bond_atom_site_label_2
_ccdc_geom_bond_type
C31   H60   S    
C103  C108  S    
C15   C16   S    
C47   N5    A    
C20   H42   S    
C67   P4    S    
C24   H96   S    
C52   H86   S    
C86   H118  S    
C122  C123  S    
O23   P10   D    
C123  H141  S    
C41   H120  S    
C103  H68   S    
C91   C95   S    
C93   H138  S    
C22   C88   S    
C30   C31   S    
C70   C88   S    
C50   N19   A    
C127  H152  S    
O27   P6    S    
C14   H27   S    
C72   C90   S    
C34   C51   S    
Ba1   O1    S    
O12   P9    D    
C64   C86   D    
C44   P9    S    
C55   N23   A    
C19   H47   S    
N1    N22   A    
C100  O22   S    
C95   C117  S    
C8    C111  S    
C30   H62   S    
C106  H81   S    
O29   P8    S    
C118  H92   S    
C17   C18   S    
C27   H49   S    
O18   P6    D    
C101  O24   S    
C61   C83   D    
C24   C107  A    
N18   N20   A    
C36   C54   S    
O36   P16   S    
C8    H18   S    
O33   P14   D    
C126  H156  S    
Ba4   O39   S    
O8    P14   S    
C127  H153  S    
C62   P15   S    
C89   H134  S    
C12   H30   S    
C16   H31   S    
C105  H76   S    
C51   N20   A    
C5    H6    S    
O2    P2    S    
O21   P7    D    
O45   P13   S    
C63   H91   S    
C69   C87   S    
C3    C128  S    
C18   H38   S    
C17   H41   S    
C23   C89   S    
C106  H77   S    
C60   P13   S    
C20   H44   S    
C50   N8    A    
C71   C89   S    
C122  H144  S    
O38   P3    S    
C91   O45   S    
O11   P10   S    
C1    C109  S    
C66   C75   A    
C56   H101  S    
C123  H143  S    
C44   C114  A    
C69   H127  S    
Ba4   P11   S    
C83   H115  S    
C90   H135  S    
C17   H40   S    
Ba3   P14   S    
C56   C60   A    
C27   H48   S    
C4    H8    S    
C126  C127  S    
C68   P3    S    
C51   N24   A    
O37   P2    S    
C17   C89   S    
C73   C78   D    
O39   P4    S    
C98   H128  S    
O25   P10   S    
C13   C96   A    
C19   H45   S    
C67   C84   S    
C70   H129  S    
C57   C61   A    
C99   H24   S    
C12   C87   S    
O31   P12   D    
C104  C122  S    
C7    H11   S    
C75   C79   D    
O13   P11   S    
Ba4   O35   S    
C65   C73   A    
C32   H67   S    
O1    P1    D    
C124  C125  S    
Ba1   O6    S    
C39   H98   S    
N3    N5    A    
Ba2   O32   S    
Ba3   O16   S    
C49   C80   S    
C46   C116  A    
C32   C33   S    
Ba1   O10   S    
C62   C84   D    
C25   C90   S    
C3    H158  S    
O4    P4    S    
O14   P6    S    
C2    H93   S    
C30   C93   S    
C23   N16   T    
C48   N6    A    
C15   C88   S    
C59   H104  S    
C95   H106  S    
O9    P1    S    
C41   C110  S    
Ba3   O7    S    
C55   N4    A    
O20   P8    D    
C11   H22   S    
C19   C20   S    
C29   H54   S    
C108  H82   S    
Ba4   O17   S    
C3    H159  S    
O48   P16   S    
Ba1   O36   S    
C66   C83   S    
C58   C62   A    
C109  O27   S    
C107  P7    S    
C92   H137  S    
C46   P11   S    
C99   H139  S    
C63   C112  S    
C38   H97   S    
C84   H116  S    
C68   C86   S    
O34   P11   D    
Ba2   O5    S    
C28   H58   S    
C125  H146  S    
C96   C115  A    
C6    H12   S    
C33   H66   S    
C7    H9    S    
C103  O26   S    
N7    N24   A    
C6    H14   S    
N19   N21   A    
C32   H69   S    
C9    H15   S    
Ba3   Ba4   S    
C63   H122  S    
C101  C105  S    
C59   C64   A    
C111  O29   S    
C31   H59   S    
C58   H103  S    
C42   H100  S    
C97   H117  S    
C18   H39   S    
C110  H73   S    
C41   H89   S    
C63   H87   S    
Ba1   O31   S    
C120  N11   T    
O32   P13   D    
C100  H35   S    
C54   N3    A    
C45   C115  A    
O16   P8    S    
Ba2   P9    S    
O3    P3    S    
C99   C121  S    
C11   H21   S    
C14   H28   S    
C6    C7    S    
C36   C40   A    
C8    C9    S    
C49   N7    A    
C10   C11   S    
O6    P12   S    
C70   O2    S    
C59   C81   S    
Ba4   P15   S    
Ba1   P12   S    
C30   H63   S    
Ba3   P10   S    
C26   H51   S    
C53   N21   A    
C45   P10   S    
C76   C80   D    
C109  H1    S    
Ba4   O34   S    
C40   H99   S    
C98   H13   S    
Ba3   O23   S    
C26   C27   S    
C101  H71   S    
O10   P9    S    
C94   C99   S    
C16   H32   S    
C24   C37   A    
C125  H148  S    
Ba2   P13   S    
C77   H109  S    
O28   P5    S    
C48   N12   A    
C58   C80   S    
C53   N2    A    
C5    H5    S    
C71   H125  S    
O24   P9    S    
Ba4   O7    S    
O26   P11   S    
C75   H107  S    
C54   N22   A    
C115  H112  S    
C68   C77   A    
C6    C110  S    
C113  H110  S    
N4    N6    A    
C92   C97   S    
C73   H105  S    
Ba3   O38   S    
O42   P3    D    
C25   N17   T    
C98   C120  S    
C60   C82   D    
C11   H20   S    
C122  H145  S    
C10   H25   S    
C112  O30   S    
O22   P1    S    
C66   P16   S    
C119  N10   T    
C57   C79   S    
C112  H95   S    
C94   H140  S    
O41   P2    D    
Ba2   O15   S    
O43   P4    D    
O40   P16   D    
C13   C36   A    
C108  H78   S    
C48   C79   S    
C26   C91   S    
C14   H26   S    
C105  C124  S    
C71   O3    S    
O46   P14   S    
C49   N18   A    
C108  C128  S    
C34   C118  A    
C4    C109  S    
C88   H133  S    
O19   P5    D    
C27   H50   S    
C15   H36   S    
C100  C104  S    
N12   N23   A    
C21   N14   T    
C126  H155  S    
O7    P15   S    
C127  H154  S    
Ba1   O5    S    
C12   H29   S    
Ba2   O9    S    
C28   C29   S    
C52   H90   S    
C3    H157  S    
C52   C111  S    
C111  H84   S    
C106  C126  S    
C85   P5    S    
C18   H37   S    
C31   H61   S    
C102  H72   S    
C95   H150  S    
C102  O25   S    
C2    C35   A    
C69   O48   S    
C29   H53   S    
O17   P7    S    
C20   H43   S    
C87   H132  S    
C1    H83   S    
C40   C45   A    
C10   H23   S    
C41   H85   S    
C65   P2    S    
C1    H119  S    
O47   P15   S    
C101  H46   S    
Ba3   O33   S    
C97   H2    S    
C97   C119  S    
C4    H7    S    
C34   C38   A    
C92   O44   S    
C10   C112  S    
C1    H88   S    
C35   C53   S    
Ba1   Ba2   S    
C103  H74   S    
C69   H123  S    
C56   C78   S    
C4    C5    S    
Ba2   O6    S    
C93   C98   S    
C37   C42   A    
C128  H160  S    
O15   P5    S    
C15   H34   S    
O5    P13   S    
C105  H80   S    
C39   C44   A    
C94   O46   S    
C71   H130  S    
C82   H114  S    
C22   N15   T    
C121  N13   T    
C57   H102  S    
C8    H19   S    
C124  H149  S    
C104  H75   S    
C67   C76   A    
C61   P12   S    
Ba3   O13   S    
C21   C87   S    
C28   H56   S    
C93   O47   S    
C33   H64   S    
C74   C113  A    
C37   C55   S    
C9    H16   S    
C35   C39   A    
C72   H126  S    
Ba4   O11   S    
C117  N9    T    
C107  C116  A    
C100  H70   S    
N2    N8    A    
C13   H94   S    
Ba3   O8    S    
C96   P8    S    
C29   H55   S    
O30   P7    S    
C47   C78   S    
C28   C92   S    
C72   H131  S    
C33   H65   S    
C116  H113  S    
Ba1   O14   S    
C123  H142  S    
C110  O28   S    
C104  H79   S    
C114  H111  S    
C102  C106  S    
O35   P15   D    
Ba1   P1    S    
C26   H52   S    
Ba2   O37   S    
C50   C81   S    
C32   C94   S    
C72   O4    S    
C2    C85   A    
C42   C46   A    
C102  H57   S    
C19   C90   S    
C76   H108  S    
C9    H17   S    
C43   P1    S    
C91   H136  S    
C74   P6    S    
C128  H3    S    
Ba2   O12   S    
C125  H147  S    
C38   C43   A    
C74   C118  A    
C7    H10   S    
C77   C81   D    
C47   N1    A    
C5    H4    S    
C43   C113  A    
C85   C114  A    
C12   C14   S    
C64   P14   S    
Ba4   O8    S    
C124  H151  S    
C52   H121  S    
C70   H124  S    
C65   C82   S    
O44   P12   S    
C16   H33   S    
