data_mof_unit_16823.cif
_audit_creation_date              2012-12-11T14:13:06-0500
_audit_creation_method            fapswitch 2.2
_symmetry_space_group_name_H-M    P1
_symmetry_Int_Tables_number       1
_space_group_crystal_system       triclinic
_cell_length_a                    11.587276
_cell_length_b                    18.591044
_cell_length_c                    9.962488
_cell_angle_alpha                 90.523689
_cell_angle_beta                  110.763499
_cell_angle_gamma                 89.504849
_cell_volume                      2006.61097347

loop_
_atom_site_label
_atom_site_type_symbol
_atom_type_description
_atom_site_fract_x
_atom_site_fract_y
_atom_site_fract_z
_atom_type_partial_charge
C1    C     C_R   0.073013 0.646352 0.139275 0.591953
C2    C     C_R   0.931542 0.350853 0.861962 0.682495
C3    C     C_R   0.926799 0.145416 0.860104 0.598631
C4    C     C_R   0.074890 0.854607 0.141036 0.570661
C5    C     C_R   0.373043 0.443774 0.430564 -0.016779
C6    C     C_R   0.561412 0.526375 0.404339 -0.030385
C7    C     C_R   0.601833 0.961047 0.510913 -0.023140
C8    C     C_R   0.387942 0.044377 0.470846 0.008027
C9    C     C_2   0.409673 0.921277 0.909908 0.021745
C10   C     C_2   0.630736 0.061588 0.017874 -0.028717
C11   C     C_2   0.591933 0.426301 0.075455 -0.041930
C12   C     C_2   0.362132 0.561821 0.009933 -0.009024
C13   C     C_2   0.523317 0.948410 0.961009 0.350913
C14   C     C_2   0.542068 0.022291 0.924696 0.316882
C15   C     C_2   0.477997 0.452984 0.014032 0.316824
C16   C     C_2   0.461070 0.530410 0.996656 0.410116
C17   C     C_2   0.020995 0.926404 0.116459 0.261288
C18   C     C_2   0.996754 0.077700 0.890422 0.258014
C19   C     C_2   0.997857 0.417233 0.894401 0.267794
C20   C     C_2   0.006471 0.579085 0.109321 0.286624
C21   C     C_2   0.072170 0.974250 0.053935 0.360157
C22   C     C_2   0.020757 0.046232 0.020744 0.400901
C23   C     C_2   0.957811 0.467333 0.967544 0.354475
C24   C     C_2   0.009346 0.538820 0.996208 0.314013
C25   C     C_R   0.435179 0.638691 0.371745 0.527251
C26   C     C_R   0.527859 0.350738 0.555280 0.609893
C27   C     C_R   0.529326 0.147335 0.554726 0.615703
C28   C     C_R   0.468733 0.854021 0.442453 0.633341
C29   C     C_R   0.350338 0.639413 0.014010 0.556658
C30   C     C_R   0.622495 0.354748 0.037654 0.592738
C31   C     C_R   0.646842 0.137350 0.993049 0.561927
C32   C     C_R   0.376991 0.854452 0.962343 0.620917
C33   C     C_R   0.495547 0.418628 0.481871 -0.001941
C34   C     C_R   0.449031 0.561305 0.399645 -0.041086
C35   C     C_R   0.492162 0.927158 0.508211 0.043521
C36   C     C_R   0.498671 0.077379 0.477178 -0.000453
C37   C     C_R   0.270343 0.398369 0.405440 0.414919
C38   C     C_R   0.657710 0.553831 0.361157 0.395965
C39   C     C_R   0.714726 0.922788 0.546273 0.413069
C40   C     C_R   0.277406 0.084767 0.435998 0.440924
C41   C     C_R   0.160689 0.426702 0.411065 -0.127579
C42   C     C_R   0.780645 0.535847 0.438640 -0.108169
C43   C     C_R   0.815410 0.953232 0.523124 -0.095725
C44   C     C_R   0.172974 0.055028 0.450601 -0.023107
C45   C     C_R   0.157018 0.498048 0.452664 -0.093376
C46   C     C_R   0.807850 0.494692 0.561871 -0.089912
C47   C     C_R   0.804741 0.020958 0.461700 -0.051651
C48   C     C_R   0.177697 0.985988 0.503888 -0.137158
C49   C     C_R   0.255884 0.544088 0.468196 0.268556
C50   C     C_R   0.711226 0.462996 0.592330 0.273378
C51   C     C_R   0.696407 0.061276 0.432395 0.262684
C52   C     C_R   0.285113 0.943591 0.534641 0.264665
C53   C     C_R   0.357041 0.518864 0.429428 -0.094525
C54   C     C_R   0.590892 0.466257 0.489129 -0.074265
C55   C     C_R   0.597957 0.033980 0.471505 -0.084243
C56   C     C_R   0.388476 0.970578 0.504817 0.011127
Cr1   Cr    Cr6+3 0.187610 0.750000 0.979860 1.132848
Cr2   Cr    Cr6+3 0.812390 0.250000 0.020140 1.149546
Cr3   Cr    Cr6+3 0.245810 0.750000 0.341640 1.115331
Cr4   Cr    Cr6+3 0.754190 0.250000 0.658360 1.112445
Cr5   Cr    Cr6+3 0.485760 0.750000 0.219910 1.206457
Cr6   Cr    Cr6+3 0.514240 0.250000 0.780090 1.203536
H1    H     H_    0.082697 0.391918 0.396673 0.163770
H2    H     H_    0.854305 0.558945 0.410600 0.197804
H3    H     H_    0.900834 0.923176 0.548674 0.139021
H4    H     H_    0.089125 0.086616 0.425233 0.198320
H5    H     H_    0.079609 0.516753 0.480566 0.181472
H6    H     H_    0.902148 0.489909 0.634795 0.206050
H7    H     H_    0.880845 0.042157 0.435529 0.178620
H8    H     H_    0.097705 0.965736 0.523125 0.114522
H9    H     H_    0.694264 0.037104 0.115091 0.175699
H10   H     H_    0.334606 0.952799 0.836735 0.158725
H11   H     H_    0.294986 0.530511 0.036072 0.043434
H12   H     H_    0.668173 0.461827 0.131432 0.165192
O1    O     O_R   0.267710 0.668200 0.902110 -0.436181
O2    O     O_R   0.732290 0.331800 0.097890 -0.487846
O3    O     O_R   0.732290 0.168200 0.097890 -0.457371
O4    O     O_R   0.267710 0.831800 0.902110 -0.494233
O5    O     O_R   0.099480 0.674460 0.038850 -0.478413
O6    O     O_R   0.900520 0.325540 0.961150 -0.470379
O7    O     O_R   0.900520 0.174460 0.961150 -0.472443
O8    O     O_R   0.099480 0.825540 0.038850 -0.461963
O9    O     O_R   0.116720 0.669210 0.267660 -0.468167
O10   O     O_R   0.883280 0.330790 0.732340 -0.471986
O11   O     O_R   0.883280 0.169210 0.732340 -0.475167
O12   O     O_R   0.116720 0.830790 0.267660 -0.520142
O13   O     O_R   0.366710 0.675440 0.427590 -0.461488
O14   O     O_R   0.633290 0.324560 0.572410 -0.490969
O15   O     O_R   0.633290 0.175440 0.572410 -0.496582
O16   O     O_R   0.366710 0.824560 0.427590 -0.445679
O17   O     O_R   0.534870 0.669390 0.371760 -0.423434
O18   O     O_R   0.465130 0.330610 0.628240 -0.445622
O19   O     O_R   0.465130 0.169390 0.628240 -0.405679
O20   O     O_R   0.534870 0.830610 0.371760 -0.452583
O21   O     O_R   0.453080 0.674480 0.075160 -0.396658
O22   O     O_R   0.546920 0.325520 0.924840 -0.434145
O23   O     O_R   0.546920 0.174480 0.924840 -0.440410
O24   O     O_R   0.453080 0.825520 0.075160 -0.433370
O25   O     O_3   0.306390 0.750000 0.180470 -0.374492
O26   O     O_3   0.693610 0.250000 0.819530 -0.337040
F1    F     F_    0.276933 0.326968 0.378884 -0.561790
F2    F     F_    0.635934 0.596345 0.245412 -0.562562
F3    F     F_    0.728619 0.856582 0.606786 -0.593115
F4    F     F_    0.269659 0.152670 0.384105 -0.557033
O27   O     O_3   0.262746 0.603541 0.553687 -0.605670
H13   H     H_    0.349847 0.607458 0.619684 0.363593
O28   O     O_3   0.731478 0.440649 0.729669 -0.628734
H14   H     H_    0.653107 0.443721 0.748605 0.347554
O29   O     O_3   0.687607 0.124505 0.357799 -0.651264
H15   H     H_    0.599284 0.137797 0.312528 0.334474
O30   O     O_3   0.294075 0.879132 0.605680 -0.670249
H16   H     H_    0.213427 0.867839 0.614132 0.329393
F5    F     F_    0.461726 0.051974 0.802543 -0.654408
F6    F     F_    0.618722 0.911447 0.057038 -0.624814
F7    F     F_    0.547502 0.569576 0.966027 -0.553671
F8    F     F_    0.379231 0.409170 0.953409 -0.618488
F9    F     F_    0.990608 0.079161 0.126772 -0.608532
F10   F     F_    0.176587 0.957601 0.026626 -0.686686
F11   F     F_    0.057910 0.565074 0.900388 -0.649529
F12   F     F_    0.855805 0.454281 0.001802 -0.627203
O31   O     O_3   0.023388 0.046217 0.777917 -0.719950
H17   H     H_    0.046075 0.995059 0.797744 0.347118
O32   O     O_3   0.922474 0.945299 0.157337 -0.679994
H18   H     H_    0.899234 0.902488 0.200571 0.349113
O33   O     O_3   0.951810 0.558010 0.205457 -0.679423
H19   H     H_    0.955737 0.505163 0.214536 0.337745
O34   O     O_3   0.093059 0.426415 0.843784 -0.663807
H20   H     H_    0.157737 0.454158 0.916581 0.372001

loop_
_geom_bond_atom_site_label_1
_geom_bond_atom_site_label_2
_ccdc_geom_bond_type
C22   F9    S    
C44   C48   A    
Cr6   O22   S    
C12   C29   S    
C3    O11   A    
Cr3   O25   S    
Cr1   O5    S    
C44   H4    S    
O30   H16   S    
C9    H10   S    
C7    C55   A    
C8    C56   A    
Cr4   O14   S    
Cr2   O2    S    
O32   H18   S    
Cr4   O15   S    
C50   C54   A    
C15   F8    S    
C5    C53   A    
Cr3   O9    S    
C38   C42   A    
C5    C37   A    
C42   C46   A    
C4    O12   A    
C26   O18   A    
C15   C16   S    
Cr1   O25   S    
C25   O13   A    
C3    C18   S    
C28   O20   A    
C8    C36   A    
C9    C13   D    
C47   H7    S    
C30   O22   A    
Cr2   O3    S    
C11   C15   D    
C10   C31   S    
C17   O32   S    
C20   C24   D    
C11   C30   S    
C24   F11   S    
C5    C33   A    
C3    O7    A    
C23   C24   S    
C6    C38   A    
C13   C14   S    
C40   C44   A    
C13   F6    S    
C9    C32   S    
Cr2   O6    S    
C25   C34   S    
C10   H9    S    
C35   C56   A    
C51   O29   S    
C12   H11   S    
Cr5   O25   S    
C6    C54   A    
C31   O3    A    
C39   C43   A    
C25   O17   A    
C12   C16   D    
Cr2   O26   S    
C28   C35   S    
C10   C14   D    
Cr2   O7    S    
C23   F12   S    
C29   O21   A    
Cr5   O20   S    
C47   C51   A    
C52   O30   S    
C17   C21   D    
C6    C34   A    
Cr6   O18   S    
Cr3   O16   S    
C19   C23   D    
C46   H6    S    
C21   F10   S    
C40   F4    S    
Cr6   O23   S    
C30   O2    A    
C26   C33   S    
C45   C49   A    
C43   H3    S    
C2    O10   A    
O31   H17   S    
Cr6   O26   S    
C4    C17   S    
C50   O28   S    
C1    O5    A    
C27   O19   A    
C41   H1    S    
O28   H14   S    
O34   H20   S    
C16   F7    S    
C42   H2    S    
C33   C54   A    
C1    C20   S    
C7    C39   A    
C2    C19   S    
C18   C22   D    
C7    C35   A    
Cr1   O4    S    
C48   H8    S    
Cr4   O26   S    
C11   H12   S    
C49   O27   S    
Cr4   O11   S    
Cr5   O21   S    
C39   F3    S    
C45   H5    S    
C29   O1    A    
C27   C36   S    
C1    O9    A    
C14   F5    S    
O27   H13   S    
C46   C50   A    
Cr1   O1    S    
Cr3   O12   S    
C20   O33   S    
C38   F2    S    
C36   C55   A    
O29   H15   S    
C37   F1    S    
Cr4   O10   S    
Cr5   O24   S    
O33   H19   S    
C49   C53   A    
C19   O34   S    
C32   O24   A    
C27   O15   A    
C51   C55   A    
C31   O23   A    
C37   C41   A    
Cr3   O13   S    
C2    O6    A    
C18   O31   S    
C32   O4    A    
C52   C56   A    
C48   C52   A    
C4    O8    A    
C34   C53   A    
C26   O14   A    
Cr6   O19   S    
C41   C45   A    
Cr1   O8    S    
C28   O16   A    
C8    C40   A    
C21   C22   S    
C43   C47   A    
Cr5   O17   S    
