data_mof_unit_34175.cif
_audit_creation_date              2012-12-11T15:14:57-0500
_audit_creation_method            fapswitch 2.2
_symmetry_space_group_name_H-M    P1
_symmetry_Int_Tables_number       1
_space_group_crystal_system       triclinic
_cell_length_a                    10.994977
_cell_length_b                    11.081674
_cell_length_c                    18.440088
_cell_angle_alpha                 89.828705
_cell_angle_beta                  90.213354
_cell_angle_gamma                 119.921704
_cell_volume                      1947.29628902

loop_
_atom_site_label
_atom_site_type_symbol
_atom_type_description
_atom_site_fract_x
_atom_site_fract_y
_atom_site_fract_z
_atom_type_partial_charge
C1    C     C_R   0.517787 0.457664 0.645326 0.534801
C2    C     C_R   0.460469 0.518317 0.353916 0.532265
C3    C     C_R   0.480731 0.939769 0.145434 0.548470
C4    C     C_R   0.065393 0.544330 0.355742 0.539291
C5    C     C_3   0.418039 0.030098 0.465460 -0.114673
C6    C     C_3   0.615088 0.611454 0.022016 -0.110214
C7    C     C_3   0.051269 0.420730 0.482297 -0.122312
C8    C     C_3   0.413156 0.038011 0.025737 -0.123711
C9    C     C_3   0.623938 0.594956 0.475354 -0.117296
C10   C     C_3   0.047750 0.418410 0.018519 -0.122483
C11   C     C_3   0.119564 0.541407 0.964218 -0.151137
C12   C     C_R   0.937763 0.480956 0.855077 0.542631
C13   C     C_3   0.533455 0.618144 0.531132 -0.134730
C14   C     C_3   0.377764 0.925219 0.967474 -0.140958
C15   C     C_3   0.119819 0.541057 0.538025 -0.150352
C16   C     C_3   0.509346 0.609801 0.966126 -0.143038
C17   C     C_3   0.388962 0.951112 0.538274 -0.115580
C18   C     C_3   0.566264 0.137443 0.492496 -0.155520
C19   C     C_3   0.607097 0.483325 0.984768 -0.133473
C20   C     C_3   0.905897 0.373066 0.515109 -0.133142
C21   C     C_3   0.553284 0.133933 0.987040 -0.121881
C22   C     C_3   0.593581 0.460435 0.515426 -0.127039
C23   C     C_R   0.573904 0.116160 0.636622 0.548667
C24   C     C_3   0.904556 0.372935 0.983438 -0.134831
C25   C     C_3   0.093531 0.634492 0.016799 -0.123755
C26   C     C_3   0.401565 0.530320 0.483816 -0.123726
C27   C     C_3   0.453491 0.865203 0.013170 -0.119554
C28   C     C_3   0.096730 0.637008 0.485527 -0.123056
C29   C     C_3   0.386940 0.509606 0.015547 -0.126830
C30   C     C_3   0.448150 0.862092 0.507022 -0.154231
C31   C     C_3   0.536811 0.057080 0.563891 0.062114
C32   C     C_3   0.500936 0.482416 0.930612 0.056913
C33   C     C_3   0.975658 0.493973 0.569088 0.064348
C34   C     C_R   0.518103 0.456747 0.854941 0.539731
C35   C     C_3   0.516884 0.019638 0.930472 0.057818
C36   C     C_3   0.502062 0.483971 0.569443 0.057372
C37   C     C_3   0.977134 0.495825 0.930914 0.062636
C38   C     C_3   0.021040 0.512063 0.069756 0.062420
C39   C     C_3   0.492174 0.505863 0.429460 0.057013
C40   C     C_3   0.490907 0.979786 0.069768 0.057652
C41   C     C_3   0.026796 0.516462 0.431233 0.064468
C42   C     C_3   0.492250 0.509360 0.070043 0.056889
C43   C     C_3   0.478716 0.942504 0.435769 0.062090
C44   C     C_3   0.596295 0.968639 0.533589 -0.110436
C45   C     C_R   0.936235 0.480177 0.644646 0.539560
C46   C     C_3   0.378381 0.381387 0.978967 -0.099053
C47   C     C_3   0.951526 0.589511 0.517600 -0.109880
C48   C     C_3   0.593612 0.960744 0.974815 -0.114228
C49   C     C_3   0.370766 0.395814 0.523266 -0.105923
C50   C     C_3   0.950566 0.589180 0.982505 -0.111896
C51   C     C_3   0.878726 0.466263 0.036375 -0.150425
C52   C     C_3   0.461566 0.372285 0.468270 -0.125995
C53   C     C_3   0.629417 0.074111 0.032284 -0.133627
C54   C     C_3   0.882835 0.469213 0.462404 -0.148472
C55   C     C_3   0.484486 0.382705 0.034074 -0.136791
C56   C     C_R   0.542605 0.061068 0.854860 0.548504
C57   C     C_3   0.626041 0.048992 0.461855 -0.112592
C58   C     C_R   0.459526 0.519630 0.145516 0.537144
C59   C     C_R   0.457478 0.883139 0.363308 0.551810
C60   C     C_R   0.062124 0.542378 0.145093 0.542978
Cr1   Cr    Cr6+3 0.769930 0.543130 0.750000 1.007410
Cr2   Cr    Cr6+3 0.773200 0.230070 0.750000 1.007216
Cr3   Cr    Cr6+3 0.456870 0.226800 0.750000 1.016312
Cr4   Cr    Cr6+3 0.543130 0.769930 0.250000 1.012543
Cr5   Cr    Cr6+3 0.230070 0.773200 0.250000 1.008556
Cr6   Cr    Cr6+3 0.226800 0.456870 0.250000 1.007210
H1    H     H_    0.673794 0.947484 0.560933 0.126637
H2    H     H_    0.791640 0.443162 0.426682 0.105773
H3    H     H_    0.479998 0.298123 0.067862 0.107300
H4    H     H_    0.724854 0.090609 0.430347 0.134285
H5    H     H_    0.619417 0.248695 0.482082 0.098630
H6    H     H_    0.690353 0.469651 0.960940 0.122405
H7    H     H_    0.834379 0.265094 0.532803 0.122656
H8    H     H_    0.597617 0.242972 0.970552 0.111055
H9    H     H_    0.671109 0.435644 0.538597 0.112473
H10   H     H_    0.835070 0.267432 0.962070 0.136498
H11   H     H_    0.164491 0.740947 0.036691 0.136965
H12   H     H_    0.280118 0.289088 0.960018 0.125568
H13   H     H_    0.324979 0.557219 0.461574 0.112219
H14   H     H_    0.407773 0.756095 0.030027 0.112589
H15   H     H_    0.170406 0.745339 0.468964 0.125152
H16   H     H_    0.304971 0.526341 0.038324 0.121586
H17   H     H_    0.391247 0.750397 0.515787 0.097972
H18   H     H_    0.339695 0.047436 0.436301 0.118284
H19   H     H_    0.712697 0.703578 0.041689 0.119730
H20   H     H_    0.089126 0.349215 0.465260 0.123510
H21   H     H_    0.336885 0.065634 0.048323 0.112464
H22   H     H_    0.727249 0.674381 0.453475 0.115228
H23   H     H_    0.912612 0.660749 0.533574 0.127224
H24   H     H_    0.080743 0.342722 0.035373 0.122352
H25   H     H_    0.215181 0.573980 0.931198 0.105733
H26   H     H_    0.563711 0.712460 0.563516 0.109866
H27   H     H_    0.278982 0.867416 0.936000 0.114044
H28   H     H_    0.211138 0.567051 0.573634 0.105187
H29   H     H_    0.514759 0.694842 0.932291 0.105353
H30   H     H_    0.292085 0.911760 0.571194 0.126978
H31   H     H_    0.668641 0.930917 0.952723 0.118862
H32   H     H_    0.266817 0.316393 0.544521 0.121492
H33   H     H_    0.915824 0.664020 0.966603 0.126108
H34   H     H_    0.783552 0.433603 0.069771 0.107044
H35   H     H_    0.432748 0.277437 0.436762 0.113112
H36   H     H_    0.729205 0.132776 0.062900 0.118047
O1    O     O_R   0.913270 0.574260 0.668550 -0.522156
O2    O     O_R   0.574260 0.913270 0.331450 -0.517704
O3    O     O_R   0.086730 0.660990 0.168550 -0.520458
O4    O     O_R   0.339010 0.425740 0.331450 -0.519529
O5    O     O_R   0.640160 0.530400 0.673300 -0.508892
O6    O     O_R   0.890240 0.359840 0.826700 -0.508238
O7    O     O_R   0.469600 0.109760 0.673300 -0.501497
O8    O     O_R   0.640160 0.530400 0.826700 -0.507353
O9    O     O_R   0.890240 0.359840 0.673300 -0.521482
O10   O     O_R   0.469600 0.109760 0.826700 -0.499044
O11   O     O_R   0.530400 0.640160 0.173300 -0.507167
O12   O     O_R   0.660990 0.086730 0.831450 -0.522380
O13   O     O_R   0.359840 0.890240 0.326700 -0.510736
O14   O     O_R   0.109760 0.469600 0.173300 -0.509463
O15   O     O_R   0.530400 0.640160 0.326700 -0.517938
O16   O     O_R   0.359840 0.890240 0.173300 -0.507405
O17   O     O_R   0.109760 0.469600 0.326700 -0.511036
O18   O     O_3   0.666667 0.333333 0.750000 -0.280350
O19   O     O_3   0.333333 0.666667 0.250000 -0.279891
O20   O     O_R   0.425740 0.339010 0.668550 -0.524272
O21   O     O_R   0.913270 0.574260 0.831450 -0.523061
O22   O     O_R   0.660990 0.086730 0.668550 -0.524807
O23   O     O_R   0.425740 0.339010 0.831450 -0.520705
O24   O     O_R   0.574260 0.913270 0.168550 -0.512584
O25   O     O_R   0.086730 0.660990 0.331450 -0.526869
O26   O     O_R   0.339010 0.425740 0.168550 -0.519355

loop_
_geom_bond_atom_site_label_1
_geom_bond_atom_site_label_2
_ccdc_geom_bond_type
C27   C48   S    
C21   C53   S    
C28   C47   S    
C58   O26   A    
C13   C26   S    
C37   C50   S    
C29   C42   S    
C33   C45   S    
C60   O3    A    
C42   C58   S    
C15   H28   S    
Cr2   O22   S    
C3    O24   A    
C48   H31   S    
C50   H33   S    
C6    H19   S    
Cr6   O14   S    
C25   H11   S    
C59   O2    A    
Cr5   O25   S    
C22   C52   S    
Cr1   O1    S    
Cr2   O12   S    
C9    H22   S    
C42   C55   S    
C9    C22   S    
C7    H20   S    
Cr2   O6    S    
C4    C41   S    
C35   C48   S    
Cr4   O19   S    
C28   C41   S    
C9    C39   S    
C30   H17   S    
C11   C37   S    
C9    C13   S    
C1    O20   A    
C45   O1    A    
C49   H32   S    
C25   C50   S    
C2    C39   S    
Cr2   O9    S    
C46   C55   S    
C58   O11   A    
Cr5   O16   S    
C4    O17   A    
Cr5   O19   S    
C14   C27   S    
C53   H36   S    
C14   H27   S    
Cr2   O18   S    
C43   C59   S    
C24   C51   S    
C7    C15   S    
C39   C52   S    
C5    C43   S    
Cr1   O18   S    
C17   C30   S    
Cr5   O13   S    
C30   C44   S    
C19   H6    S    
C22   H9    S    
Cr6   O4    S    
Cr1   O8    S    
Cr5   O3    S    
C2    O15   A    
C50   C51   S    
C48   C53   S    
C23   O7    A    
C52   H35   S    
C31   C44   S    
C13   C36   S    
C20   C54   S    
C27   H14   S    
C26   C49   S    
C14   C35   S    
C12   O6    A    
C5    H18   S    
C24   H10   S    
C5    C18   S    
C10   C24   S    
C16   C29   S    
C21   H8    S    
C2    O4    A    
Cr4   O15   S    
C32   C34   S    
Cr3   O7    S    
C6    C19   S    
C3    O16   A    
C25   C38   S    
C26   C39   S    
C18   C57   S    
C44   C57   S    
C49   C52   S    
C19   C32   S    
C24   C37   S    
Cr6   O19   S    
C17   H30   S    
Cr3   O23   S    
C5    C17   S    
C7    C20   S    
C55   H3    S    
C1    O5    A    
C47   C54   S    
C38   C60   S    
C20   C33   S    
C56   O12   A    
C3    C40   S    
C47   H23   S    
Cr4   O24   S    
Cr6   O17   S    
C13   H26   S    
C6    C42   S    
C18   H5    S    
C33   C47   S    
C30   C43   S    
C60   O14   A    
Cr3   O20   S    
C46   H12   S    
C19   C55   S    
C51   H34   S    
Cr4   O2    S    
C16   H29   S    
C8    C14   S    
Cr4   O11   S    
C4    O25   A    
C35   C56   S    
Cr3   O10   S    
C32   C46   S    
C15   C33   S    
C8    C21   S    
C45   O9    A    
C23   O22   A    
C38   C51   S    
C16   C32   S    
C22   C36   S    
C26   H13   S    
Cr1   O21   S    
C29   C46   S    
C10   C38   S    
C8    H21   S    
C21   C35   S    
C28   H15   S    
C29   H16   S    
C27   C40   S    
Cr3   O18   S    
C15   C28   S    
C12   O21   A    
C34   O23   A    
C17   C31   S    
Cr6   O26   S    
C20   H7    S    
C7    C41   S    
Cr1   O5    S    
C41   C54   S    
C10   C11   S    
C43   C57   S    
C57   H4    S    
C6    C16   S    
C11   H25   S    
C54   H2    S    
C10   H24   S    
C59   O13   A    
C40   C53   S    
C12   C37   S    
C11   C25   S    
C44   H1    S    
C18   C31   S    
C8    C40   S    
C34   O8    A    
C56   O10   A    
C36   C49   S    
C1    C36   S    
C23   C31   S    
