data_mof_unit_40090.cif
_audit_creation_date              2012-10-26T21:10:25-0400
_audit_creation_method            fapswitch 2.2
_symmetry_space_group_name_H-M    P1
_symmetry_Int_Tables_number       1
_space_group_crystal_system       triclinic
_cell_length_a                    10.865745
_cell_length_b                    10.8785
_cell_length_c                    9.816378
_cell_angle_alpha                 90.430678
_cell_angle_beta                  91.767081
_cell_angle_gamma                 89.462339
_cell_volume                      1159.69221153

loop_
_atom_site_label
_atom_site_type_symbol
_atom_type_description
_atom_site_fract_x
_atom_site_fract_y
_atom_site_fract_z
_atom_type_partial_charge
C1    C     C_R   0.498888 0.265763 0.499255 0.578424
C2    C     C_R   0.813546 0.616562 0.945502 0.103983
C3    C     C_R   0.815199 0.514793 0.032351 -0.112992
C4    C     C_R   0.262491 0.501024 0.498290 0.574241
C5    C     C_R   0.858350 0.401036 0.986797 -0.094221
C6    C     C_R   0.896800 0.386996 0.853117 -0.051138
C7    C     C_R   0.894158 0.487661 0.764206 0.031013
C8    C     C_2   0.529768 0.933079 0.394798 -0.122981
C9    C     C_2   0.533089 0.865142 0.508448 0.059399
C10   C     C_2   0.542022 0.066788 0.398757 -0.096517
C11   C     C_2   0.490816 0.133695 0.497335 -0.034207
C12   C     C_R   0.230216 0.774333 0.079102 -0.095020
C13   C     C_2   0.505615 0.405940 0.930401 0.435102
C14   C     C_2   0.456901 0.414664 0.069623 0.410894
C15   C     C_R   0.507706 0.734097 0.501307 0.519409
C16   C     C_R   0.737302 0.508560 0.502858 0.537567
C17   C     C_R   0.242811 0.815225 0.214127 -0.093525
C18   C     C_R   0.189590 0.749304 0.318619 -0.089141
C19   C     C_R   0.122903 0.642085 0.288127 0.066874
C20   C     C_R   0.110289 0.601875 0.152326 -0.013442
C21   C     C_R   0.163867 0.667718 0.048231 -0.096451
C22   C     C_R   0.931981 0.586882 0.406092 0.062004
C23   C     C_R   0.871732 0.525183 0.510832 -0.007158
C24   C     C_R   0.941644 0.479093 0.623671 -0.040333
C25   C     C_R   0.067669 0.457564 0.609227 0.047556
C26   C     C_R   0.127779 0.507102 0.497303 0.024963
C27   C     C_R   0.060546 0.575378 0.397448 -0.024672
C28   C     C_R   0.853950 0.602852 0.812546 -0.023769
Cu1   Cu    Cu3+1 0.500020 0.500020 0.638630 1.050964
Cu2   Cu    Cu3+1 0.499980 0.499980 0.361370 1.035848
H1    H     H_    0.271415 0.825524 0.998382 0.125498
H2    H     H_    0.199074 0.782276 0.422770 0.091714
H3    H     H_    0.059617 0.519258 0.127531 0.147372
H4    H     H_    0.153397 0.636355 0.943669 0.105821
H5    H     H_    0.854271 0.682282 0.746547 0.115332
H6    H     H_    0.502571 0.903687 0.707258 0.248878
H7    H     H_    0.650736 0.869979 0.672796 0.245727
H8    H     H_    0.672652 0.122272 0.007835 0.361667
H9    H     H_    0.363367 0.621015 0.836713 0.264256
H10   H     H_    0.502207 0.677042 0.883031 0.244513
H11   H     H_    0.206623 0.204444 0.986703 0.354467
H12   H     H_    0.783624 0.523320 0.135064 0.172005
H13   H     H_    0.780176 0.694731 0.355179 0.237691
H14   H     H_    0.912269 0.756154 0.322404 0.223245
H15   H     H_    0.103002 0.298458 0.712255 0.238927
H16   H     H_    0.132383 0.430528 0.804903 0.255522
H17   H     H_    0.833575 0.763634 0.069848 0.255854
H18   H     H_    0.685918 0.725851 0.031974 0.224632
H19   H     H_    0.860624 0.323150 0.054758 0.160342
H20   H     H_    0.925350 0.296846 0.818741 0.133491
H21   H     H_    0.516488 0.890280 0.295190 0.133382
H22   H     H_    0.588126 0.110739 0.315694 0.188265
H23   H     H_    0.439198 0.091635 0.577157 0.163097
H24   H     H_    0.292782 0.898644 0.237611 0.136323
H25   H     H_    0.565415 0.554600 0.115813 0.178860
N1    N     N_2   0.498640 0.498660 0.846910 -0.205770
N2    N     N_2   0.498610 0.498630 0.153040 -0.360766
N3    N     N_3   0.572022 0.917511 0.637703 -0.600781
N4    N     N_3   0.442161 0.604222 0.897423 -0.597728
N5    N     N_3   0.866308 0.672153 0.317526 -0.652270
N6    N     N_3   0.137064 0.387792 0.709488 -0.564052
N7    N     N_3   0.773152 0.734829 0.991482 -0.642947
O1    O     O_R   0.500020 0.321960 0.617040 -0.409382
O2    O     O_2   0.673433 0.275457 0.787058 -0.294248
O3    O     O_3   0.641083 0.204478 0.034307 -0.562887
O4    O     O_2   0.398995 0.192894 0.168013 -0.271703
O5    O     O_2   0.246556 0.356446 0.201407 -0.301516
O6    O     O_3   0.267606 0.266556 0.960848 -0.528932
O7    O     O_R   0.499980 0.321920 0.382900 -0.450512
O8    O     O_R   0.319660 0.500030 0.617070 -0.486638
O9    O     O_R   0.319620 0.499990 0.382930 -0.442076
O10   O     O_R   0.500020 0.678080 0.617100 -0.531049
O11   O     O_R   0.499980 0.678040 0.382960 -0.525800
O12   O     O_R   0.680380 0.500010 0.617070 -0.474785
O13   O     O_R   0.680340 0.499970 0.382930 -0.515127
O14   O     O_2   0.479895 0.174237 0.838274 -0.249085
S1    S     S_3+6 0.576024 0.262567 0.890734 0.055021
S2    S     S_3+6 0.341001 0.306518 0.107589 0.063478

loop_
_geom_bond_atom_site_label_1
_geom_bond_atom_site_label_2
_ccdc_geom_bond_type
Cu1   O1    S    
C3    H12   S    
C16   O13   A    
O2    S1    D    
C19   C20   A    
C1    C11   S    
C10   H22   S    
H17   N7    S    
C4    O8    A    
Cu2   O9    S    
C15   O10   A    
C26   C27   A    
C16   O12   A    
C9    N3    S    
H6    N3    S    
C22   N5    S    
C5    C6    A    
C7    C24   S    
Cu2   N2    S    
C18   C19   A    
C28   H5    S    
C8    C9    D    
C12   C17   A    
C23   C24   A    
C19   C27   S    
H7    N3    S    
C11   H23   S    
Cu1   O10   S    
H10   N4    S    
C13   C14   S    
C5    H19   S    
O5    S2    D    
C1    O1    A    
H11   O6    S    
O6    S2    S    
O4    S2    D    
C13   S1    S    
O3    S1    S    
H16   N6    S    
O14   S1    D    
Cu2   O11   S    
C21   H4    S    
C25   C26   A    
C12   C21   A    
C6    H20   S    
C7    C28   A    
Cu1   Cu2   S    
H18   N7    S    
H8    O3    S    
H9    N4    S    
C17   C18   A    
C25   N6    S    
C24   C25   A    
C8    H21   S    
H13   N5    S    
C20   H3    S    
C15   O11   A    
C16   C23   S    
C22   C27   A    
H25   N2    S    
C12   H1    S    
C18   H2    S    
Cu2   O7    S    
Cu1   O8    S    
C14   N2    D    
C3    C5    A    
C4    C26   S    
C6    C7    A    
Cu1   O12   S    
Cu1   N1    S    
N1    N4    S    
C13   N1    D    
C2    C3    A    
C9    C15   S    
Cu2   O13   S    
H14   N5    S    
H15   N6    S    
C14   S2    S    
C1    O7    A    
C10   C11   D    
C20   C21   A    
C8    C10   S    
C22   C23   A    
C2    C28   A    
C17   H24   S    
C4    O9    A    
C2    N7    S    
