data_mof_unit_7046.cif
_audit_creation_date              2013-03-05T16:09:07-0500
_audit_creation_method            fapswitch 2.2
_symmetry_space_group_name_H-M    P1
_symmetry_Int_Tables_number       1
_space_group_crystal_system       triclinic
_cell_length_a                    18.211061
_cell_length_b                    7.112705
_cell_length_c                    13.104822
_cell_angle_alpha                 89.996625
_cell_angle_beta                  71.487357
_cell_angle_gamma                 89.998289
_cell_volume                      1609.62859407

loop_
_atom_site_label
_atom_site_type_symbol
_atom_site_description
_atom_site_fract_x
_atom_site_fract_y
_atom_site_fract_z
_atom_type_partial_charge
O1    O     O_R   0.453880 0.506200 0.150010 -0.572085
O2    O     O_R   0.546120 0.006200 0.849990 -0.572018
O3    O     O_R   0.604080 0.177770 0.007280 -0.616237
O4    O     O_R   0.395920 0.677770 0.992720 -0.616250
C1    C     C_R   0.635983 0.344476 0.001489 1.041841
C2    C     C_R   0.364017 0.844480 0.998510 1.041880
O5    O     O_R   0.458010 0.176640 0.159130 -0.599751
O6    O     O_R   0.541990 0.676640 0.840870 -0.599878
O7    O     O_R   0.399010 0.004010 0.002930 -0.545509
O8    O     O_R   0.600990 0.504010 0.997070 -0.545495
C3    C     C_R   0.444137 0.345759 0.201542 1.133859
C4    C     C_R   0.555852 0.845774 0.798458 1.133922
O9    O     O_3   0.480810 0.338440 0.948570 -0.279794
O10   O     O_3   0.519190 0.838440 0.051430 -0.279756
V1    V     V_3+5 0.503560 0.064490 0.009540 1.278651
V2    V     V_3+5 0.496440 0.564490 0.990460 1.278606
C5    C     C_R   0.581905 0.971689 0.509071 0.041844
C6    C     C_R   0.418094 0.471686 0.490913 0.042056
H1    H     H_    0.669202 0.042031 0.303017 0.170601
H2    H     H_    0.330780 0.542327 0.696910 0.170634
C7    C     C_R   0.589401 0.860920 0.681385 -0.440055
C8    C     C_R   0.410598 0.360860 0.318617 -0.439819
C9    C     C_R   0.951980 0.821527 0.382212 -0.168886
C10   C     C_R   0.048030 0.321339 0.617799 -0.168819
C11   C     C_R   0.920036 0.818395 0.493514 -0.112556
C12   C     C_R   0.079979 0.318061 0.506500 -0.112550
C13   C     C_R   0.840514 0.841217 0.541792 -0.087123
C14   C     C_R   0.159498 0.340923 0.458216 -0.087183
C15   C     C_R   0.790115 0.861107 0.479380 0.142268
C16   C     C_R   0.209889 0.361007 0.520622 0.142340
C17   C     C_R   0.824489 0.886578 0.366614 0.099661
C18   C     C_R   0.175508 0.386620 0.633374 0.099680
C19   C     C_R   0.707374 0.869646 0.525882 -0.075004
C20   C     C_R   0.292630 0.369578 0.474122 -0.074931
C21   C     C_R   0.662830 0.941300 0.462669 0.084639
C22   C     C_R   0.337166 0.441339 0.537311 0.084655
C23   C     C_R   0.700130 0.982841 0.353496 -0.069778
C24   C     C_R   0.299857 0.483024 0.646459 -0.069925
C25   C     C_R   0.778229 0.946036 0.305262 -0.227271
C26   C     C_R   0.221757 0.446229 0.694702 -0.227274
C27   C     C_R   0.667623 0.811389 0.632926 0.252509
C28   C     C_R   0.332388 0.311247 0.367099 0.252282
C29   C     C_R   0.545294 0.937032 0.619978 0.206768
C30   C     C_R   0.454707 0.436990 0.380011 0.206796
C31   C     C_R   0.905213 0.859071 0.318295 -0.162912
C32   C     C_R   0.094787 0.359070 0.681702 -0.162962
H3    H     H_    0.013815 0.801487 0.345885 0.124602
H4    H     H_    0.986199 0.301237 0.654134 0.124606
H5    H     H_    0.820423 0.851692 0.628194 0.163460
H6    H     H_    0.179594 0.351250 0.371807 0.163422
H7    H     H_    0.957207 0.799883 0.542904 0.137514
H8    H     H_    0.042815 0.299381 0.457116 0.137503
H9    H     H_    0.802722 0.973438 0.219877 0.135060
H10   H     H_    0.197258 0.473747 0.780070 0.135084
C33   C     C_1   0.216292 0.858710 0.000356 -0.216505
C34   C     C_1   0.783708 0.358714 0.999644 -0.216446
C35   C     C_1   0.283599 0.852567 0.999267 -0.144785
C36   C     C_1   0.716401 0.352563 0.000732 -0.144750
O11   O     O_R   0.899030 0.205490 0.002790 -0.594581
O12   O     O_R   0.100970 0.705490 0.997210 -0.594589
O13   O     O_R   0.042000 0.536370 0.840840 -0.595570
O14   O     O_R   0.958000 0.036370 0.159160 -0.595562
C37   C     C_R   0.058119 0.368218 0.798544 0.921143
C38   C     C_R   0.941883 0.868212 0.201455 0.921122
O15   O     O_R   0.895930 0.535070 0.992690 -0.582377
O16   O     O_R   0.104070 0.035070 0.007310 -0.582389
O17   O     O_R   0.953870 0.707520 0.150040 -0.587048
O18   O     O_R   0.046130 0.207520 0.849960 -0.587041
C39   C     C_R   0.864175 0.366732 0.998714 0.972066
C40   C     C_R   0.135824 0.866729 0.001286 0.972048
O19   O     O_3   0.019200 0.374340 0.051340 -0.280566
O20   O     O_3   0.980800 0.874340 0.948660 -0.280554
V3    V     V_3+5 0.996440 0.648350 0.990470 1.192600
V4    V     V_3+5 0.003560 0.148350 0.009530 1.192585
N1    N     N_R   0.462479 0.964737 0.667891 0.209069
O21   O     O_R   0.414917 0.920656 0.615724 -0.438828
O22   O     O_R   0.433318 0.032266 0.764526 -0.447448
N2    N     N_R   0.537524 0.464652 0.332088 0.208971
O23   O     O_R   0.585084 0.420604 0.384267 -0.438990
O24   O     O_R   0.566687 0.532196 0.235447 -0.447433
N3    N     N_2   0.538895 0.054298 0.446485 -0.091774
H11   H     H_    0.493910 0.140534 0.487025 0.234483
C41   C     C_3   0.521381 0.936848 0.367209 -0.773673
H12   H     H_    0.462903 0.873737 0.401201 0.262765
H13   H     H_    0.565030 0.824397 0.339145 0.273937
H14   H     H_    0.522362 0.024027 0.296693 0.248600
N4    N     N_2   0.461084 0.554356 0.553495 -0.091749
H15   H     H_    0.506048 0.640611 0.512913 0.234480
C42   C     C_3   0.478713 0.436804 0.632649 -0.773538
H16   H     H_    0.536975 0.372804 0.598324 0.262705
H17   H     H_    0.434821 0.325053 0.661267 0.273903
H18   H     H_    0.478313 0.524110 0.702847 0.248574
N5    N     N_R   0.702797 0.682768 0.688406 0.221243
O25   O     O_R   0.706985 0.723151 0.783310 -0.438776
O26   O     O_R   0.730994 0.524028 0.643425 -0.400362
N6    N     N_R   0.297251 0.182395 0.311706 0.221285
O27   O     O_R   0.293064 0.222497 0.216767 -0.438802
O28   O     O_R   0.269083 0.023717 0.356810 -0.400365

loop_
_geom_bond_atom_site_label_1
_geom_bond_atom_site_label_2
_geom_bond_distance
_ccdc_geom_bond_type
C16   C18   1.421632 A    
N4    H15   1.026245 S    
N5    O25   1.302072 A    
C9    C31   1.396871 A    
C13   C15   1.417047 A    
O1    C3    1.309056 A    
O2    C4    1.309027 A    
C2    O7    1.311668 A    
C5    C29   1.415032 A    
N3    H11   1.026270 S    
C25   H9    1.082607 S    
O5    C3    1.315516 A    
C1    C36   1.462499 S    
C28   N6    1.439245 S    
C21   C23   1.406567 A    
C10   C12   1.388368 A    
C12   H8    1.082911 S    
N2    O24   1.299846 A    
O18   V4    2.030128 S    
O16   V4    1.991602 S    
C15   C19   1.436107 A    
O12   V3    1.975729 S    
O15   V3    1.991647 S    
O13   C37   1.311709 A    
O14   C38   1.311694 A    
H1    C23   1.081031 S    
C7    C29   1.412886 A    
C14   H6    1.076297 S    
C8    C30   1.412883 A    
C34   C36   1.222063 T    
C20   C28   1.420779 A    
N6    O28   1.301435 A    
O17   V3    2.030172 S    
C42   H17   1.104988 S    
C5    N3    1.428026 S    
O5    V1    2.033439 S    
N5    O26   1.301454 A    
C15   C17   1.421633 A    
C2    C35   1.462499 S    
N3    C41   1.445495 S    
C29   N1    1.451291 S    
C27   N5    1.439262 S    
C9    H3    1.083789 S    
C16   C20   1.436107 A    
C10   H4    1.083786 S    
C38   O17   1.309447 A    
C30   N2    1.451303 S    
O20   V4    2.194702 S    
O19   V3    2.194596 S    
N2    O23   1.300742 A    
O13   V3    2.033421 S    
C4    C7    1.464063 S    
O4    V2    1.991625 S    
N1    O21   1.300745 A    
C11   H7    1.082922 S    
C6    C30   1.415057 A    
H2    C24   1.081049 S    
C41   H12   1.110328 S    
O12   C40   1.320064 A    
O6    C4    1.315557 A    
N6    O27   1.302038 A    
C41   H14   1.108247 S    
O1    V2    2.028592 S    
C42   H18   1.108044 S    
O2    V1    2.028633 S    
N1    O22   1.299782 A    
O11   V4    1.975702 S    
O11   C39   1.320048 A    
C7    C27   1.407881 A    
O4    C2    1.311981 A    
C41   H13   1.105080 S    
C26   H10   1.082591 S    
C33   C35   1.222063 T    
O3    V1    1.991667 S    
C37   O18   1.309432 A    
C3    C8    1.464057 S    
C18   C32   1.417470 A    
O20   V3    1.750439 S    
O3    C1    1.311987 A    
O19   V4    1.750513 S    
C11   C13   1.393558 A    
O16   C40   1.321097 A    
C31   C38   1.464703 S    
C12   C14   1.393556 A    
C6    N4    1.427975 S    
C32   C37   1.464722 S    
C19   C27   1.420798 A    
C22   C24   1.406551 A    
O7    V1    1.980511 S    
C10   C32   1.396861 A    
C1    O8    1.311651 A    
C23   C25   1.385648 A    
O8    V2    1.980487 S    
C24   C26   1.385656 A    
C8    C28   1.407888 A    
O15   C39   1.321102 A    
C14   C16   1.417031 A    
C19   C21   1.425016 A    
C17   C25   1.401801 A    
C20   C22   1.424993 A    
C18   C26   1.401783 A    
C33   C40   1.462691 S    
C9    C11   1.388368 A    
O6    V2    2.033369 S    
C34   C39   1.462691 S    
C17   C31   1.417469 A    
O9    V2    1.751241 S    
N4    C42   1.445505 S    
O10   V1    1.751165 S    
O14   V4    2.033352 S    
C5    C21   1.421026 A    
C42   H16   1.110056 S    
C6    C22   1.421016 A    
C13   H5    1.076301 S    
