data_mof_unit_61837.cif
_audit_creation_date              2012-12-10T16:51:44-0500
_audit_creation_method            fapswitch 2.2
_symmetry_space_group_name_H-M    P1
_symmetry_Int_Tables_number       1
_space_group_crystal_system       triclinic
_cell_length_a                    30.141027
_cell_length_b                    31.01646
_cell_length_c                    21.768576
_cell_angle_alpha                 89.99667
_cell_angle_beta                  135.355904
_cell_angle_gamma                 90.004888
_cell_volume                      14300.4848853

loop_
_atom_site_label
_atom_site_type_symbol
_atom_type_description
_atom_site_fract_x
_atom_site_fract_y
_atom_site_fract_z
_atom_type_partial_charge
C1    C     C_R   0.687345 0.809122 0.880398 0.946095
C2    C     C_R   0.312653 0.809123 0.119602 0.945935
C3    C     C_R   0.187345 0.309122 0.880398 0.946095
C4    C     C_R   0.812653 0.309123 0.119602 0.945935
C5    C     C_R   0.452705 0.783305 0.997653 0.168277
C6    C     C_R   0.547286 0.783304 0.002317 0.168246
C7    C     C_R   0.952704 0.283305 0.997653 0.168278
C8    C     C_R   0.047286 0.283304 0.002317 0.168246
C9    C     C_R   0.477073 0.664601 0.001052 0.312505
C10   C     C_R   0.522886 0.664601 0.998900 0.312626
C11   C     C_R   0.977073 0.164601 0.001052 0.312504
C12   C     C_R   0.022886 0.164601 0.998900 0.312626
C13   C     C_R   0.523374 0.822343 0.000805 -0.196553
C14   C     C_R   0.476625 0.822343 0.999166 -0.196496
C15   C     C_R   0.023374 0.322343 0.000805 -0.196554
C16   C     C_R   0.976625 0.322343 0.999166 -0.196496
C17   C     C_2   0.599347 0.911258 0.756009 0.477021
C18   C     C_2   0.400639 0.911265 0.243986 0.476808
C19   C     C_2   0.099347 0.411258 0.756009 0.477023
C20   C     C_2   0.900639 0.411265 0.243986 0.476808
C21   C     C_2   0.602676 0.913524 0.697400 -0.131129
C22   C     C_2   0.397319 0.913522 0.302603 -0.130310
C23   C     C_2   0.102676 0.413524 0.697400 -0.131129
C24   C     C_2   0.897319 0.413522 0.302603 -0.130310
C25   C     C_2   0.639874 0.880302 0.828630 -0.266605
C26   C     C_2   0.360113 0.880308 0.171367 -0.266244
C27   C     C_2   0.139874 0.380302 0.828630 -0.266605
C28   C     C_2   0.860113 0.380308 0.171367 -0.266244
C29   C     C_2   0.645079 0.840209 0.812068 -0.326039
C30   C     C_2   0.354914 0.840212 0.187931 -0.327285
C31   C     C_2   0.145079 0.340209 0.812068 -0.326038
C32   C     C_2   0.854914 0.340212 0.187931 -0.327284
C33   C     C_R   0.135670 0.753147 0.083778 0.409053
C34   C     C_R   0.864877 0.752829 0.916879 0.437329
C35   C     C_R   0.635670 0.253147 0.083778 0.409053
C36   C     C_R   0.364877 0.252829 0.916879 0.437329
C37   C     C_R   0.117297 0.752727 0.003536 -0.158753
C38   C     C_R   0.882911 0.752568 0.996863 -0.182323
C39   C     C_R   0.617297 0.252727 0.003536 -0.158753
C40   C     C_R   0.382911 0.252568 0.996863 -0.182323
C41   C     C_R   0.054442 0.750757 0.924506 -0.287440
C42   C     C_R   0.945774 0.750591 0.076115 -0.285550
C43   C     C_R   0.554442 0.250757 0.924506 -0.287440
C44   C     C_R   0.445774 0.250591 0.076115 -0.285550
C45   C     C_R   0.664194 0.748571 0.001812 0.882982
C46   C     C_R   0.335803 0.748573 0.998184 0.883270
C47   C     C_R   0.164194 0.248571 0.001812 0.882982
C48   C     C_R   0.835803 0.248573 0.998184 0.883270
C49   C     C_R   0.007355 0.747171 0.922206 0.021093
C50   C     C_R   0.993081 0.747040 0.078746 -0.013461
C51   C     C_R   0.507355 0.247171 0.922206 0.021093
C52   C     C_R   0.493081 0.247040 0.078746 -0.013461
C53   C     C_R   0.024316 0.747387 0.001885 -0.065387
C54   C     C_R   0.976388 0.747293 0.999351 -0.085328
C55   C     C_R   0.524316 0.247387 0.001885 -0.065387
C56   C     C_R   0.476388 0.247293 0.999351 -0.085328
C57   C     C_R   0.089042 0.748984 0.083833 -0.030499
C58   C     C_R   0.911774 0.748722 0.917534 0.011990
C59   C     C_R   0.589042 0.248984 0.083833 -0.030499
C60   C     C_R   0.411774 0.248723 0.917534 0.011990
C61   C     C_R   0.943474 0.744160 0.841360 0.358140
C62   C     C_R   0.056869 0.744057 0.159585 0.434648
C63   C     C_R   0.443474 0.244160 0.841360 0.358140
C64   C     C_R   0.556869 0.244057 0.159585 0.434648
C65   C     C_R   0.895937 0.746341 0.838813 0.085458
C66   C     C_R   0.104518 0.746539 0.162660 0.075999
C67   C     C_R   0.395937 0.246341 0.838813 0.085458
C68   C     C_R   0.604518 0.246539 0.162660 0.075999
C69   C     C_2   0.903801 0.588048 0.245675 0.456662
C70   C     C_2   0.096208 0.588040 0.754329 0.456293
C71   C     C_2   0.403801 0.088048 0.245675 0.456661
C72   C     C_2   0.596207 0.088040 0.754329 0.456291
C73   C     C_2   0.896497 0.584987 0.299873 0.218085
C74   C     C_2   0.103509 0.584986 0.700129 0.218221
C75   C     C_2   0.396496 0.084987 0.299872 0.218085
C76   C     C_2   0.603510 0.084985 0.700129 0.218218
C77   C     C_2   0.863108 0.618399 0.172050 0.034455
C78   C     C_2   0.136900 0.618393 0.827953 0.034437
C79   C     C_2   0.363109 0.118399 0.172050 0.034455
C80   C     C_2   0.636899 0.118393 0.827952 0.034437
C81   C     C_2   0.859408 0.659799 0.188425 -0.069942
C82   C     C_2   0.140598 0.659795 0.811576 -0.070081
C83   C     C_2   0.359407 0.159799 0.188425 -0.069941
C84   C     C_2   0.640598 0.159795 0.811576 -0.070081
C85   C     C_R   0.061816 0.557820 0.622343 0.837594
C86   C     C_R   0.938186 0.557820 0.377657 0.837648
C87   C     C_R   0.561816 0.057819 0.622343 0.837594
C88   C     C_R   0.438186 0.057820 0.377657 0.837648
C89   C     C_R   0.813921 0.690801 0.119520 0.876089
C90   C     C_R   0.186081 0.690800 0.880480 0.876078
C91   C     C_R   0.313921 0.190801 0.119520 0.876088
C92   C     C_R   0.686081 0.190800 0.880480 0.876077
C93   C     C_R   0.561801 0.942118 0.622212 0.917647
C94   C     C_R   0.438197 0.942118 0.377789 0.917643
C95   C     C_R   0.061802 0.442118 0.622212 0.917648
C96   C     C_R   0.938197 0.442118 0.377789 0.917643
C97   C     C_R   0.836171 0.750998 0.998868 0.869598
C98   C     C_R   0.163836 0.750999 0.001143 0.869939
C99   C     C_R   0.336171 0.250998 0.998868 0.869598
C100  C     C_R   0.663836 0.250999 0.001143 0.869939
C101  C     C_R   0.406748 0.783856 0.997367 -0.279467
C102  C     C_R   0.593246 0.783854 0.002610 -0.279508
C103  C     C_R   0.906748 0.283856 0.997367 -0.279467
C104  C     C_R   0.093246 0.283854 0.002610 -0.279508
C105  C     C_R   0.381459 0.745467 0.994211 -0.127282
C106  C     C_R   0.618529 0.745465 0.005769 -0.127221
C107  C     C_R   0.881460 0.245467 0.994211 -0.127282
C108  C     C_R   0.118529 0.245465 0.005769 -0.127221
C109  C     C_R   0.399945 0.705227 0.987754 0.120659
C110  C     C_R   0.600030 0.705225 0.012216 0.120659
C111  C     C_R   0.899945 0.205227 0.987754 0.120658
C112  C     C_R   0.100030 0.205225 0.012216 0.120659
C113  C     C_R   0.450752 0.704013 0.995572 -0.003265
C114  C     C_R   0.549219 0.704012 0.004389 -0.003310
C115  C     C_R   0.950752 0.204013 0.995572 -0.003264
C116  C     C_R   0.049219 0.204012 0.004389 -0.003311
C117  C     C_R   0.475774 0.743444 0.998124 -0.045726
C118  C     C_R   0.524206 0.743444 0.001839 -0.045760
C119  C     C_R   0.975774 0.243444 0.998124 -0.045727
C120  C     C_R   0.024206 0.243444 0.001839 -0.045759
H1    H     H_    0.390779 0.814402 0.000432 0.155376
H2    H     H_    0.609224 0.814400 0.999551 0.155365
H3    H     H_    0.890779 0.314402 0.000432 0.155377
H4    H     H_    0.109224 0.314400 0.999551 0.155365
H5    H     H_    0.043121 0.751864 0.864863 0.181224
H6    H     H_    0.956937 0.751731 0.135634 0.180937
H7    H     H_    0.543121 0.251864 0.864863 0.181224
H8    H     H_    0.456937 0.251731 0.135634 0.180937
H9    H     H_    0.541023 0.852906 0.001192 0.145657
H10   H     H_    0.458983 0.852907 0.998783 0.145697
H11   H     H_    0.041023 0.352906 0.001192 0.145657
H12   H     H_    0.958983 0.352907 0.998783 0.145697
H13   H     H_    0.664293 0.890335 0.894189 0.171210
H14   H     H_    0.335690 0.890343 0.105806 0.171237
H15   H     H_    0.164294 0.390336 0.894189 0.171210
H16   H     H_    0.835690 0.390343 0.105806 0.171237
H17   H     H_    0.615456 0.829373 0.745097 0.168363
H18   H     H_    0.384539 0.829375 0.254903 0.168071
H19   H     H_    0.115456 0.329373 0.745097 0.168363
H20   H     H_    0.884539 0.329374 0.254903 0.168070
O1    O     O_R   0.679230 0.769690 0.858450 -0.621391
O2    O     O_R   0.320770 0.769690 0.141550 -0.621504
O3    O     O_R   0.179230 0.269690 0.858450 -0.621391
O4    O     O_R   0.820770 0.269690 0.141550 -0.621504
O5    O     O_R   0.082500 0.545230 0.590410 -0.640895
O6    O     O_R   0.917500 0.545230 0.409590 -0.641229
O7    O     O_R   0.582500 0.045230 0.590410 -0.640896
O8    O     O_R   0.417500 0.045230 0.409590 -0.641229
O9    O     O_R   0.507930 0.954750 0.590450 -0.553260
O10   O     O_R   0.492070 0.954750 0.409550 -0.553300
O11   O     O_R   0.007930 0.454750 0.590450 -0.553260
O12   O     O_R   0.992070 0.454750 0.409550 -0.553300
O13   O     O_R   0.582530 0.954770 0.590430 -0.648671
O14   O     O_R   0.417470 0.954770 0.409570 -0.648757
O15   O     O_R   0.082530 0.454770 0.590430 -0.648672
O16   O     O_R   0.917470 0.454770 0.409570 -0.648757
O17   O     O_R   0.730270 0.820760 0.960570 -0.615150
O18   O     O_R   0.269730 0.820760 0.039430 -0.614975
O19   O     O_R   0.230270 0.320760 0.960570 -0.615150
O20   O     O_R   0.769730 0.320760 0.039430 -0.614975
O21   O     O_R   0.658400 0.724440 0.948940 -0.610094
O22   O     O_R   0.341600 0.724440 0.051060 -0.610291
O23   O     O_R   0.158400 0.224440 0.948940 -0.610094
O24   O     O_R   0.841600 0.224440 0.051060 -0.610291
O25   O     O_R   0.709450 0.775510 0.051050 -0.621507
O26   O     O_R   0.290550 0.775510 0.948950 -0.621127
O27   O     O_R   0.209450 0.275510 0.051050 -0.621507
O28   O     O_R   0.790550 0.275510 0.948950 -0.621127
O29   O     O_R   0.769710 0.679220 0.039380 -0.640350
O30   O     O_R   0.230290 0.679220 0.960620 -0.640607
O31   O     O_R   0.269710 0.179220 0.039380 -0.640349
O32   O     O_R   0.730290 0.179220 0.960620 -0.640606
O33   O     O_R   0.820750 0.730290 0.141500 -0.627015
O34   O     O_R   0.179250 0.730290 0.858500 -0.626842
O35   O     O_R   0.320750 0.230290 0.141500 -0.627015
O36   O     O_R   0.679250 0.230290 0.858500 -0.626842
O37   O     O_R   0.790530 0.724470 0.948890 -0.604531
O38   O     O_R   0.209470 0.724470 0.051110 -0.602970
O39   O     O_R   0.290530 0.224470 0.948890 -0.604531
O40   O     O_R   0.709470 0.224470 0.051110 -0.602971
O41   O     O_R   0.841580 0.775540 0.051010 -0.617112
O42   O     O_R   0.158420 0.775540 0.948990 -0.619096
O43   O     O_R   0.341580 0.275540 0.051010 -0.617112
O44   O     O_R   0.658420 0.275540 0.948990 -0.619096
O45   O     O_R   0.007900 0.545210 0.590430 -0.557475
O46   O     O_R   0.992100 0.545210 0.409570 -0.557097
O47   O     O_R   0.507900 0.045210 0.590430 -0.557474
O48   O     O_R   0.492100 0.045210 0.409570 -0.557096
Zn1   Zn    Zn3+2 0.715910 0.715890 0.931790 0.986412
Zn2   Zn    Zn3+2 0.284090 0.715890 0.068210 0.984161
Zn3   Zn    Zn3+2 0.215910 0.215890 0.931790 0.986413
Zn4   Zn    Zn3+2 0.784090 0.215890 0.068210 0.984161
Zn5   Zn    Zn3+2 0.784070 0.784090 0.068160 0.968753
Zn6   Zn    Zn3+2 0.215930 0.784090 0.931840 0.968530
Zn7   Zn    Zn3+2 0.284070 0.284090 0.068160 0.968753
Zn8   Zn    Zn3+2 0.715930 0.284090 0.931840 0.968530
Zn9   Zn    Zn3+2 0.450180 0.999980 0.499990 1.036795
Zn10  Zn    Zn3+2 0.549820 0.999980 0.500010 1.037715
Zn11  Zn    Zn3+2 0.950180 0.499980 0.499990 1.036795
Zn12  Zn    Zn3+2 0.049820 0.499980 0.500010 1.037715
O49   O     O_3   0.925455 0.739811 0.762950 -0.777720
H21   H     H_    0.954133 0.718722 0.771485 0.330862
O50   O     O_3   0.074794 0.739500 0.237908 -0.738154
H22   H     H_    0.045870 0.718539 0.229077 0.323430
O51   O     O_3   0.425455 0.239811 0.762950 -0.777720
H23   H     H_    0.454133 0.218722 0.771485 0.330862
O52   O     O_3   0.574794 0.239500 0.237908 -0.738154
H24   H     H_    0.545870 0.218539 0.229077 0.323430
N1    N     N_3   0.831314 0.744582 0.755361 -0.345244
H25   H     H_    0.824215 0.715799 0.724321 0.215374
H26   H     H_    0.823018 0.770348 0.717272 0.227155
N2    N     N_3   0.168203 0.744795 0.247818 -0.368821
H27   H     H_    0.191841 0.718772 0.251057 0.236408
H28   H     H_    0.191006 0.773972 0.261127 0.242421
N3    N     N_3   0.331314 0.244582 0.755361 -0.345244
H29   H     H_    0.324215 0.215799 0.724321 0.215374
H30   H     H_    0.323018 0.270348 0.717272 0.227155
N4    N     N_3   0.668203 0.244795 0.247818 -0.368821
H31   H     H_    0.691841 0.218772 0.251057 0.236408
H32   H     H_    0.691006 0.273972 0.261127 0.242421
O53   O     O_3   0.946930 0.562576 0.257193 -0.747477
H33   H     H_    0.945804 0.570590 0.211999 0.342952
O54   O     O_3   0.053080 0.562563 0.742813 -0.747961
H34   H     H_    0.054206 0.570573 0.788009 0.342563
O55   O     O_3   0.446931 0.062577 0.257194 -0.747478
H35   H     H_    0.445806 0.070591 0.212000 0.342953
O56   O     O_3   0.553079 0.062563 0.742812 -0.747960
H36   H     H_    0.554204 0.070574 0.788007 0.342563
O57   O     O_3   0.845306 0.605295 0.276964 -0.795478
H37   H     H_    0.849995 0.604385 0.326827 0.351363
O58   O     O_3   0.154699 0.605300 0.723034 -0.795124
H38   H     H_    0.150008 0.604391 0.673169 0.351674
O59   O     O_3   0.345305 0.105294 0.276962 -0.795478
H39   H     H_    0.349994 0.104384 0.326825 0.351363
O60   O     O_3   0.654700 0.105299 0.723036 -0.795123
H40   H     H_    0.650010 0.104390 0.673172 0.351676
N5    N     N_3   0.828151 0.601904 0.086154 -0.460862
H41   H     H_    0.836712 0.621252 0.056141 0.196784
H42   H     H_    0.780044 0.601756 0.049391 0.230412
N6    N     N_3   0.171859 0.601896 0.913848 -0.461074
H43   H     H_    0.163295 0.621239 0.943860 0.196112
H44   H     H_    0.219966 0.601755 0.950613 0.230441
N7    N     N_3   0.328153 0.101904 0.086155 -0.460862
H45   H     H_    0.336714 0.121254 0.056143 0.196783
H46   H     H_    0.280045 0.101756 0.049390 0.230412
N8    N     N_3   0.671856 0.101897 0.913848 -0.461073
H47   H     H_    0.663292 0.121241 0.943859 0.196110
H48   H     H_    0.719964 0.101755 0.950614 0.230442
N9    N     N_3   0.904879 0.675293 0.277307 -0.451875
H49   H     H_    0.931373 0.699805 0.282835 0.191204
H50   H     H_    0.880485 0.688591 0.290499 0.224363
N10   N     N_3   0.095127 0.675288 0.722693 -0.452227
H51   H     H_    0.068630 0.699794 0.717161 0.190613
H52   H     H_    0.119522 0.688593 0.709503 0.224763
N11   N     N_3   0.404878 0.175293 0.277307 -0.451875
H53   H     H_    0.431372 0.199805 0.282837 0.191205
H54   H     H_    0.380483 0.188590 0.290498 0.224362
N12   N     N_3   0.595128 0.175288 0.722692 -0.452226
H55   H     H_    0.568630 0.199795 0.717159 0.190614
H56   H     H_    0.619524 0.188592 0.709504 0.224762
N13   N     N_3   0.365023 0.666315 0.966880 -0.350668
H57   H     H_    0.346467 0.655085 0.907043 0.216722
H58   H     H_    0.325327 0.671872 0.954874 0.183348
N14   N     N_3   0.634944 0.666313 0.033090 -0.350604
H59   H     H_    0.653492 0.655081 0.092922 0.216297
H60   H     H_    0.674645 0.671869 0.045103 0.183252
N15   N     N_3   0.865023 0.166315 0.966880 -0.350668
H61   H     H_    0.846467 0.155085 0.907043 0.216722
H62   H     H_    0.825327 0.171872 0.954874 0.183348
N16   N     N_3   0.134944 0.166313 0.033090 -0.350604
H63   H     H_    0.153492 0.155081 0.092922 0.216297
H64   H     H_    0.174645 0.171869 0.045103 0.183252
O61   O     O_3   0.459827 0.626533 0.012553 -0.746906
H65   H     H_    0.495381 0.605833 0.045130 0.352054
O62   O     O_3   0.540121 0.626533 0.987391 -0.746846
H66   H     H_    0.504562 0.605834 0.954813 0.352220
O63   O     O_3   0.959827 0.126533 0.012553 -0.746906
H67   H     H_    0.995381 0.105833 0.045130 0.352054
O64   O     O_3   0.040121 0.126533 0.987391 -0.746846
H68   H     H_    0.004562 0.105834 0.954813 0.352220
O65   O     O_3   0.560470 0.938900 0.750156 -0.728769
H69   H     H_    0.564761 0.932165 0.798728 0.332197
O66   O     O_3   0.439509 0.938917 0.249829 -0.728832
H70   H     H_    0.435213 0.932188 0.201252 0.332205
O67   O     O_3   0.060470 0.438900 0.750156 -0.728769
H71   H     H_    0.064761 0.432166 0.798728 0.332197
O68   O     O_3   0.939509 0.438917 0.249829 -0.728832
H72   H     H_    0.935213 0.432188 0.201252 0.332205
N17   N     N_3   0.652008 0.891251 0.713206 -0.473358
H73   H     H_    0.631181 0.873046 0.657700 0.189884
H74   H     H_    0.681747 0.914093 0.722241 0.218707
N18   N     N_3   0.347994 0.891238 0.286809 -0.474845
H75   H     H_    0.368828 0.873032 0.342319 0.188606
H76   H     H_    0.318256 0.914074 0.277781 0.218188
N19   N     N_3   0.152008 0.391251 0.713206 -0.473358
H77   H     H_    0.131181 0.373046 0.657699 0.189884
H78   H     H_    0.181747 0.414093 0.722241 0.218706
N20   N     N_3   0.847994 0.391238 0.286809 -0.474845
H79   H     H_    0.868828 0.373032 0.342319 0.188606
H80   H     H_    0.818256 0.414074 0.277781 0.218188
O69   O     O_3   0.198329 0.758550 0.161554 -0.800198
H81   H     H_    0.220222 0.775684 0.151172 0.338989
O70   O     O_3   0.802365 0.758128 0.838345 -0.739109
H82   H     H_    0.779689 0.774599 0.848128 0.332114
O71   O     O_3   0.698329 0.258550 0.161554 -0.800198
H83   H     H_    0.720222 0.275684 0.151172 0.338989
O72   O     O_3   0.302365 0.258128 0.838345 -0.739109
H84   H     H_    0.279689 0.274599 0.848128 0.332114

loop_
_geom_bond_atom_site_label_1
_geom_bond_atom_site_label_2
_ccdc_geom_bond_type
N11   H54   S    
C30   H18   S    
C55   C59   A    
O54   H34   S    
C10   O62   S    
C103  H3    S    
O69   H81   S    
O17   Zn5   S    
C24   C96   S    
C19   O67   S    
C46   C105  S    
O12   Zn12  S    
C45   O21   A    
C70   C74   D    
O42   Zn6   S    
C79   N7    S    
C25   H13   S    
C51   C63   A    
O20   Zn8   S    
C71   O55   S    
C9    C10   A    
C41   C49   A    
C63   C67   A    
C25   C29   D    
C5    C101  A    
C27   C31   D    
C41   H5    S    
C28   C32   D    
C3    O3    A    
C43   H7    S    
C34   O70   S    
C20   C28   S    
C17   C21   D    
C19   C23   D    
N3    H29   S    
O57   H37   S    
C78   N6    S    
C78   C82   D    
O70   H82   S    
O48   Zn10  S    
C1    C29   S    
C70   O54   S    
C88   O8    A    
O18   Zn6   S    
C3    C31   S    
C8    C104  A    
C4    C32   S    
O34   Zn6   S    
N16   H64   S    
N20   H79   S    
C66   N2    S    
O22   Zn2   S    
C14   H10   S    
O27   Zn7   S    
C74   O58   S    
C4    O4    A    
C48   O24   A    
C94   O10   A    
C83   C91   S    
C90   O34   A    
C91   O31   A    
C17   C25   S    
C93   O13   A    
C111  N15   S    
C96   O16   A    
C21   C93   S    
C92   O32   A    
C49   C53   A    
N18   H76   S    
C23   C95   S    
C51   C55   A    
C6    C102  A    
C42   H6    S    
C89   O29   A    
C61   C65   A    
O39   Zn3   S    
N2    H27   S    
C34   C58   A    
O3    Zn3   S    
O7    Zn10  S    
C103  C107  A    
C20   C24   D    
N10   H51   S    
O63   H67   S    
C69   C77   S    
C81   C89   S    
O29   Zn1   S    
C57   C66   A    
C71   C79   S    
N19   H78   S    
C53   C54   A    
O32   Zn4   S    
O19   Zn7   S    
N9    H49   S    
C36   O72   S    
C64   C68   A    
C9    O61   S    
C85   O5    A    
N13   H57   S    
C48   C107  S    
C96   O12   A    
C24   N20   S    
C18   O66   S    
C60   C67   A    
N14   H59   S    
C72   O56   S    
C98   O38   A    
O59   H39   S    
C110  C114  A    
C99   O43   A    
C44   C52   A    
C7    C103  A    
N5    H41   S    
C3    O19   A    
C22   C94   S    
C100  O44   A    
C37   C98   S    
N1    H25   S    
C85   O45   A    
C64   O52   S    
C62   C66   A    
C87   O47   A    
O13   Zn10  S    
C116  C120  A    
O53   H33   S    
C26   H14   S    
C33   O69   S    
C58   C65   A    
N4    H32   S    
O60   H40   S    
N17   H73   S    
O45   Zn11  S    
C76   C87   S    
C42   C50   A    
C113  C117  A    
C26   C30   D    
C115  C119  A    
O72   H84   S    
C2    O2    A    
C80   N8    S    
O16   Zn11  S    
C100  O40   A    
C112  C116  A    
C11   C115  A    
C105  C109  A    
N8    H47   S    
C18   C22   D    
C107  C111  A    
O26   Zn6   S    
N15   H61   S    
C104  H4    S    
C2    C30   S    
C27   H15   S    
N12   H55   S    
C17   O65   S    
C72   C80   S    
C117  C118  A    
N6    H43   S    
O10   Zn10  S    
C74   C85   S    
C37   C41   A    
C40   C44   A    
C15   H11   S    
C47   C108  S    
O66   H70   S    
C13   H9    S    
O23   Zn3   S    
C84   C92   S    
C69   O53   S    
O24   Zn4   S    
C12   C116  A    
C55   C56   A    
C93   O9    A    
O62   H66   S    
C18   C26   S    
C89   O33   A    
C80   C84   D    
C92   O36   A    
C50   C54   A    
C87   O7    A    
C32   H20   S    
C106  C110  A    
O38   Zn2   S    
O8    Zn9   S    
N7    H45   S    
O2    Zn2   S    
C35   C59   A    
O35   Zn7   S    
O43   Zn7   S    
O64   H68   S    
C69   C73   D    
O41   Zn5   S    
C10   C114  A    
C47   O23   A    
C77   N5    S    
O46   Zn12  S    
N20   H80   S    
C23   N19   S    
C86   O6    A    
C73   O57   S    
C49   C61   A    
O52   H24   S    
O1    Zn1   S    
O5    Zn12  S    
C52   C64   A    
C112  N16   S    
N19   H77   S    
C53   C57   A    
O4    Zn4   S    
O44   Zn8   S    
C33   C37   A    
C56   C60   A    
C83   N11   S    
C20   O68   S    
C98   O42   A    
C35   C39   A    
C99   O39   A    
O67   H71   S    
C7    C119  A    
C97   O37   A    
O68   H72   S    
C77   C81   D    
C2    O18   A    
O31   Zn3   S    
C12   O64   S    
C5    C14   A    
C7    C16   A    
N2    H28   S    
C86   O46   A    
C8    C15   A    
O33   Zn5   S    
C95   O11   A    
C109  N13   S    
C104  C108  A    
N10   H52   S    
C82   N10   S    
C46   O26   A    
C28   H16   S    
C35   O71   S    
C119  C120  A    
C29   H17   S    
C82   C90   S    
C9    C113  A    
C79   C83   D    
N15   H62   S    
C43   C51   A    
C16   H12   S    
C101  H1    S    
C1    O1    A    
C108  C112  A    
N14   H60   S    
O71   H83   S    
C63   O51   S    
N16   H63   S    
N17   H74   S    
C102  H2    S    
C45   O25   A    
C11   O63   S    
O50   H22   S    
C70   C78   S    
O49   H21   S    
C67   N3    S    
C72   C76   D    
C40   C99   S    
C39   C100  S    
O51   H23   S    
O47   Zn9   S    
C84   N12   S    
N18   H75   S    
C38   C42   A    
N3    H30   S    
C15   C16   A    
O6    Zn11  S    
C61   O49   S    
O56   H36   S    
N7    H46   S    
C102  C106  A    
C22   N18   S    
C65   N1    S    
C109  C113  A    
C38   C97   S    
C101  C105  A    
C62   O50   S    
N8    H48   S    
N9    H50   S    
O37   Zn1   S    
O11   Zn11  S    
C36   C40   A    
O21   Zn1   S    
O40   Zn4   S    
N13   H58   S    
O14   Zn9   S    
C39   C43   A    
O65   H69   S    
C5    C117  A    
C68   N4    S    
C59   C68   A    
C47   O27   A    
C48   O28   A    
C94   O14   A    
C90   O30   A    
N6    H44   S    
O55   H35   S    
C91   O35   A    
O36   Zn8   S    
C114  C118  A    
N5    H42   S    
O28   Zn8   S    
C50   C62   A    
C31   H19   S    
N11   H53   S    
N12   H56   S    
C19   C27   S    
C45   C106  S    
C8    C120  A    
C54   C58   A    
C44   H8    S    
C33   C57   A    
C34   C38   A    
C110  N14   S    
C81   N9    S    
C36   C60   A    
O25   Zn5   S    
C11   C12   A    
C97   O41   A    
O30   Zn2   S    
C1    O17   A    
C6    C13   A    
C71   C75   D    
N4    H31   S    
C4    O20   A    
N1    H26   S    
C75   O59   S    
C76   O60   S    
C95   O15   A    
C73   C86   S    
C75   C88   S    
C88   O48   A    
C21   N17   S    
C46   O22   A    
O58   H38   S    
C111  C115  A    
C13   C14   A    
C6    C118  A    
O15   Zn12  S    
C52   C56   A    
O9    Zn9   S    
O61   H65   S    
