data_mof_unit_56502.cif
_audit_creation_date              2012-12-10T18:49:54-0500
_audit_creation_method            fapswitch 2.2
_symmetry_space_group_name_H-M    P1
_symmetry_Int_Tables_number       1
_space_group_crystal_system       triclinic
_cell_length_a                    10.71389
_cell_length_b                    9.911451
_cell_length_c                    10.68413
_cell_angle_alpha                 89.58204
_cell_angle_beta                  92.456115
_cell_angle_gamma                 89.976549
_cell_volume                      1133.47713373

loop_
_atom_site_label
_atom_site_type_symbol
_atom_type_description
_atom_site_fract_x
_atom_site_fract_y
_atom_site_fract_z
_atom_type_partial_charge
C1    C     C_R   0.260049 0.500027 0.498405 0.876624
C2    C     C_3   0.626108 0.474703 0.944330 0.437710
C3    C     C_R   0.063765 0.377077 0.490186 -0.132899
C4    C     C_R   0.063635 0.623054 0.489277 -0.131534
C5    C     C_R   0.935937 0.377159 0.487850 -0.120613
C6    C     C_R   0.935801 0.622951 0.486894 -0.119423
C7    C     C_R   0.872176 0.500036 0.490190 -0.034888
C8    C     C_R   0.127400 0.500062 0.493163 -0.015515
C9    C     C_R   0.590263 0.070964 0.566107 0.319113
C10   C     C_R   0.590472 0.928125 0.566007 0.319800
C11   C     C_R   0.409866 0.928833 0.433638 -0.111348
C12   C     C_R   0.409909 0.072265 0.433580 -0.110305
C13   C     C_R   0.486621 0.500541 0.258786 0.886190
C14   C     C_R   0.739785 0.500006 0.496865 0.930139
C15   C     C_R   0.495721 0.499123 0.742745 0.983938
C16   C     C_3   0.406919 0.623288 0.068528 -0.466583
C17   C     C_3   0.417729 0.370627 0.072359 -0.435244
C18   C     C_3   0.434207 0.639150 0.928765 0.465368
C19   C     C_3   0.399800 0.377767 0.928227 0.443296
C20   C     C_3   0.619770 0.510124 0.083444 -0.432065
C21   C     C_3   0.482489 0.501234 0.123088 -0.073694
C22   C     C_3   0.489118 0.497098 0.880362 -0.277383
H1    H     H_    0.429345 0.718055 0.119727 0.227396
H2    H     H_    0.476326 0.281890 0.100414 0.240933
H3    H     H_    0.337646 0.875422 0.380328 0.153780
H4    H     H_    0.337724 0.126569 0.380211 0.154534
H5    H     H_    0.305552 0.605773 0.080579 0.214239
H6    H     H_    0.326496 0.355720 0.116554 0.195664
H7    H     H_    0.655718 0.613819 0.100932 0.224724
H8    H     H_    0.681679 0.443161 0.142917 0.198729
H9    H     H_    0.112199 0.281069 0.490516 0.174115
H10   H     H_    0.111974 0.719059 0.488881 0.175306
H11   H     H_    0.887847 0.281270 0.485157 0.191086
H12   H     H_    0.887591 0.718847 0.483380 0.190810
N1    N     N_R   0.499970 0.857200 0.499970 -0.128139
N2    N     N_R   0.499970 0.142800 0.499970 -0.127808
O1    O     O_R   0.316750 0.614620 0.499990 -0.625143
O2    O     O_R   0.316750 0.385380 0.499990 -0.629110
O3    O     O_R   0.499970 0.614670 0.314790 -0.632299
O4    O     O_R   0.499970 0.385330 0.314790 -0.631069
O5    O     O_R   0.683220 0.614710 0.500010 -0.598830
O6    O     O_R   0.683220 0.385290 0.500010 -0.601014
O7    O     O_R   0.500010 0.614660 0.685200 -0.541885
O8    O     O_R   0.500010 0.385340 0.685200 -0.545345
Zn1   Zn    Zn3+2 0.499980 0.653120 0.500000 1.035365
Zn2   Zn    Zn3+2 0.499980 0.346880 0.500000 1.034348
Br1   Br    Br    0.284941 0.709760 0.836892 -0.338642
Br2   Br    Br    0.221965 0.400587 0.883500 -0.375040
Br3   Br    Br    0.544928 0.795663 0.916526 -0.316374
Br4   Br    Br    0.420796 0.193540 0.864039 -0.296470
Br5   Br    Br    0.761597 0.574316 0.869405 -0.302418
Br6   Br    Br    0.695763 0.292861 0.941548 -0.313314
Br7   Br    Br    0.720105 0.161245 0.660334 -0.304566
Br8   Br    Br    0.721942 0.837395 0.659537 -0.304252

loop_
_geom_bond_atom_site_label_1
_geom_bond_atom_site_label_2
_ccdc_geom_bond_type
C2    C22   S    
C9    N2    A    
O4    Zn2   S    
C11   C12   A    
N2    Zn2   S    
C16   C21   S    
C12   N2    A    
C1    C8    S    
C9    C10   A    
C1    O1    A    
O3    Zn1   S    
C18   Br1   S    
C16   H5    S    
C11   N1    A    
C13   C21   S    
C20   H8    S    
C14   O6    A    
C3    H9    S    
O7    Zn1   S    
C19   Br4   S    
C6    C7    A    
C2    Br6   S    
C1    O2    A    
C14   O5    A    
C4    C6    A    
C17   C19   S    
O8    Zn2   S    
C15   O8    A    
C16   H1    S    
C20   H7    S    
C15   C22   S    
C10   Br8   S    
C10   N1    A    
O2    Zn2   S    
C17   H2    S    
C13   O3    A    
C2    Br5   S    
C11   H3    S    
O1    Zn1   S    
C4    H10   S    
N1    Zn1   S    
C19   C22   S    
C9    Br7   S    
C20   C21   S    
C15   O7    A    
C16   C18   S    
C3    C8    A    
O6    Zn2   S    
C4    C8    A    
C5    C7    A    
O5    Zn1   S    
C19   Br2   S    
C13   O4    A    
C18   C22   S    
C17   H6    S    
C2    C20   S    
C7    C14   S    
C17   C21   S    
C6    H12   S    
C18   Br3   S    
C12   H4    S    
C3    C5    A    
C5    H11   S    
