data_mof_unit_17445.cif
_audit_creation_date              2013-03-05T15:49:19-0500
_audit_creation_method            fapswitch 2.2
_symmetry_space_group_name_H-M    P1
_symmetry_Int_Tables_number       1
_space_group_crystal_system       triclinic
_cell_length_a                    10.626979
_cell_length_b                    12.005138
_cell_length_c                    12.837626
_cell_angle_alpha                 93.91046
_cell_angle_beta                  90.434362
_cell_angle_gamma                 86.889421
_cell_volume                      1631.5702895

loop_
_atom_site_label
_atom_site_type_symbol
_atom_site_description
_atom_site_fract_x
_atom_site_fract_y
_atom_site_fract_z
_atom_type_partial_charge
O1    O     O_R   0.506170 0.421690 0.658830 -0.631579
O2    O     O_R   0.491330 0.609320 0.646410 -0.623291
C1    C     C_R   0.498185 0.522550 0.700283 0.871156
O3    O     O_R   0.690660 0.406170 0.506210 -0.612410
O4    O     O_R   0.675810 0.593790 0.493790 -0.572306
C2    C     C_R   0.737585 0.497799 0.481365 0.935723
Zn1   Zn    Zn3+2 0.509910 0.374720 0.508290 1.033292
Zn2   Zn    Zn3+2 0.490090 0.625280 0.491710 1.029987
O5    O     O_R   0.508670 0.390680 0.353590 -0.547850
O6    O     O_R   0.493830 0.578310 0.341170 -0.587743
O7    O     O_R   0.324190 0.406210 0.506210 -0.589499
O8    O     O_R   0.309340 0.593830 0.493790 -0.636481
C3    C     C_R   0.506210 0.477624 0.299678 0.959598
C4    C     C_R   0.258735 0.499592 0.504892 0.905308
C5    C     C_R   0.896023 0.284791 0.426377 0.300342
C6    C     C_R   0.954952 0.187257 0.463063 0.351794
C7    C     C_R   0.059660 0.195879 0.529428 0.365616
C8    C     C_R   0.113761 0.298804 0.547855 -0.240168
C9    C     C_R   0.061362 0.395424 0.503289 -0.001371
C10   C     C_R   0.941293 0.390962 0.458930 -0.103168
C11   C     C_R   0.869870 0.493564 0.453738 -0.148517
C12   C     C_R   0.931077 0.594040 0.449415 0.411788
C13   C     C_R   0.057711 0.593895 0.470162 -0.226675
C14   C     C_R   0.123244 0.496783 0.500034 -0.130152
C15   C     C_R   0.511905 0.463121 0.188031 -0.136879
C16   C     C_R   0.504055 0.537096 0.811462 -0.048211
C17   C     C_R   0.589276 0.628590 0.966278 -0.102686
C18   C     C_R   0.566938 0.625838 0.859835 -0.189000
C19   C     C_R   0.458098 0.453920 0.868498 -0.214209
C20   C     C_R   0.478973 0.456006 0.974561 0.116122
C21   C     C_R   0.547000 0.543097 0.024611 0.076325
C22   C     C_R   0.568604 0.543287 0.131704 0.312853
C23   C     C_R   0.448670 0.375632 0.137504 -0.170767
C24   C     C_R   0.433479 0.371304 0.030605 -0.167248
N1    N     N_R   0.523130 0.207800 0.519340 -0.158396
N2    N     N_R   0.476870 0.792180 0.480660 -0.141595
C25   C     C_R   0.372993 0.949071 0.405352 0.411732
C26   C     C_R   0.388863 0.834260 0.415591 0.000846
C27   C     C_R   0.552810 0.859549 0.538979 0.097195
C28   C     C_R   0.542798 0.976641 0.532725 -0.108499
C29   C     C_R   0.452145 0.023646 0.463840 -0.138384
C30   C     C_R   0.446619 0.142118 0.457799 0.532522
C31   C     C_R   0.608406 0.162845 0.585697 -0.084554
C32   C     C_R   0.620920 0.047348 0.593556 0.365212
Cl1   Cl    Cl    0.856436 0.722191 0.416534 -0.415940
H1    H     H_    0.382413 0.304142 0.992286 0.179287
H2    H     H_    0.603267 0.690093 0.814800 0.182238
H3    H     H_    0.408118 0.386168 0.829652 0.158423
Cl2   Cl    Cl    0.347477 0.209672 0.369040 -0.511451
H4    H     H_    0.667979 0.217433 0.632086 0.181110
Cl3   Cl    Cl    0.248280 0.986799 0.321015 -0.428874
Cl4   Cl    Cl    0.735814 0.995675 0.680343 -0.519224
H5    H     H_    0.329400 0.777269 0.371838 0.172402
H6    H     H_    0.620618 0.820768 0.590317 0.188755
Cl5   Cl    Cl    0.779969 0.272053 0.327327 -0.481557
Cl6   Cl    Cl    0.897051 0.054983 0.427182 -0.346457
Cl7   Cl    Cl    0.129510 0.078089 0.586054 -0.487854
H7    H     H_    0.194731 0.302181 0.599176 0.202801
H8    H     H_    0.104273 0.671222 0.463602 0.218291
Cl8   Cl    Cl    0.669350 0.640668 0.194631 -0.508029
H9    H     H_    0.406276 0.313405 0.181016 0.233836
H10   H     H_    0.639615 0.697538 0.001571 0.216468

loop_
_geom_bond_atom_site_label_1
_geom_bond_atom_site_label_2
_geom_bond_distance
_ccdc_geom_bond_type
C7    Cl7   1.759888 S    
O4    Zn2   1.989597 S    
C13   H8    1.083910 S    
C13   C14   1.400023 A    
C6    Cl6   1.764772 S    
C18   H2    1.083909 S    
C19   C20   1.376649 A    
C24   H1    1.084405 S    
C17   H10   1.081579 S    
N1    C31   1.355034 A    
C29   C30   1.427664 A    
C16   C18   1.395690 A    
C21   C22   1.392005 A    
Zn2   O8    1.978306 S    
C32   Cl4   1.763049 S    
C15   C22   1.405921 A    
N2    C26   1.349855 A    
C7    C8    1.395875 A    
C31   H4    1.082128 S    
C11   C12   1.405697 A    
Zn1   O7    1.989598 S    
C3    C15   1.433325 S    
C25   C26   1.394501 A    
C26   H5    1.082604 S    
O3    Zn1   1.978308 S    
O4    C2    1.295689 A    
Zn2   O6    1.975979 S    
C28   C29   1.422915 A    
O8    C4    1.295617 A    
C9    C14   1.417417 A    
O2    C1    1.287630 A    
C1    C16   1.427348 S    
C31   C32   1.396160 A    
C25   C29   1.432935 A    
C20   C21   1.418438 A    
C25   Cl3   1.764607 S    
O7    C4    1.287903 A    
C27   H6    1.081023 S    
C6    C7    1.400295 A    
C20   C24   1.394201 A    
C19   H3    1.086238 S    
C17   C21   1.405711 A    
C5    C6    1.405752 A    
C28   C32   1.412749 A    
C12   Cl1   1.767856 S    
C23   C24   1.378354 A    
C10   C11   1.416591 A    
C16   C19   1.389172 A    
C23   H9    1.081820 S    
O3    C2    1.292376 A    
Zn2   N2    2.015545 S    
C4    C14   1.442864 S    
C27   C28   1.411676 A    
Zn1   O5    2.008041 S    
N1    C30   1.371825 A    
C22   Cl8   1.777489 S    
C12   C13   1.369788 A    
C8    C9    1.413656 A    
O5    C3    1.290141 A    
C30   Cl2   1.755334 S    
O1    C1    1.287702 A    
O1    Zn1   1.975978 S    
C2    C11   1.449815 S    
Zn1   N1    2.015782 S    
C8    H7    1.080582 S    
N2    C27   1.358299 A    
O2    Zn2   2.008042 S    
C9    C10   1.395535 A    
C15   C23   1.397344 A    
C5    C10   1.421805 A    
C17   C18   1.383644 A    
O6    C3    1.287666 A    
C5    Cl5   1.769601 S    
