data_mof_unit_66610.cif
_audit_creation_date              2013-03-05T16:09:39-0500
_audit_creation_method            fapswitch 2.2
_symmetry_space_group_name_H-M    P1
_symmetry_Int_Tables_number       1
_space_group_crystal_system       triclinic
_cell_length_a                    14.91424
_cell_length_b                    7.594754
_cell_length_c                    13.759274
_cell_angle_alpha                 90.001293
_cell_angle_beta                  100.189261
_cell_angle_gamma                 90.001889
_cell_volume                      1533.93309844

loop_
_atom_site_label
_atom_site_type_symbol
_atom_site_description
_atom_site_fract_x
_atom_site_fract_y
_atom_site_fract_z
_atom_type_partial_charge
O1    O     O_R   0.398210 0.494340 0.401550 -0.528076
O2    O     O_R   0.601790 0.994340 0.598450 -0.528091
O3    O     O_R   0.586310 0.821730 0.403360 -0.624928
O4    O     O_R   0.413690 0.321730 0.596640 -0.624898
C1    C     C_R   0.611678 0.653858 0.377850 1.112442
C2    C     C_R   0.388316 0.153860 0.622143 1.112412
O5    O     O_R   0.397970 0.823900 0.389580 -0.592372
O6    O     O_R   0.602030 0.323900 0.610420 -0.592338
O7    O     O_R   0.412100 0.996500 0.584560 -0.600741
O8    O     O_R   0.587900 0.496500 0.415440 -0.600709
C3    C     C_R   0.366269 0.654982 0.363014 0.892477
C4    C     C_R   0.633738 0.154986 0.636978 0.892358
O9    O     O_3   0.504860 0.661550 0.563990 -0.338152
O10   O     O_3   0.495140 0.161550 0.436010 -0.338248
V1    V     V_3+5 0.499100 0.935510 0.488130 1.183482
V2    V     V_3+5 0.500900 0.435510 0.511870 1.183522
C5    C     C_1   0.714848 0.142405 0.718317 -0.167777
C6    C     C_1   0.285157 0.642403 0.281678 -0.167803
C7    C     C_1   0.782079 0.131627 0.785794 -0.122880
C8    C     C_1   0.217922 0.631636 0.214204 -0.122957
C9    C     C_3   0.247077 0.322997 0.832624 0.443796
C10   C     C_3   0.752920 0.822980 0.167366 0.443846
C11   C     C_3   0.326970 0.300513 0.768959 0.159936
C12   C     C_3   0.673024 0.800508 0.231029 0.159910
H1    H     H_    0.320243 0.400384 0.714707 0.106411
H2    H     H_    0.679758 0.900407 0.285275 0.106429
C13   C     C_3   0.141272 0.117142 0.707872 0.836953
C14   C     C_3   0.858714 0.617115 0.292119 0.837032
C15   C     C_3   0.260425 0.990219 0.846316 0.046874
C16   C     C_3   0.739563 0.490195 0.153672 0.046880
C17   C     C_3   0.189742 0.143141 0.819887 -0.602260
C18   C     C_3   0.810248 0.643123 0.180103 -0.602360
H3    H     H_    0.220686 0.866184 0.840804 0.244581
H4    H     H_    0.779317 0.366181 0.159212 0.244668
C19   C     C_3   0.317353 0.141068 0.697589 -0.491971
C20   C     C_3   0.682632 0.641053 0.302395 -0.491923
C21   C     C_3   0.216360 0.136805 0.636457 -0.009836
C22   C     C_3   0.783624 0.636774 0.363528 -0.009883
C23   C     C_3   0.326542 0.972429 0.768198 0.635007
C24   C     C_3   0.673427 0.472406 0.231772 0.634912
H5    H     H_    0.214450 0.016849 0.591427 0.117296
H6    H     H_    0.785519 0.516808 0.408543 0.117265
O11   O     O_R   0.912140 0.786650 0.084610 -0.545478
O12   O     O_R   0.087860 0.286650 0.915390 -0.545506
O13   O     O_R   0.102040 0.454810 0.110430 -0.565280
O14   O     O_R   0.897960 0.954810 0.889570 -0.565328
C25   C     C_R   0.135610 0.622777 0.134366 0.961503
C26   C     C_R   0.864389 0.122772 0.865634 0.961608
O15   O     O_R   0.913690 0.457060 0.096650 -0.544896
O16   O     O_R   0.086310 0.957060 0.903350 -0.544895
O17   O     O_R   0.898200 0.284560 0.901540 -0.568500
O18   O     O_R   0.101800 0.784560 0.098460 -0.568469
C27   C     C_R   0.884344 0.626943 0.114120 1.074284
C28   C     C_R   0.115649 0.126949 0.885873 1.074513
O19   O     O_3   0.995160 0.617270 0.936040 -0.283476
O20   O     O_3   0.004840 0.117270 0.063960 -0.283423
V3    V     V_3+5 0.000900 0.343280 0.011870 1.331800
V4    V     V_3+5 0.999100 0.843280 0.988130 1.331779
N1    N     N_R   0.187588 0.475058 0.799066 0.240324
O21   O     O_R   0.156863 0.574190 0.863030 -0.332030
O22   O     O_R   0.176946 0.531859 0.709491 -0.386244
N2    N     N_R   0.812415 0.975041 0.200924 0.240332
O23   O     O_R   0.843130 0.074189 0.136960 -0.331937
O24   O     O_R   0.823071 0.031829 0.290504 -0.386324
O25   O     O_3   0.287520 0.831534 0.709543 -0.692511
C29   C     C_3   0.347587 0.722952 0.673658 0.379801
H7    H     H_    0.364057 0.631058 0.731261 0.073325
H8    H     H_    0.416909 0.766730 0.674748 0.155066
C30   C     C_3   0.302561 0.667613 0.570866 -0.774035
H9    H     H_    0.290607 0.783064 0.521156 0.210831
H10   H     H_    0.344644 0.574060 0.541483 0.263975
H11   H     H_    0.236731 0.605692 0.569598 0.290962
O26   O     O_3   0.712431 0.331491 0.290411 -0.692523
C31   C     C_3   0.652350 0.222939 0.326295 0.379679
H12   H     H_    0.635849 0.131039 0.268691 0.073056
H13   H     H_    0.583040 0.266755 0.325223 0.155128
C32   C     C_3   0.697383 0.167602 0.429080 -0.773868
H14   H     H_    0.709459 0.283088 0.478776 0.210801
H15   H     H_    0.655229 0.074219 0.458500 0.263948
H16   H     H_    0.763159 0.105454 0.430305 0.290999
O27   O     O_3   0.104642 0.942749 0.706397 -0.667879
C33   C     C_3   0.074404 0.866542 0.613460 0.218058
H17   H     H_    0.128112 0.782752 0.593011 0.188890
H18   H     H_    0.055569 0.961953 0.553340 0.062666
C34   C     C_3   0.995390 0.748893 0.623170 -0.609990
H19   H     H_    0.935958 0.825921 0.637478 0.230511
H20   H     H_    0.977254 0.674273 0.554066 0.210413
H21   H     H_    0.015805 0.657789 0.685966 0.290445
O28   O     O_3   0.895338 0.442719 0.293594 -0.667891
C35   C     C_3   0.925557 0.366497 0.386529 0.218064
H22   H     H_    0.871839 0.282689 0.406962 0.188945
H23   H     H_    0.944384 0.461907 0.446657 0.062642
C36   C     C_3   0.004580 0.248871 0.376829 -0.609957
H24   H     H_    0.064002 0.325914 0.362503 0.230484
H25   H     H_    0.022734 0.174293 0.445939 0.210403
H26   H     H_    0.984174 0.157730 0.314046 0.290455
N3    N     N_R   0.288185 0.364390 0.936905 0.295739
O29   O     O_R   0.252132 0.308609 0.010724 -0.337537
O30   O     O_R   0.342204 0.499700 0.953923 -0.314622
N4    N     N_R   0.711820 0.864365 0.063084 0.295744
O31   O     O_R   0.747865 0.808551 0.989267 -0.337687
O32   O     O_R   0.657804 0.999673 0.046062 -0.314501
O33   O     O_3   0.413037 0.285732 0.832900 -0.557783
C37   C     C_3   0.478216 0.412246 0.818057 0.252787
H27   H     H_    0.472997 0.525709 0.865688 0.228088
H28   H     H_    0.474673 0.454781 0.741225 0.067897
C38   C     C_3   0.572057 0.337434 0.849527 -0.455767
H29   H     H_    0.582611 0.227936 0.801859 0.200765
H30   H     H_    0.622694 0.440275 0.840505 0.215007
H31   H     H_    0.580444 0.286855 0.926056 0.319550
O34   O     O_3   0.586958 0.785732 0.167079 -0.557739
C39   C     C_3   0.521776 0.912223 0.181944 0.252626
H32   H     H_    0.527060 0.025825 0.134418 0.227806
H33   H     H_    0.525277 0.954603 0.258798 0.067980
C40   C     C_3   0.427929 0.837457 0.150374 -0.455623
H34   H     H_    0.417315 0.727876 0.197968 0.200838
H35   H     H_    0.377305 0.940295 0.159427 0.215009
H36   H     H_    0.419571 0.787009 0.073817 0.319477
O35   O     O_3   0.071584 0.249090 0.686162 -0.591711
C41   C     C_3   0.980040 0.190813 0.672974 0.329663
H37   H     H_    0.968452 0.102392 0.733325 0.064211
H38   H     H_    0.959401 0.126248 0.600720 0.124853
C42   C     C_3   0.917224 0.348258 0.668165 -0.906987
H39   H     H_    0.926163 0.430254 0.605120 0.251142
H40   H     H_    0.845415 0.306418 0.651679 0.208055
H41   H     H_    0.930775 0.424883 0.737816 0.283354
O36   O     O_3   0.928407 0.749062 0.313836 -0.591704
C43   C     C_3   0.019948 0.690780 0.327039 0.329678
H42   H     H_    0.031541 0.602361 0.266687 0.064264
H43   H     H_    0.040571 0.626211 0.399292 0.124862
C44   C     C_3   0.082776 0.848220 0.331862 -0.907030
H44   H     H_    0.073827 0.930233 0.394900 0.251144
H45   H     H_    0.154581 0.806367 0.348361 0.208071
H46   H     H_    0.069242 0.924836 0.262211 0.283350
N5    N     N_R   0.198978 0.273822 0.558667 0.229220
O37   O     O_R   0.127817 0.375179 0.547586 -0.401559
O38   O     O_R   0.240992 0.261857 0.483660 -0.440383
N6    N     N_R   0.801015 0.773775 0.441332 0.229182
O39   O     O_R   0.872174 0.875146 0.452412 -0.401583
O40   O     O_R   0.759003 0.761799 0.516341 -0.440373
N7    N     N_R   0.303973 0.993646 0.950721 0.255045
O41   O     O_R   0.260720 0.923348 0.015283 -0.400634
O42   O     O_R   0.380219 0.076372 0.981565 -0.285106
N8    N     N_R   0.696048 0.493553 0.049261 0.255087
O43   O     O_R   0.739202 0.422676 0.984766 -0.400613
O44   O     O_R   0.619847 0.576395 0.018355 -0.285133
N9    N     N_R   0.421127 0.933126 0.819477 0.252476
O45   O     O_R   0.434428 0.812970 0.887661 -0.363518
O46   O     O_R   0.491394 0.982568 0.782712 -0.435046
N10   N     N_R   0.578825 0.433150 0.180502 0.252373
O47   O     O_R   0.565461 0.313227 0.112152 -0.363004
O48   O     O_R   0.508578 0.482548 0.217321 -0.435234

loop_
_geom_bond_atom_site_label_1
_geom_bond_atom_site_label_2
_geom_bond_distance
_ccdc_geom_bond_type
C29   H8    1.083597 S    
C3    C6    1.498664 S    
C36   H24   1.108325 S    
C23   O25   1.403140 S    
O26   C31   1.372186 S    
O34   C39   1.407186 S    
O1    C3    1.381039 A    
C44   H46   1.108759 S    
O2    C4    1.381011 A    
C43   H42   1.105061 S    
C2    O7    1.373472 A    
C39   H33   1.097719 S    
N3    O29   1.301325 A    
O15   V3    2.082319 S    
C42   H39   1.094995 S    
C34   H19   1.108345 S    
O20   V3    1.857052 S    
O5    C3    1.393466 A    
C9    C17   1.604582 S    
O13   V3    2.026822 S    
C12   C20   1.549710 S    
C10   C18   1.604579 S    
C10   C12   1.607980 S    
N9    O46   1.297186 A    
C13   O27   1.431471 S    
C12   H2    1.056535 S    
C22   H6    1.099269 S    
N7    O42   1.302756 A    
C42   H40   1.101553 S    
C29   C30   1.513899 S    
C40   H34   1.087759 S    
C1    C20   1.611183 S    
C15   H3    1.108361 S    
C16   N8    1.468286 S    
C2    C19   1.611173 S    
C39   C40   1.501666 S    
O13   C25   1.388550 A    
C30   H10   1.073316 S    
C39   H32   1.093831 S    
C20   C24   1.598853 S    
N2    O24   1.288839 A    
O11   V4    2.058739 S    
O11   C27   1.366552 A    
C26   O17   1.385620 A    
C11   O33   1.426448 S    
N9    O45   1.298639 A    
C40   H35   1.108547 S    
C31   C32   1.513863 S    
C4    C5    1.498676 S    
C38   H29   1.087672 S    
C21   N5    1.482426 S    
C14   O28   1.431493 S    
O17   V3    2.006674 S    
C41   C42   1.513299 S    
O5    V1    2.026908 S    
C29   H7    1.052019 S    
N1    O21   1.301568 A    
C36   H25   1.098769 S    
O14   V4    2.026889 S    
C38   H30   1.108576 S    
C12   O34   1.426483 S    
C14   C18   1.594633 S    
C37   H28   1.097714 S    
C37   H27   1.093692 S    
N3    O30   1.301216 A    
C41   H38   1.102381 S    
O27   C33   1.403373 S    
C34   H20   1.098801 S    
O18   V4    2.006712 S    
O14   C26   1.388560 A    
N1    O22   1.288854 A    
C10   N4    1.490694 S    
C31   H12   1.052077 S    
C16   H4    1.108373 S    
C13   C17   1.594619 S    
O16   V4    2.082303 S    
N5    O37   1.298064 A    
N8    O44   1.302827 A    
C7    C26   1.497061 S    
C42   H41   1.108762 S    
C44   H45   1.101566 S    
C32   H14   1.107096 S    
O4    V2    2.082211 S    
C30   H11   1.085963 S    
C19   C23   1.598747 S    
N2    O23   1.301571 A    
C24   O26   1.403120 S    
C10   N2    1.479597 S    
C9    N3    1.490699 S    
C35   H23   1.098240 S    
C14   C22   1.622103 S    
O12   V3    2.058742 S    
O6    C4    1.393490 A    
C40   H36   1.106997 S    
C15   N7    1.468343 S    
C15   C23   1.587728 S    
N4    O32   1.301226 A    
C22   N6    1.482434 S    
C32   H15   1.073378 S    
C24   N10   1.491658 S    
O1    V2    2.006719 S    
O16   C28   1.396886 A    
O2    V1    2.006681 S    
C31   H13   1.083579 S    
O4    C2    1.392396 A    
C33   H17   1.097965 S    
C36   H26   1.106765 S    
C11   C19   1.549640 S    
C9    C11   1.607982 S    
C38   H31   1.106988 S    
N10   O48   1.297237 A    
O19   V4    1.857018 S    
O36   C43   1.416051 S    
C43   C44   1.513302 S    
C18   C27   1.554189 S    
O3    V1    2.082227 S    
C41   H37   1.105060 S    
C35   C36   1.503541 S    
C34   H21   1.106774 S    
N5    O38   1.301842 A    
C16   C24   1.587756 S    
C19   C21   1.590307 S    
O10   V1    1.857409 S    
N8    O43   1.301357 A    
O3    C1    1.392415 A    
C43   H43   1.102384 S    
O35   C41   1.416051 S    
C14   O36   1.436631 S    
C9    N1    1.479604 S    
C25   O18   1.385635 A    
N6    O40   1.301850 A    
C13   O35   1.436634 S    
C33   C34   1.503514 S    
C33   H18   1.098222 S    
C20   C22   1.590285 S    
O7    V1    2.065840 S    
C1    O8    1.373469 A    
C15   C17   1.567445 S    
O8    V2    2.065834 S    
N7    O41   1.301172 A    
C16   C18   1.567437 S    
C32   H16   1.086103 S    
C35   H22   1.098047 S    
C13   C21   1.622132 S    
O15   C27   1.396874 A    
N4    O31   1.301331 A    
C5    C7    1.242882 T    
C6    C8    1.242878 T    
C11   H1    1.056465 S    
C17   C28   1.554177 S    
C21   H5    1.099274 S    
C30   H9    1.106934 S    
C8    C25   1.497059 S    
N6    O39   1.298066 A    
O12   C28   1.366525 A    
O6    V2    2.026976 S    
O25   C29   1.372197 S    
O9    V2    1.857375 S    
C23   N9    1.491570 S    
O33   C37   1.407161 S    
N10   O47   1.298974 A    
O28   C35   1.403397 S    
C37   C38   1.501588 S    
C44   H44   1.095000 S    
