data_mof_unit_20033.cif
_audit_creation_date              2013-03-05T16:00:48-0500
_audit_creation_method            fapswitch 2.2
_symmetry_space_group_name_H-M    P1
_symmetry_Int_Tables_number       1
_space_group_crystal_system       triclinic
_cell_length_a                    14.710042
_cell_length_b                    14.715828
_cell_length_c                    15.876005
_cell_angle_alpha                 76.969138
_cell_angle_beta                  102.693505
_cell_angle_gamma                 114.807816
_cell_volume                      3008.63900476

loop_
_atom_site_label
_atom_site_type_symbol
_atom_site_description
_atom_site_fract_x
_atom_site_fract_y
_atom_site_fract_z
_atom_type_partial_charge
O1    O     O_R   0.977910 0.338120 0.529720 -0.591425
O2    O     O_R   0.839850 0.379180 0.491640 -0.586167
C1    C     C_R   0.880343 0.312338 0.513806 0.800304
O3    O     O_R   0.069060 0.479460 0.639610 -0.575943
O4    O     O_R   0.931000 0.520530 0.601530 -0.578524
C2    C     C_R   0.999632 0.499994 0.659640 0.827023
Cu1   Cu    Cu3+1 0.081750 0.475690 0.522550 0.940491
Cu2   Cu    Cu3+1 0.918250 0.524310 0.477450 0.948981
O5    O     O_R   0.160150 0.620820 0.508360 -0.591214
O6    O     O_R   0.022090 0.661880 0.470280 -0.592929
O7    O     O_R   0.069000 0.479470 0.398470 -0.581041
O8    O     O_R   0.930940 0.520540 0.360390 -0.566435
C3    C     C_R   0.119676 0.687678 0.484956 0.791082
C4    C     C_R   0.000341 0.499971 0.340368 0.831809
C5    C     C_3   0.048854 0.428760 0.975452 -0.366632
C6    C     C_3   0.888182 0.460133 0.936413 -0.423220
C7    C     C_3   0.888292 0.462081 0.034049 0.229890
H1    H     H_    0.017602 0.352907 0.107963 0.213728
H2    H     H_    0.005985 0.349770 0.961373 0.186482
H3    H     H_    0.849733 0.508842 0.894209 0.143225
H4    H     H_    0.844674 0.382436 0.919464 0.205104
H5    H     H_    0.857267 0.518874 0.035846 0.093402
C8    C     C_1   0.000831 0.499567 0.250882 -0.141887
C9    C     C_3   0.998127 0.499137 0.916940 0.261584
C10   C     C_3   0.052421 0.431019 0.073211 -0.345466
C11   C     C_3   0.999069 0.498661 0.082924 0.201439
C12   C     C_3   0.057865 0.607447 0.038360 -0.460879
C13   C     C_3   0.057130 0.607628 0.940499 -0.379034
C14   C     C_1   0.000459 0.499215 0.175322 -0.055333
C15   C     C_1   0.998301 0.499598 0.824709 -0.085142
C16   C     C_1   0.998730 0.499876 0.749169 -0.175107
H6    H     H_    0.136343 0.637225 0.926676 0.178485
H7    H     H_    0.021638 0.659453 0.899483 0.170409
H8    H     H_    0.137426 0.637010 0.071360 0.187896
H9    H     H_    0.127126 0.453258 0.960970 0.166334
H10   H     H_    0.132798 0.461590 0.104147 0.159738
H11   H     H_    0.023080 0.659481 0.044272 0.169712
C17   C     C_R   0.812657 0.205092 0.515887 -0.048882
C18   C     C_R   0.187345 0.795229 0.473306 -0.051046
C19   C     C_R   0.783132 0.030033 0.518672 -0.191045
C20   C     C_R   0.850017 0.129994 0.523398 -0.187582
C21   C     C_R   0.708225 0.179033 0.504887 -0.234590
C22   C     C_R   0.639101 0.079835 0.495730 0.093529
C23   C     C_R   0.678261 0.004459 0.504714 0.163368
C24   C     C_R   0.532548 0.053477 0.478905 0.065999
C25   C     C_R   0.466463 0.949784 0.479909 0.065754
C26   C     C_R   0.508738 0.877216 0.487557 -0.216838
C27   C     C_R   0.612578 0.904464 0.499172 -0.222650
C28   C     C_R   0.489913 0.127433 0.459089 -0.210416
C29   C     C_R   0.386025 0.100316 0.445447 -0.222646
C30   C     C_R   0.320689 0.998844 0.452758 0.162131
C31   C     C_R   0.360129 0.922434 0.471468 0.089252
C32   C     C_R   0.215935 0.972941 0.441971 -0.194413
C33   C     C_R   0.149545 0.871682 0.451517 -0.195112
C34   C     C_R   0.291752 0.821047 0.483668 -0.252981
H12   H     H_    0.641644 0.846490 0.504353 0.151441
H13   H     H_    0.318233 0.760480 0.503802 0.151340
H14   H     H_    0.068986 0.853348 0.442939 0.153436
H15   H     H_    0.356673 0.159432 0.430189 0.150471
H16   H     H_    0.813384 0.972797 0.524890 0.134198
H17   H     H_    0.930623 0.148589 0.531961 0.154069
H18   H     H_    0.682741 0.237736 0.504682 0.143845
H19   H     H_    0.463615 0.798694 0.482080 0.141285
H20   H     H_    0.534548 0.207651 0.450905 0.149495
H21   H     H_    0.185411 0.031135 0.426639 0.136383
N1    N     N_R   0.795410 0.560790 0.443550 -0.177265
N2    N     N_R   0.204590 0.439170 0.556520 -0.177461
C35   C     C_R   0.717987 0.671862 0.358898 -0.315078
C36   C     C_R   0.798561 0.640941 0.380414 0.087132
C37   C     C_R   0.713889 0.507956 0.486989 0.012502
C38   C     C_R   0.628726 0.535126 0.467805 -0.020841
C39   C     C_R   0.633211 0.619769 0.402631 0.162221
C40   C     C_R   0.540709 0.482756 0.511149 0.076251
C41   C     C_R   0.459261 0.517221 0.488844 0.079660
C42   C     C_R   0.468752 0.602962 0.424255 -0.240083
C43   C     C_R   0.553730 0.652612 0.381985 -0.200229
C44   C     C_R   0.531278 0.397101 0.575828 -0.236098
C45   C     C_R   0.446512 0.347751 0.618390 -0.191501
C46   C     C_R   0.366999 0.380540 0.597701 0.161671
C47   C     C_R   0.371265 0.464871 0.532222 -0.022244
C48   C     C_R   0.282407 0.328685 0.641693 -0.315886
C49   C     C_R   0.201735 0.359455 0.620062 0.080015
C50   C     C_R   0.285962 0.491820 0.512864 0.010195
H22   H     H_    0.557450 0.718010 0.332740 0.148469
H23   H     H_    0.281207 0.552922 0.462542 0.121761
H24   H     H_    0.135868 0.318812 0.653249 0.126395
H25   H     H_    0.442963 0.282603 0.667890 0.146815
H26   H     H_    0.722286 0.736669 0.308845 0.143339
H27   H     H_    0.864573 0.681786 0.347434 0.125520
H28   H     H_    0.718437 0.446555 0.537032 0.121128
H29   H     H_    0.411699 0.634283 0.404763 0.129537
H30   H     H_    0.588286 0.365718 0.595285 0.132702
H31   H     H_    0.278325 0.264176 0.692035 0.140631
N3    N     N_R   0.822405 0.363474 0.076128 0.130459
O9    O     O_R   0.749481 0.357874 0.113489 -0.351597
O10   O     O_R   0.832139 0.280466 0.072864 -0.376653

loop_
_geom_bond_atom_site_label_1
_geom_bond_atom_site_label_2
_geom_bond_distance
_ccdc_geom_bond_type
C45   H25   1.084297 S    
C44   H30   1.076457 S    
Cu2   N1    2.024688 S    
C6    H4    1.112789 S    
C19   H16   1.083940 S    
C40   C41   1.435470 A    
C20   H17   1.083026 S    
C39   C43   1.393667 A    
C43   H22   1.084316 S    
C48   C49   1.390279 A    
Cu1   Cu2   2.695412 S    
N1    C37   1.362865 A    
C44   C45   1.388490 A    
C5    H2    1.113067 S    
C11   C12   1.551673 S    
C29   H15   1.084483 S    
C8    C14   1.199567 T    
C6    H3    1.113424 S    
C17   C21   1.398361 A    
O3    Cu1   1.923377 S    
C26   H19   1.076892 S    
C15   C16   1.199754 T    
O7    C4    1.297193 A    
C5    C10   1.548754 S    
C18   C33   1.399836 A    
C25   C31   1.424957 A    
Cu1   O5    1.942258 S    
O5    C3    1.300006 A    
C18   C34   1.399176 A    
C1    C17   1.468161 S    
C6    C7    1.556421 S    
C37   C38   1.421177 A    
C32   H21   1.083923 S    
C21   H18   1.075523 S    
C31   C34   1.404010 A    
C42   H29   1.076431 S    
C2    C16   1.423939 S    
C6    C9    1.549633 S    
C28   H20   1.076762 S    
C41   C47   1.434918 A    
C37   H28   1.075057 S    
H1    C10   1.110035 S    
C47   C50   1.421069 A    
C36   H27   1.081707 S    
C5    H9    1.113183 S    
C12   H8    1.113336 S    
C41   C42   1.412305 A    
C30   C31   1.417845 A    
C13   H6    1.113110 S    
C17   C20   1.399643 A    
O3    C2    1.296341 A    
C46   C48   1.401177 A    
C45   C46   1.393574 A    
C35   C36   1.390360 A    
C10   C11   1.551944 S    
C32   C33   1.392547 A    
C35   C39   1.401126 A    
O1    C1    1.301749 A    
C4    C8    1.423648 S    
Cu1   O7    1.927623 S    
C42   C43   1.388488 A    
C48   H31   1.083829 S    
C26   C27   1.386937 A    
C24   C28   1.417186 A    
Cu2   O8    1.923379 S    
C29   C30   1.390501 A    
N2    C50   1.362942 A    
N3    O10   1.301494 A    
C22   C24   1.425158 A    
C11   C14   1.464364 S    
C19   C20   1.392962 A    
C50   H23   1.075144 S    
O8    C4    1.296225 A    
C13   H7    1.113105 S    
C34   H13   1.075389 S    
C22   C23   1.418204 A    
C35   H26   1.083832 S    
C21   C22   1.403984 A    
C7    C11   1.563274 S    
C38   C40   1.434867 A    
C33   H14   1.083038 S    
C27   H12   1.084629 S    
C25   C26   1.416845 A    
C5    C9    1.549946 S    
O1    Cu1   1.955036 S    
O2    Cu2   1.942258 S    
C9    C13   1.551107 S    
O6    C3    1.301784 A    
O4    Cu2   1.927623 S    
C7    H5    1.115418 S    
O2    C1    1.299859 A    
C38   C39   1.416448 A    
C49   H24   1.081695 S    
O4    C2    1.297175 A    
C12   H11   1.113228 S    
N3    O9    1.301050 A    
C9    C15   1.463310 S    
C3    C18   1.468623 S    
C10   H10   1.113392 S    
Cu1   N2    2.025043 S    
C46   C47   1.416407 A    
N1    C36   1.356254 A    
C24   C25   1.422945 A    
C19   C23   1.403817 A    
N2    C49   1.356155 A    
Cu2   O6    1.955036 S    
C28   C29   1.386843 A    
C12   C13   1.550706 S    
C40   C44   1.412321 A    
C7    N3    1.469185 S    
C30   C32   1.403451 A    
C23   C27   1.390890 A    
