data_mof_unit_41020.cif
_audit_creation_date              2013-03-05T15:54:00-0500
_audit_creation_method            fapswitch 2.2
_symmetry_space_group_name_H-M    P1
_symmetry_Int_Tables_number       1
_space_group_crystal_system       triclinic
_cell_length_a                    15.739912
_cell_length_b                    10.683122
_cell_length_c                    9.894285
_cell_angle_alpha                 89.403792
_cell_angle_beta                  89.986796
_cell_angle_gamma                 91.54893
_cell_volume                      1663.0396965

loop_
_atom_site_label
_atom_site_type_symbol
_atom_site_description
_atom_site_fract_x
_atom_site_fract_y
_atom_site_fract_z
_atom_type_partial_charge
O1    O     O_R   0.500000 0.316780 0.614690 -0.670407
O2    O     O_R   0.499990 0.316750 0.385360 -0.645883
C1    C     C_R   0.504780 0.259460 0.501544 0.847615
O3    O     O_R   0.377150 0.500020 0.614720 -0.600659
O4    O     O_R   0.377140 0.499990 0.385380 -0.618825
C2    C     C_R   0.338370 0.499004 0.500034 0.899324
Zn1   Zn    Zn3+2 0.500010 0.500020 0.653130 1.030498
Zn2   Zn    Zn3+2 0.499990 0.499980 0.346870 0.971521
O5    O     O_R   0.500010 0.683250 0.614640 -0.564017
O6    O     O_R   0.500000 0.683220 0.385310 -0.625476
O7    O     O_R   0.622860 0.500010 0.614620 -0.571653
O8    O     O_R   0.622850 0.499980 0.385280 -0.610370
C3    C     C_R   0.489466 0.738456 0.499711 0.924371
C4    C     C_R   0.661666 0.500410 0.499929 0.909602
C5    C     C_3   0.048708 0.457549 0.633681 -0.495900
C6    C     C_3   0.047571 0.414908 0.386987 0.379411
C7    C     C_3   0.949681 0.422506 0.380924 0.425393
H1    H     H_    0.926227 0.358353 0.653472 0.232205
H2    H     H_    0.070518 0.360436 0.651786 0.198544
H3    H     H_    0.064998 0.317726 0.415344 0.156061
H4    H     H_    0.930474 0.464067 0.282278 0.162503
C8    C     C_1   0.750607 0.501811 0.499758 -0.127628
C9    C     C_3   0.082944 0.507577 0.495183 -0.082670
C10   C     C_3   0.950843 0.455655 0.634545 -0.350075
C11   C     C_3   0.917515 0.505208 0.497582 0.027329
C12   C     C_3   0.951691 0.641415 0.476849 -0.577695
C13   C     C_3   0.051289 0.644556 0.462891 0.502308
C14   C     C_1   0.825957 0.503355 0.499060 0.055277
C15   C     C_1   0.174409 0.503845 0.497900 0.101577
C16   C     C_1   0.249603 0.500966 0.499603 -0.034659
H5    H     H_    0.931622 0.698087 0.564456 0.240929
H6    H     H_    0.074255 0.512616 0.719631 0.279867
H7    H     H_    0.928108 0.514461 0.718763 0.225571
H8    H     H_    0.919229 0.685136 0.389496 0.221738
H9    H     H_    0.506099 0.112981 0.285917 0.170536
C17   C     C_R   0.520734 0.103858 0.757538 -0.147856
H10   H     H_    0.560442 0.187104 0.768709 0.178841
C18   C     C_R   0.496314 0.040669 0.875775 -0.197829
H11   H     H_    0.513245 0.079181 0.973237 0.161361
C19   C     C_R   0.446103 0.931941 0.868553 -0.172848
H12   H     H_    0.421385 0.889960 0.961063 0.181005
C20   C     C_R   0.427168 0.878794 0.742718 0.344402
C21   C     C_R   0.463616 0.934123 0.623527 -0.005486
C22   C     C_R   0.497070 0.056448 0.629330 0.052465
C23   C     C_R   0.505364 0.124636 0.505602 -0.082117
C24   C     C_R   0.499215 0.063395 0.381584 -0.202928
H13   H     H_    0.490504 0.889516 0.282632 0.174528
C25   C     C_R   0.486804 0.936294 0.379052 -0.178400
C26   C     C_R   0.473497 0.870441 0.500001 -0.069347
H14   H     H_    0.593849 0.642565 0.124026 0.179417
C27   C     C_R   0.389195 0.334850 0.141834 -0.111167
H15   H     H_    0.384525 0.329844 0.248952 0.198378
C28   C     C_R   0.335162 0.252994 0.072296 -0.156386
H16   H     H_    0.292784 0.189355 0.127439 0.181711
C29   C     C_R   0.335206 0.253127 0.932468 -0.156286
H17   H     H_    0.293063 0.189346 0.878520 0.174476
C30   C     C_R   0.389381 0.334981 0.861399 -0.095577
H18   H     H_    0.385498 0.329545 0.754328 0.195416
C31   C     C_R   0.445574 0.418472 0.928475 0.066078
C32   C     C_R   0.445540 0.418492 0.073178 0.146718
N1    N     N_R   0.499210 0.498800 0.142780 -0.147135
C33   C     C_R   0.551694 0.578488 0.070707 -0.208251
C34   C     C_R   0.551708 0.578553 0.927471 0.675669
N2    N     N_R   0.499180 0.498720 0.857170 -0.164707
N3    N     N_R   0.364666 0.778227 0.735716 0.216093
O9    O     O_R   0.314720 0.769069 0.631293 -0.363037
O10   O     O_R   0.349819 0.705863 0.840203 -0.367561
F1    F     F_    0.604539 0.659161 0.859379 -0.642132
F2    F     F_    0.082484 0.438929 0.260336 -0.606481
F3    F     F_    0.913429 0.302829 0.389772 -0.646442
N4    N     N_R   0.087685 0.736924 0.559207 0.217184
O11   O     O_R   0.067607 0.732181 0.686808 -0.360296
O12   O     O_R   0.133147 0.832854 0.516040 -0.281117
N5    N     N_R   0.078010 0.681877 0.323595 0.255081
O13   O     O_R   0.158483 0.694052 0.294104 -0.280966
O14   O     O_R   0.023322 0.699567 0.226972 -0.340734

loop_
_geom_bond_atom_site_label_1
_geom_bond_atom_site_label_2
_geom_bond_distance
_ccdc_geom_bond_type
C29   H17   1.082807 S    
C5    H6    1.108491 S    
C28   H16   1.082783 S    
C11   C14   1.440789 S    
C5    H2    1.114311 S    
C31   N2    1.375740 A    
C15   C16   1.184904 T    
N5    O14   1.302329 A    
H1    C10   1.113494 S    
C9    C15   1.441521 S    
C17   H10   1.079707 S    
O4    C2    1.287826 A    
O7    C4    1.288516 A    
C30   C31   1.410062 A    
O5    C3    1.288367 A    
C12   H8    1.109477 S    
C6    C7    1.546256 S    
N3    O10   1.301740 A    
C20   N3    1.439209 S    
C9    C13   1.587938 S    
C13   N5    1.488159 S    
C6    H3    1.114096 S    
Zn2   N1    2.019533 S    
C19   C20   1.402524 A    
C31   C32   1.431732 A    
C8    C14   1.185690 T    
O3    Zn1   1.970883 S    
C28   C29   1.383487 A    
C24   C25   1.367068 A    
N5    O13   1.302510 A    
C27   H15   1.063075 S    
C10   C11   1.546700 S    
O3    C2    1.288620 A    
N4    O12   1.302237 A    
C21   C26   1.415537 A    
C11   C12   1.549260 S    
C23   C24   1.398731 A    
C1    C23   1.440758 S    
C7    H4    1.113336 S    
C32   N1    1.377437 A    
O1    C1    1.284768 A    
Zn1   O7    1.970749 S    
C21   C22   1.397393 A    
C33   C34   1.417212 A    
H13   C25   1.083846 S    
Zn2   O8    1.970881 S    
C12   C13   1.573131 S    
C5    C10   1.539995 S    
C3    C26   1.438946 S    
C19   H12   1.082676 S    
C2    C16   1.397909 S    
O8    C4    1.288548 A    
C6    C9    1.558403 S    
C29   C30   1.390273 A    
H14   C33   1.081808 S    
C17   C22   1.416964 A    
C20   C21   1.426926 A    
C13   N4    1.483026 S    
C22   C23   1.422181 A    
Zn1   O5    1.990276 S    
C34   F1    1.354951 S    
C25   C26   1.394742 A    
O1    Zn1   1.998058 S    
O2    Zn2   1.990277 S    
C6    F2    1.386902 S    
O6    C3    1.294620 A    
O4    Zn2   1.970749 S    
C10   H7    1.113543 S    
C7    C11   1.553816 S    
C4    C8    1.399604 S    
C17   C18   1.393336 A    
O2    C1    1.299867 A    
N4    O11   1.301552 A    
C18   C19   1.389616 A    
C30   H18   1.063262 S    
C18   H11   1.082884 S    
C5    C9    1.556508 S    
N1    C33   1.365569 A    
Zn1   N2    2.018771 S    
C34   N2    1.367216 A    
C12   H5    1.113021 S    
Zn2   O6    1.998058 S    
N3    O9    1.301313 A    
C27   C32   1.410906 A    
C27   C28   1.390681 A    
H9    C24   1.083849 S    
C7    F3    1.387835 S    
