data_mof_unit_31675.cif
_audit_creation_date              2012-12-10T16:51:01-0500
_audit_creation_method            fapswitch 2.2
_symmetry_space_group_name_H-M    P1
_symmetry_Int_Tables_number       1
_space_group_crystal_system       triclinic
_cell_length_a                    7.960569
_cell_length_b                    8.539207
_cell_length_c                    10.658031
_cell_angle_alpha                 92.564201
_cell_angle_beta                  84.366765
_cell_angle_gamma                 92.982981
_cell_volume                      719.451881439

loop_
_atom_site_label
_atom_site_type_symbol
_atom_type_description
_atom_site_fract_x
_atom_site_fract_y
_atom_site_fract_z
_atom_type_partial_charge
C1    C     C_R   0.543531 0.793494 0.495681 0.919668
C2    C     C_R   0.940895 0.394386 0.024906 -0.138974
C3    C     C_R   0.037818 0.514224 0.082682 -0.110773
C4    C     C_R   0.962182 0.485776 0.917318 -0.110773
C5    C     C_R   0.180966 0.465408 0.132334 -0.159712
C6    C     C_R   0.819034 0.534592 0.867666 -0.159712
C7    C     C_R   0.343156 0.492206 0.071003 0.090619
C8    C     C_R   0.656844 0.507794 0.928997 0.090619
C9    C     C_R   0.358870 0.558708 0.953161 0.079385
C10   C     C_R   0.641130 0.441292 0.046839 0.079385
C11   C     C_R   0.489640 0.454059 0.124180 -0.210242
C12   C     C_R   0.456468 0.206506 0.504318 0.919668
C13   C     C_R   0.510360 0.545941 0.875820 -0.210242
C14   C     C_2   0.558595 0.953202 0.470911 0.127914
C15   C     C_2   0.441405 0.046798 0.529089 0.127914
C16   C     C_R   0.503683 0.520604 0.739571 0.861868
C17   C     C_R   0.496317 0.479396 0.260429 0.861868
C18   C     C_R   0.221880 0.636453 0.916710 -0.150301
C19   C     C_R   0.778120 0.363547 0.083289 -0.150301
C20   C     C_R   0.059105 0.605614 0.975094 -0.138974
Cl1   Cl    Cl    0.697157 0.003256 0.336136 -0.561169
Cl2   Cl    Cl    0.302843 0.996744 0.663864 -0.561169
Cl3   Cl    Cl    0.009520 0.270304 0.424622 -0.430520
Cl4   Cl    Cl    0.990480 0.729696 0.575378 -0.430520
H1    H     H_    0.034045 0.426879 0.837923 0.205325
H2    H     H_    0.965955 0.573121 0.162077 0.205325
H3    H     H_    0.238310 0.715944 0.839490 0.213438
H4    H     H_    0.761690 0.284056 0.160510 0.213438
H5    H     H_    0.997611 0.717224 0.986893 0.188196
H6    H     H_    0.002389 0.282776 0.013107 0.188196
H7    H     H_    0.160774 0.388005 0.210045 0.207816
H8    H     H_    0.839225 0.611995 0.789955 0.207816
N1    N     N_2   0.950330 0.457950 0.466250 0.113454
N2    N     N_2   0.049670 0.542050 0.533750 0.113454
O1    O     O_R   0.389250 0.738570 0.508280 -0.566520
O2    O     O_R   0.610750 0.261430 0.491720 -0.566520
O3    O     O_R   0.678390 0.711630 0.486650 -0.547941
O4    O     O_R   0.321610 0.288370 0.513350 -0.547941
O5    O     O_R   0.355430 0.513480 0.694040 -0.615625
O6    O     O_R   0.644570 0.486520 0.305960 -0.615625
O7    O     O_R   0.644570 0.486540 0.672410 -0.616631
O8    O     O_R   0.355430 0.513460 0.327590 -0.616631
Zn1   Zn    Zn3+2 0.306940 0.517990 0.514440 1.100726
Zn2   Zn    Zn3+2 0.693060 0.482010 0.485560 1.100726

loop_
_geom_bond_atom_site_label_1
_geom_bond_atom_site_label_2
_ccdc_geom_bond_type
C6    H8    S    
C5    C7    A    
C8    C13   A    
C2    C3    A    
C12   O2    A    
O1    Zn1   S    
O6    Zn2   S    
C2    C4    A    
C12   C15   S    
C1    O3    A    
C10   C19   A    
C2    H6    S    
O3    Zn2   S    
N1    N2    D    
C3    C20   A    
C7    C11   A    
C19   H4    S    
C6    C8    A    
C14   Cl1   S    
C4    C6    A    
C4    H1    S    
C18   C20   A    
C20   H5    S    
C3    H2    S    
C12   O4    A    
O7    Zn2   S    
O2    Zn2   S    
C10   C11   A    
C18   H3    S    
C16   O5    A    
C4    C20   A    
C3    C5    A    
C9    C18   A    
O4    Zn1   S    
C1    O1    A    
C8    C10   A    
O8    Zn1   S    
C13   C16   S    
C7    C9    A    
C9    C13   A    
C17   O8    A    
C11   C17   S    
O5    Zn1   S    
C1    C14   S    
C5    H7    S    
C2    C19   A    
C14   C15   D    
N1    Zn2   S    
C16   O7    A    
C15   Cl2   S    
Cl4   N2    S    
N2    Zn1   S    
Cl3   N1    S    
C17   O6    A    
