data_mof_unit_47994.cif
_audit_creation_date              2013-03-05T16:44:35-0500
_audit_creation_method            fapswitch 2.2
_symmetry_space_group_name_H-M    P1
_symmetry_Int_Tables_number       1
_space_group_crystal_system       triclinic
_cell_length_a                    27.700633
_cell_length_b                    10.657498
_cell_length_c                    9.901441
_cell_angle_alpha                 89.530773
_cell_angle_beta                  88.665617
_cell_angle_gamma                 89.793645
_cell_volume                      2922.19016794

loop_
_atom_site_label
_atom_site_type_symbol
_atom_site_description
_atom_site_fract_x
_atom_site_fract_y
_atom_site_fract_z
_atom_type_partial_charge
O1    O     O_R   0.500010 0.316790 0.614690 -0.626255
O2    O     O_R   0.500000 0.316760 0.385350 -0.616764
C1    C     C_R   0.502475 0.260718 0.500511 0.959859
O3    O     O_R   0.428760 0.500040 0.614660 -0.602333
O4    O     O_R   0.428750 0.500000 0.385310 -0.556069
C2    C     C_R   0.406218 0.499647 0.501416 1.078551
Zn1   Zn    Zn3+2 0.500000 0.500020 0.653130 1.019037
Zn2   Zn    Zn3+2 0.500000 0.499980 0.346870 1.085129
O5    O     O_R   0.500000 0.683240 0.614650 -0.588123
O6    O     O_R   0.499990 0.683210 0.385310 -0.606484
O7    O     O_R   0.571250 0.500000 0.614690 -0.633619
O8    O     O_R   0.571240 0.499960 0.385340 -0.555131
C3    C     C_R   0.501427 0.739592 0.499325 0.899742
C4    C     C_R   0.594077 0.503268 0.498586 1.000192
C5    C     C_R   0.176530 0.395182 0.497208 0.611400
O9    O     O_2   0.200668 0.286133 0.479099 -0.506316
N1    N     N_R   0.201221 0.504121 0.517846 -0.313202
C6    C     C_R   0.177422 0.615264 0.539034 0.645807
C7    C     C_R   0.278292 0.579769 0.421081 0.654088
C8    C     C_R   0.328439 0.580221 0.418723 0.574158
C9    C     C_R   0.328430 0.419681 0.594215 0.590135
C10   C     C_R   0.278282 0.423306 0.600679 -0.200540
C11   C     C_R   0.252941 0.502726 0.513734 -0.065819
C12   C     C_R   0.101476 0.512221 0.498415 -0.065228
C13   C     C_R   0.126135 0.396791 0.491919 -0.139550
C14   C     C_R   0.099928 0.285625 0.485192 -0.161812
C15   C     C_R   0.127280 0.621891 0.526476 -0.033359
C16   C     C_R   0.353713 0.499695 0.504763 -0.432984
H1    H     H_    0.259038 0.363381 0.672321 0.238808
H2    H     H_    0.117694 0.195208 0.493143 0.220067
C17   C     C_R   0.647185 0.511063 0.492629 -0.194619
C18   C     C_R   0.975871 0.410593 0.425313 0.064100
C19   C     C_R   0.975861 0.639285 0.466577 -0.185304
C20   C     C_R   0.950661 0.525429 0.445492 0.009134
C21   C     C_R   0.949957 0.306962 0.373274 -0.033993
C22   C     C_R   0.899710 0.305217 0.387588 -0.146980
C23   C     C_R   0.874505 0.413229 0.426164 0.005918
C24   C     C_R   0.899653 0.526240 0.442931 -0.130879
C25   C     C_R   0.873734 0.639467 0.457378 -0.298828
C26   C     C_R   0.823075 0.635742 0.462293 0.742764
N2    N     N_R   0.799648 0.523329 0.456012 -0.332181
C27   C     C_R   0.824192 0.413025 0.438576 0.599455
C28   C     C_R   0.720572 0.487775 0.353502 -0.102831
C29   C     C_R   0.670655 0.478543 0.370544 -0.181949
C30   C     C_R   0.674875 0.551924 0.602484 -0.188692
C31   C     C_R   0.725302 0.551570 0.588932 0.664551
C32   C     C_R   0.748055 0.521347 0.465437 0.072028
O10   O     O_2   0.799844 0.303765 0.432616 -0.501247
C33   C     C_R   0.025569 0.404682 0.455483 -0.065877
C34   C     C_R   0.051006 0.517427 0.479056 0.025208
C35   C     C_R   0.026413 0.634494 0.487778 0.127997
C36   C     C_R   0.050070 0.289161 0.475455 0.627361
H3    H     H_    0.649835 0.448230 0.286058 0.277260
H4    H     H_    0.879992 0.222803 0.357258 0.237466
O11   O     O_2   0.202295 0.719035 0.571531 -0.485084
C37   C     C_R   0.102494 0.734836 0.544217 -0.134671
H5    H     H_    0.121220 0.819428 0.572457 0.210564
C38   C     C_R   0.949184 0.753373 0.461778 0.524524
C39   C     C_R   0.899017 0.752900 0.461376 0.658142
O12   O     O_2   0.797223 0.742884 0.473369 -0.412262
C40   C     C_R   0.052920 0.740525 0.528350 -0.105742
H6    H     H_    0.036431 0.828540 0.555022 0.240816
C41   C     C_R   0.485165 0.063566 0.606251 -0.005963
C42   C     C_R   0.509225 0.129155 0.503976 -0.098567
C43   C     C_R   0.539747 0.066482 0.409691 -0.136277
C44   C     C_R   0.538767 0.934392 0.407885 -0.086560
C45   C     C_R   0.507052 0.871503 0.499609 -0.081755
C46   C     C_R   0.482928 0.936517 0.601483 -0.034258
C47   C     C_3   0.430967 0.933844 0.648540 -0.391464
C48   C     C_3   0.434222 0.076227 0.658141 0.479768
H7    H     H_    0.426040 0.887249 0.748835 0.179515
H8    H     H_    0.431880 0.112322 0.763112 0.100173
C49   C     C_R   0.458750 0.524121 0.073985 0.074435
N3    N     N_R   0.499670 0.499140 0.142800 -0.195466
C50   C     C_R   0.541337 0.479013 0.068422 0.660903
C51   C     C_R   0.541263 0.478751 0.925341 -0.189616
H9    H     H_    0.574395 0.458839 0.869885 0.200536
N4    N     N_R   0.499670 0.499180 0.857150 -0.144788
C52   C     C_R   0.458853 0.527589 0.931308 0.072316
C53   C     C_3   0.412174 0.457538 0.927453 -0.383866
C54   C     C_3   0.414081 0.446439 0.080431 0.423789
H10   H     H_    0.415465 0.366023 0.874796 0.166442
H11   H     H_    0.420496 0.349347 0.118124 0.098003
F1    F     F_    0.352174 0.336862 0.673706 -0.601913
F2    F     F_    0.254292 0.654402 0.333223 -0.560018
F3    F     F_    0.970482 0.867018 0.446260 -0.582342
C55   C     C_2   0.652770 0.603163 0.728325 1.020750
O13   O     O_2   0.667204 0.568222 0.838263 -0.528314
O14   O     O_R   0.616762 0.695165 0.721082 -0.758867
H12   H     H_    0.604640 0.722990 0.813528 0.356498
F4    F     F_    0.875552 0.865087 0.461546 -0.528814
F5    F     F_    0.752757 0.585635 0.694544 -0.601783
C56   C     C_2   0.573124 0.138327 0.318773 0.974856
O15   O     O_2   0.601716 0.211733 0.366901 -0.612055
O16   O     O_R   0.571018 0.124725 0.178807 -0.733379
H13   H     H_    0.595219 0.179845 0.128200 0.379887
C57   C     C_2   0.571616 0.862554 0.316616 0.969683
O17   O     O_2   0.567544 0.870396 0.194192 -0.550382
O18   O     O_R   0.606385 0.783253 0.371746 -0.783932
H14   H     H_    0.626422 0.738391 0.299907 0.361006
C58   C     C_2   0.396598 0.889476 0.542854 1.107335
O19   O     O_2   0.363077 0.820916 0.575963 -0.605914
O20   O     O_R   0.402560 0.928684 0.408256 -0.720180
H15   H     H_    0.376399 0.895894 0.348199 0.401240
F6    F     F_    0.405331 0.141210 0.568682 -0.580593
F7    F     F_    0.583093 0.453578 0.130751 -0.648287
C59   C     C_2   0.370530 0.537643 0.881321 1.170430
O21   O     O_2   0.329299 0.498313 0.895563 -0.540315
O22   O     O_R   0.378681 0.656934 0.825919 -0.791238
H16   H     H_    0.347480 0.701765 0.803887 0.368971
F8    F     F_    0.376577 0.506887 0.147704 -0.559513
C60   C     C_2   0.742848 0.464665 0.217537 1.038091
O23   O     O_2   0.721984 0.399466 0.136327 -0.534553
O24   O     O_R   0.786980 0.519786 0.180350 -0.793759
H17   H     H_    0.798069 0.497107 0.085321 0.377169
C61   C     C_2   0.972796 0.211658 0.282816 1.045416
O25   O     O_2   0.954844 0.107514 0.272798 -0.498299
O26   O     O_R   0.014078 0.242490 0.205689 -0.797803
H18   H     H_    0.026097 0.170267 0.147846 0.367719
F9    F     F_    0.026054 0.179790 0.497078 -0.632023
F10   F     F_    0.352255 0.662073 0.335635 -0.561607

loop_
_geom_bond_atom_site_label_1
_geom_bond_atom_site_label_2
_geom_bond_distance
_ccdc_geom_bond_type
C55   O13   1.223120 D    
C19   C38   1.421585 A    
C26   O12   1.349520 S    
C10   H1    1.082877 S    
N2    C27   1.366057 A    
O16   H13   1.013888 S    
C35   C40   1.415853 A    
C12   C15   1.405286 A    
C4    C17   1.473549 S    
C28   C29   1.392819 A    
C60   O24   1.398505 S    
O24   H17   1.013831 S    
C30   C31   1.400181 A    
C61   O25   1.223572 D    
Zn1   O7    2.001312 S    
C53   C59   1.509720 S    
C58   O19   1.220815 D    
C44   C57   1.482837 S    
C22   C23   1.395531 A    
C30   C55   1.482854 S    
C51   N4    1.364832 A    
O4    C2    1.295265 A    
O7    C4    1.299329 A    
C5    C13   1.398204 A    
C31   F5    1.359759 S    
C5    O9    1.349872 S    
C57   O17   1.222180 D    
C37   H5    1.083650 S    
Zn1   O5    1.986425 S    
C49   N3    1.360438 A    
C23   C27   1.396245 A    
C47   H7    1.112423 S    
O5    C3    1.285683 A    
O26   H18   1.013814 S    
C54   H11   1.112221 S    
C41   C46   1.356932 A    
C29   H3    1.079364 S    
C2    C16   1.454015 S    
C54   F8    1.381301 S    
C61   O26   1.398858 S    
C46   C47   1.502830 S    
C59   O21   1.222716 D    
C41   C48   1.496507 S    
C43   C56   1.485425 S    
C44   C45   1.415253 A    
C58   O20   1.399694 S    
O1    Zn1   1.992576 S    
C9    C10   1.389548 A    
C59   O22   1.397529 S    
C40   H6    1.074066 S    
O3    Zn1   2.018508 S    
C38   F3    1.355165 S    
C49   C54   1.491098 S    
C60   O23   1.223563 D    
C57   O18   1.396767 S    
N1    C6    1.368835 A    
C12   C34   1.416371 A    
C17   C29   1.404526 A    
C45   C46   1.385945 A    
C18   C21   1.425775 A    
C51   H9    1.079746 S    
C53   H10   1.112145 S    
N3    C50   1.371783 A    
C25   C26   1.403718 A    
C15   C37   1.393941 A    
C39   F4    1.358819 S    
C8    C16   1.401392 A    
C7    F2    1.357628 S    
C38   C39   1.389800 A    
C1    C42   1.414126 S    
O6    C3    1.284714 A    
C52   C53   1.496830 S    
O1    C1    1.283379 A    
C21   C22   1.395964 A    
C18   C20   1.420134 A    
C27   O10   1.350168 S    
C7    C11   1.403830 A    
C50   C51   1.416789 A    
C23   C24   1.406468 A    
C14   C36   1.387066 A    
O18   H14   1.013847 S    
C9    F1    1.356336 S    
Zn2   O8    2.018508 S    
C33   C36   1.418356 A    
C25   C39   1.400607 A    
Zn2   N3    2.020914 S    
C34   C35   1.421647 A    
N2    C32   1.430239 S    
C21   C61   1.489288 S    
C37   C40   1.386861 A    
C56   O15   1.222536 D    
N1    C11   1.432323 S    
C12   C13   1.406160 A    
C8    F10   1.356517 S    
C6    O11   1.350184 S    
Zn1   N4    2.019846 S    
C36   F9    1.357184 S    
O3    C2    1.296113 A    
C26   N2    1.367110 A    
C9    C16   1.401858 A    
O8    C4    1.300996 A    
C14   H2    1.083558 S    
C55   O14   1.398768 S    
C28   C60   1.489773 S    
C3    C45   1.415042 S    
C5    N1    1.368805 A    
C31   C32   1.401883 A    
C20   C24   1.413766 A    
Zn2   O6    1.992575 S    
O2    Zn2   1.986426 S    
C6    C15   1.398866 A    
C53   C54   1.520480 S    
C49   C52   1.412833 A    
C48   F6    1.386965 S    
O4    Zn2   2.001315 S    
C47   C58   1.510877 S    
C19   C35   1.421481 A    
C42   C43   1.414874 A    
C7    C8    1.388801 A    
O2    C1    1.286002 A    
C13   C14   1.394571 A    
O22   H16   1.013385 S    
N4    C52   1.368093 A    
C24   C25   1.408509 A    
C19   C20   1.421366 A    
C43   C44   1.408386 A    
C47   C48   1.524326 S    
C18   C33   1.416548 A    
C22   H4    1.084157 S    
C41   C42   1.385156 A    
C50   F7    1.349252 S    
C56   O16   1.397201 S    
C33   C34   1.418845 A    
C17   C30   1.417790 A    
O20   H15   1.013009 S    
C10   C11   1.400791 A    
C48   H8    1.111621 S    
O14   H12   1.013885 S    
C28   C32   1.408445 A    
