data_mof_unit_43472.cif
_audit_creation_date              2012-12-11T15:32:01-0500
_audit_creation_method            fapswitch 2.2
_symmetry_space_group_name_H-M    P1
_symmetry_Int_Tables_number       1
_space_group_crystal_system       triclinic
_cell_length_a                    13.571868
_cell_length_b                    13.580136
_cell_length_c                    27.662459
_cell_angle_alpha                 90.3266
_cell_angle_beta                  90.115923
_cell_angle_gamma                 119.931062
_cell_volume                      4418.27278181

loop_
_atom_site_label
_atom_site_type_symbol
_atom_type_description
_atom_site_fract_x
_atom_site_fract_y
_atom_site_fract_z
_atom_type_partial_charge
C1    C     C_R   0.619851 0.898479 0.431358 0.540739
C2    C     C_R   0.584756 0.335108 0.214923 0.155721
C3    C     C_R   0.579253 0.320429 0.265118 -0.112560
C4    C     C_R   0.659781 0.303290 0.289652 0.003732
C5    C     C_R   0.671857 0.331355 0.188854 0.049296
C6    C     C_1   0.685469 0.355548 0.137881 -0.028272
C7    C     C_1   0.647478 0.286780 0.341237 -0.061058
C8    C     C_1   0.698018 0.385434 0.096357 -0.014009
C9    C     C_1   0.231931 0.862514 0.382821 -0.028860
C10   C     C_R   0.216573 0.939989 0.261717 -0.106294
C11   C     C_R   0.200569 0.930663 0.211506 -0.106245
C12   C     C_R   0.599789 0.218667 0.431323 0.541822
C13   C     C_R   0.111251 0.725706 0.217270 -0.104294
C14   C     C_R   0.127148 0.735012 0.267398 -0.109631
C15   C     C_R   0.179491 0.842131 0.289800 0.033682
C16   C     C_R   0.148201 0.823436 0.189141 0.037340
C17   C     C_1   0.125411 0.811582 0.137890 -0.057334
C18   C     C_1   0.203630 0.852261 0.340896 -0.073707
C19   C     C_1   0.097356 0.793937 0.095893 -0.012752
C20   C     C_1   0.636938 0.866541 0.383963 -0.024718
C21   C     C_R   0.558110 0.746811 0.265147 0.008017
C22   C     C_R   0.563968 0.738472 0.214662 -0.115760
C23   C     C_R   0.279622 0.878941 0.430516 0.543644
C24   C     C_R   0.757902 0.895483 0.215845 -0.105196
C25   C     C_R   0.752565 0.904678 0.265929 -0.121427
C26   C     C_R   0.653184 0.831095 0.290857 0.029086
C27   C     C_R   0.663717 0.812911 0.190006 0.022083
C28   C     C_1   0.674469 0.799444 0.138895 -0.062282
C29   C     C_1   0.647060 0.847871 0.342139 -0.061707
C30   C     C_1   0.691755 0.787637 0.097060 -0.017798
C31   C     C_R   0.640942 0.280002 0.615314 0.008292
C32   C     C_R   0.713194 0.253845 0.641911 -0.150181
C33   C     C_R   0.724391 0.271035 0.691171 -0.141408
C34   C     C_R   0.620568 0.900612 0.568756 0.529842
C35   C     C_R   0.665954 0.317290 0.714710 0.020111
C36   C     C_R   0.603244 0.354845 0.688075 -0.125137
C37   C     C_R   0.590694 0.337710 0.638055 -0.018718
C38   C     C_R   0.574215 0.300329 0.793958 -0.127582
C39   C     C_R   0.583229 0.322857 0.843279 -0.130532
C40   C     C_R   0.785601 0.388663 0.839714 -0.132962
C41   C     C_R   0.777019 0.368885 0.790453 -0.135007
C42   C     C_R   0.672088 0.327890 0.767152 0.032102
C43   C     C_R   0.690052 0.371956 0.865906 0.024211
C44   C     C_R   0.229380 0.866631 0.615690 0.025494
C45   C     C_R   0.602112 0.223791 0.568302 0.529855
C46   C     C_R   0.267593 0.962258 0.645964 -0.130678
C47   C     C_R   0.240096 0.948693 0.694485 -0.113315
C48   C     C_R   0.170558 0.839821 0.712905 0.027587
C49   C     C_R   0.128356 0.744292 0.682414 -0.130290
C50   C     C_R   0.158622 0.757580 0.633906 -0.128733
C51   C     C_R   0.168512 0.752412 0.790664 -0.137341
C52   C     C_R   0.143307 0.735093 0.839507 -0.136170
C53   C     C_R   0.077169 0.871386 0.837274 -0.128533
C54   C     C_R   0.098919 0.887048 0.787909 -0.010212
C55   C     C_R   0.144350 0.825922 0.764410 0.020342
C56   C     C_R   0.280372 0.881874 0.568247 0.537247
C57   C     C_R   0.094941 0.792355 0.862805 0.008682
C58   C     C_R   0.628150 0.876317 0.619036 0.040489
C59   C     C_R   0.664426 0.800991 0.633413 -0.145830
C60   C     C_R   0.666864 0.779348 0.682582 -0.122909
C61   C     C_R   0.632123 0.832426 0.716905 0.020643
C62   C     C_R   0.591356 0.903736 0.701950 -0.129380
C63   C     C_R   0.590276 0.926264 0.653246 -0.114537
C64   C     C_R   0.718352 0.913607 0.797904 0.158843
C65   C     C_R   0.733890 0.895045 0.846151 -0.086925
C66   C     C_R   0.599787 0.693770 0.837026 -0.144973
C67   C     C_1   0.630188 0.263148 0.383455 -0.018241
C68   C     C_R   0.583884 0.710662 0.788726 -0.152376
C69   C     C_R   0.644780 0.819282 0.768591 0.033130
C70   C     C_R   0.677893 0.785423 0.865548 -0.012741
C71   C     C_R   0.049282 0.761034 0.048256 0.546460
C72   C     C_R   0.713773 0.434888 0.049439 0.542301
C73   C     C_R   0.723394 0.770723 0.049539 0.545521
C74   C     C_R   0.043494 0.755761 0.910374 0.543842
C75   C     C_R   0.707929 0.428398 0.912586 0.542390
C76   C     C_R   0.717540 0.765338 0.911751 0.541780
C77   C     C_R   0.745761 0.296466 0.263393 -0.000484
C78   C     C_R   0.750934 0.311757 0.213009 -0.146618
Cr1   Cr    Cr6+3 0.417720 0.831920 0.499820 1.016897
Cr2   Cr    Cr6+3 0.668190 0.085770 0.500360 1.010055
Cr3   Cr    Cr6+3 0.414060 0.082260 0.499840 1.026145
Cr4   Cr    Cr6+3 0.908000 0.821090 0.979770 1.020643
Cr5   Cr    Cr6+3 0.912420 0.571130 0.979880 1.018569
Cr6   Cr    Cr6+3 0.657970 0.566940 0.980940 1.018042
H1    H     H_    0.491244 0.674069 0.194746 0.104344
H2    H     H_    0.836078 0.952257 0.197277 0.119695
H3    H     H_    0.826292 0.969159 0.285200 0.119902
H4    H     H_    0.753983 0.210797 0.625555 0.141182
H5    H     H_    0.491955 0.265742 0.776431 0.099513
H6    H     H_    0.508384 0.308555 0.862989 0.123861
H7    H     H_    0.774397 0.242835 0.711060 0.102549
H8    H     H_    0.853539 0.391033 0.770260 0.100604
H9    H     H_    0.869176 0.426497 0.856255 0.134557
H10   H     H_    0.564370 0.397641 0.706359 0.102978
H11   H     H_    0.816682 0.307849 0.192306 0.111214
H12   H     H_    0.324816 0.047150 0.632921 0.137152
H13   H     H_    0.205229 0.706844 0.773032 0.112783
H14   H     H_    0.157594 0.673823 0.858562 0.128349
H15   H     H_    0.275199 0.022894 0.717890 0.114467
H16   H     H_    0.038077 0.914879 0.854794 0.139952
H17   H     H_    0.074127 0.659723 0.696434 0.107610
H18   H     H_    0.129708 0.683092 0.611024 0.120768
H19   H     H_    0.691549 0.760479 0.606936 0.102712
H20   H     H_    0.796312 0.965685 0.867683 0.138091
H21   H     H_    0.698261 0.723780 0.693988 0.113454
H22   H     H_    0.526486 0.638382 0.766562 0.114170
H23   H     H_    0.556461 0.608128 0.851087 0.137360
H24   H     H_    0.563029 0.943862 0.728098 0.120870
H25   H     H_    0.559615 0.982696 0.642082 0.117022
H26   H     H_    0.512016 0.323123 0.285159 0.101830
H27   H     H_    0.258637 0.023409 0.278573 0.108058
H28   H     H_    0.228673 0.006741 0.190232 0.114319
H29   H     H_    0.069734 0.642226 0.200454 0.107976
H30   H     H_    0.099489 0.658853 0.288583 0.108185
O1    O     O_R   0.302900 0.805360 0.446400 -0.515123
O2    O     O_R   0.657980 0.180990 0.549630 -0.510899
O3    O     O_R   0.503420 0.197810 0.553190 -0.504300
O4    O     O_R   0.320350 0.978840 0.548910 -0.504686
O5    O     O_3   0.499990 0.999990 0.500010 -0.246025
O6    O     O_R   0.819150 0.845650 0.033320 -0.505350
O7    O     O_R   0.006060 0.815720 0.028680 -0.493306
O8    O     O_R   0.028100 0.664460 0.032550 -0.507512
O9    O     O_R   0.811290 0.477490 0.029660 -0.495574
O10   O     O_R   0.638120 0.455970 0.034270 -0.510397
O11   O     O_R   0.667540 0.672320 0.030160 -0.498050
O12   O     O_R   0.522090 0.841370 0.450730 -0.490505
O13   O     O_R   0.814460 0.840990 0.926980 -0.524530
O14   O     O_R   0.001710 0.811400 0.930110 -0.505523
O15   O     O_R   0.023410 0.659800 0.926210 -0.519866
O16   O     O_R   0.806940 0.473170 0.931090 -0.506300
O17   O     O_R   0.633420 0.451310 0.927930 -0.520005
O18   O     O_R   0.663190 0.668000 0.931580 -0.498404
O19   O     O_3   0.826130 0.653050 0.980200 -0.243345
O20   O     O_R   0.693280 0.995650 0.447220 -0.517676
O21   O     O_R   0.657260 0.178740 0.451050 -0.494270
O22   O     O_R   0.502640 0.195380 0.446850 -0.507237
O23   O     O_R   0.319630 0.976590 0.450330 -0.491642
O24   O     O_R   0.303680 0.807790 0.552740 -0.514798
O25   O     O_R   0.522820 0.843620 0.549310 -0.494494
O26   O     O_R   0.694060 0.998080 0.553560 -0.519529
C79   C     C_R   0.831154 0.273822 0.286907 0.038957
C80   C     C_R   0.946709 0.339405 0.274583 -0.100394
C81   C     C_R   0.026790 0.314780 0.294160 -0.120560
C82   C     C_R   0.993420 0.226941 0.327403 -0.119347
C83   C     C_R   0.879189 0.161767 0.340252 -0.114253
C84   C     C_R   0.797939 0.183306 0.319403 -0.077162
H31   H     H_    0.974895 0.409166 0.249467 0.097367
H32   H     H_    0.114676 0.363664 0.283275 0.120130
H33   H     H_    0.055890 0.208703 0.342828 0.105886
H34   H     H_    0.853232 0.092756 0.365534 0.129808
H35   H     H_    0.709239 0.128009 0.328056 0.119899
C85   C     C_R   0.526709 0.381909 0.610851 0.050927
C86   C     C_R   0.419092 0.359675 0.626614 -0.093853
C87   C     C_R   0.361002 0.404917 0.601822 -0.110913
C88   C     C_R   0.409848 0.472917 0.561293 -0.095833
C89   C     C_R   0.516724 0.495481 0.545370 -0.108688
C90   C     C_R   0.575066 0.450267 0.569987 -0.074431
H36   H     H_    0.380015 0.307013 0.657931 0.094352
H37   H     H_    0.278167 0.387418 0.614103 0.103974
H38   H     H_    0.364937 0.508201 0.542250 0.111577
H39   H     H_    0.554605 0.548443 0.514062 0.108412
H40   H     H_    0.658409 0.469570 0.557555 0.095002
C91   C     C_R   0.067875 0.962752 0.761556 0.030309
C92   C     C_R   0.992879 0.921794 0.721799 -0.071059
C93   C     C_R   0.968995 0.995220 0.695602 -0.107611
C94   C     C_R   0.018293 0.109433 0.709256 -0.101450
C95   C     C_R   0.090561 0.150140 0.749465 -0.100948
C96   C     C_R   0.115245 0.077189 0.775612 -0.103057
H41   H     H_    0.953951 0.833461 0.710828 0.109945
H42   H     H_    0.912244 0.963639 0.664715 0.115578
H43   H     H_    0.999504 0.166085 0.688981 0.098886
H44   H     H_    0.128056 0.238443 0.760190 0.098608
H45   H     H_    0.172962 0.110328 0.806197 0.095708
N1    N     N_2   0.500630 0.350587 0.190845 -0.519532
H46   H     H_    0.422580 0.314152 0.207674 0.239053
C97   C     C_3   0.537520 0.463568 0.172647 -0.290295
H47   H     H_    0.489763 0.499566 0.190903 0.118120
H48   H     H_    0.519609 0.458230 0.133273 0.175949
H49   H     H_    0.629953 0.522473 0.178748 0.156390
N2    N     N_2   0.787087 0.024568 0.778489 -0.517886
H50   H     H_    0.795700 0.030023 0.741504 0.262688
C98   C     C_3   0.770975 0.113403 0.799340 -0.313425
H51   H     H_    0.837504 0.196643 0.785412 0.136375
H52   H     H_    0.779442 0.116259 0.839291 0.151315
H53   H     H_    0.685877 0.100111 0.789276 0.148411
C99   C     C_R   0.454509 0.664751 0.291027 0.028526
C100  C     C_R   0.431827 0.552986 0.297738 -0.102608
C101  C     C_R   0.341049 0.478489 0.326738 -0.124702
C102  C     C_R   0.272440 0.515083 0.349024 -0.111491
C103  C     C_R   0.293109 0.625460 0.341623 -0.100400
C104  C     C_R   0.384022 0.700411 0.312786 -0.081595
H54   H     H_    0.486333 0.524719 0.281740 0.109168
H55   H     H_    0.324524 0.392742 0.332318 0.103221
H56   H     H_    0.202774 0.457633 0.371798 0.116293
H57   H     H_    0.239418 0.653163 0.358721 0.127350
H58   H     H_    0.400935 0.786644 0.308207 0.118166

loop_
_geom_bond_atom_site_label_1
_geom_bond_atom_site_label_2
_ccdc_geom_bond_type
C51   H13   S    
C48   C55   S    
C66   C68   A    
C21   C26   A    
C40   C41   A    
C103  C104  A    
Cr1   O1    S    
C15   C18   S    
C41   C42   A    
C71   O8    A    
C19   C71   S    
C35   C36   A    
C24   C27   A    
Cr4   O6    S    
C40   H9    S    
C83   C84   A    
Cr2   O20   S    
C21   C99   S    
C66   C70   A    
C53   C54   A    
Cr6   O11   S    
Cr3   O23   S    
C38   H5    S    
C93   C94   A    
Cr2   O21   S    
C92   C93   A    
Cr5   O15   S    
C2    C3    A    
C10   C15   A    
C33   H7    S    
C49   H17   S    
C5    C6    S    
C64   N2    S    
C62   H24   S    
C3    H26   S    
C45   O3    A    
C81   C82   A    
C32   H4    S    
Cr3   O3    S    
C34   O25   A    
C86   H36   S    
C47   H15   S    
C22   H1    S    
C52   H14   S    
C99   C104  A    
C35   C42   S    
C98   H51   S    
C44   C50   A    
C17   C19   T    
C46   C47   A    
C102  H56   S    
C97   H49   S    
C74   O14   A    
Cr2   O2    S    
N2    C98   S    
C68   C69   A    
C12   O21   A    
Cr1   O5    S    
C12   O22   A    
C54   C91   S    
C66   H23   S    
C39   H6    S    
C83   H34   S    
C75   O16   A    
C97   H48   S    
C11   H28   S    
Cr2   O5    S    
C94   H43   S    
C73   O6    A    
C21   C22   A    
C72   O10   A    
C92   H41   S    
C61   C62   A    
C68   H22   S    
C4    C7    S    
C44   C46   A    
N1    C97   S    
C20   C29   T    
C40   C43   A    
C53   H16   S    
C43   C75   S    
C96   H45   S    
C12   C67   S    
Cr6   O19   S    
C8    C72   S    
C51   C52   A    
C24   C25   A    
Cr5   O16   S    
Cr1   O25   S    
C10   C11   A    
C95   C96   A    
C30   C73   S    
C53   C57   A    
C16   C17   S    
C6    C8    T    
C25   C26   A    
C77   C78   A    
C23   O1    A    
Cr3   O4    S    
Cr6   O18   S    
C3    C4    A    
C31   C37   A    
C60   C61   A    
C98   H53   S    
C57   C74   S    
C63   H25   S    
C82   H33   S    
C36   H10   S    
C56   O24   A    
C11   C16   A    
C44   C56   S    
C47   C48   A    
C78   H11   S    
C48   C49   A    
Cr1   O24   S    
C62   C63   A    
C100  H54   S    
C10   H27   S    
C64   C69   A    
C1    O12   A    
Cr4   O14   S    
C87   C88   A    
C103  H57   S    
C99   C100  A    
C79   C84   A    
C97   H47   S    
Cr1   O12   S    
C101  H55   S    
C50   H18   S    
C22   C27   A    
C72   O9    A    
C70   C76   S    
C94   C95   A    
C74   O15   A    
C2    C5    A    
C37   C85   S    
C1    O20   A    
C88   C89   A    
C87   H37   S    
N2    H50   S    
Cr3   O22   S    
C81   H32   S    
C61   C69   S    
C58   C63   A    
C54   C55   A    
C89   C90   A    
C1    C20   S    
Cr4   O7    S    
C98   H52   S    
C88   H38   S    
C14   C15   A    
C56   O4    A    
C80   H31   S    
C23   O23   A    
C31   C32   A    
C9    C23   S    
C104  H58   S    
C82   C83   A    
C89   H39   S    
C39   C43   A    
C38   C42   A    
C95   H44   S    
C14   H30   S    
Cr6   O10   S    
Cr3   O5    S    
Cr6   O17   S    
C59   H19   S    
C64   C65   A    
Cr4   O19   S    
C28   C30   T    
C91   C96   A    
C58   C59   A    
C4    C77   A    
Cr2   O26   S    
C79   C80   A    
C32   C33   A    
C76   O18   A    
C45   O2    A    
C38   C39   A    
C73   O11   A    
C34   O26   A    
C33   C35   A    
C85   C90   A    
C51   C55   A    
Cr5   O8    S    
C102  C103  A    
C77   C79   S    
Cr4   O13   S    
Cr5   O19   S    
C91   C92   A    
C52   C57   A    
C2    N1    S    
C7    C67   T    
C84   H35   S    
C5    C78   A    
C25   H3    S    
C71   O7    A    
C9    C18   T    
C59   C60   A    
C41   H8    S    
C46   H12   S    
C85   C86   A    
C75   O17   A    
C26   C29   S    
C36   C37   A    
C49   C50   A    
C31   C45   S    
C13   C16   A    
C27   C28   S    
C34   C58   S    
C76   O13   A    
C80   C81   A    
C101  C102  A    
C100  C101  A    
C65   H20   S    
Cr5   O9    S    
C86   C87   A    
C13   C14   A    
C24   H2    S    
C90   H40   S    
C93   H42   S    
C13   H29   S    
C60   H21   S    
C65   C70   A    
N1    H46   S    
