data_mof_unit_10318.cif
_audit_creation_date              2013-03-05T15:50:43-0500
_audit_creation_method            fapswitch 2.2
_symmetry_space_group_name_H-M    P1
_symmetry_Int_Tables_number       1
_space_group_crystal_system       triclinic
_cell_length_a                    10.676972
_cell_length_b                    11.977993
_cell_length_c                    12.870584
_cell_angle_alpha                 93.604997
_cell_angle_beta                  90.365619
_cell_angle_gamma                 85.951744
_cell_volume                      1638.64331648

loop_
_atom_site_label
_atom_site_type_symbol
_atom_site_description
_atom_site_fract_x
_atom_site_fract_y
_atom_site_fract_z
_atom_type_partial_charge
O1    O     O_R   0.506240 0.421700 0.658830 -0.645057
O2    O     O_R   0.491240 0.609310 0.646410 -0.584658
C1    C     C_R   0.493782 0.522415 0.700374 0.961319
O3    O     O_R   0.692710 0.406190 0.506230 -0.615775
O4    O     O_R   0.677700 0.593810 0.493810 -0.634201
C2    C     C_R   0.742208 0.500207 0.500081 0.927799
Zn1   Zn    Zn3+2 0.510020 0.374730 0.508290 1.017084
Zn2   Zn    Zn3+2 0.489980 0.625270 0.491710 1.029847
O5    O     O_R   0.508760 0.390690 0.353590 -0.563540
O6    O     O_R   0.493760 0.578300 0.341170 -0.654435
O7    O     O_R   0.322300 0.406190 0.506190 -0.623659
O8    O     O_R   0.307290 0.593810 0.493770 -0.581732
C3    C     C_R   0.506069 0.477522 0.299573 0.984772
C4    C     C_R   0.257724 0.499723 0.495844 0.952945
C5    C     C_3   0.935116 0.458834 0.602062 0.164979
H1    H     H_    0.916293 0.368648 0.605093 0.130290
C6    C     C_3   0.078774 0.465628 0.601002 -0.561883
H2    H     H_    0.109388 0.526248 0.663573 0.253720
H3    H     H_    0.124381 0.382392 0.618648 0.192047
H4    H     H_    0.895249 0.335687 0.411319 0.214206
H5    H     H_    0.103077 0.326323 0.436006 0.123187
C7    C     C_3   0.929236 0.420940 0.406318 -0.457160
C8    C     C_3   0.917064 0.620328 0.478812 -0.406734
C9    C     C_3   0.878247 0.500756 0.498320 -0.106147
H6    H     H_    0.877414 0.646458 0.403099 0.221544
H7    H     H_    0.877068 0.683716 0.538575 0.217424
C10   C     C_3   0.121202 0.500226 0.492627 -0.149864
C11   C     C_3   0.074588 0.410954 0.408694 0.165682
C12   C     C_3   0.059483 0.621836 0.479170 0.173372
H8    H     H_    0.084742 0.675055 0.549501 0.180605
H9    H     H_    0.890862 0.453660 0.332879 0.256131
C13   C     C_R   0.512757 0.463182 0.188007 -0.159952
C14   C     C_R   0.483454 0.536049 0.811752 -0.172390
C15   C     C_R   0.412210 0.635196 0.971688 -0.197356
C16   C     C_R   0.418376 0.630174 0.863545 0.295384
C17   C     C_R   0.537714 0.448486 0.867097 -0.187088
C18   C     C_R   0.527642 0.452066 0.973500 0.104173
C19   C     C_R   0.465479 0.546353 0.026201 0.105117
C20   C     C_R   0.457104 0.550456 0.132880 -0.201476
C21   C     C_R   0.574277 0.367560 0.135628 0.310142
C22   C     C_R   0.579669 0.362598 0.027638 -0.198886
H10   H     H_    0.407604 0.622634 0.173211 0.181209
H11   H     H_    0.362523 0.706594 0.012866 0.189729
H12   H     H_    0.627874 0.290541 0.986251 0.184037
H13   H     H_    0.587956 0.376476 0.827118 0.183839
N1    N     N_R   0.523380 0.207800 0.519350 -0.112056
N2    N     N_R   0.476620 0.792180 0.480650 -0.117269
C23   C     C_R   0.413099 0.951466 0.383015 -0.253007
C24   C     C_R   0.419067 0.835803 0.395909 0.109645
C25   C     C_R   0.532769 0.860105 0.553560 0.007798
C26   C     C_R   0.530964 0.976907 0.543055 0.076353
C27   C     C_R   0.469421 0.023095 0.456892 0.058049
C28   C     C_R   0.466399 0.139987 0.446921 0.023568
C29   C     C_R   0.584931 0.163865 0.602205 0.034829
C30   C     C_R   0.589587 0.048312 0.615783 -0.266583
H14   H     H_    0.417898 0.177160 0.382035 0.163259
H15   H     H_    0.629618 0.218788 0.658750 0.144615
H16   H     H_    0.366150 0.984286 0.315364 0.179743
H17   H     H_    0.638224 0.015283 0.682588 0.172813
H18   H     H_    0.378442 0.780571 0.337315 0.169275
H19   H     H_    0.580414 0.823017 0.618873 0.151949
N3    N     N_R   0.102509 0.675843 0.387640 0.220747
O9    O     O_R   0.074535 0.639080 0.293788 -0.326212
O10   O     O_R   0.147212 0.773973 0.400763 -0.391860
N4    N     N_R   0.131305 0.414338 0.304783 0.249965
O11   O     O_R   0.250169 0.385533 0.292833 -0.412972
O12   O     O_R   0.062144 0.419613 0.221277 -0.296654
N5    N     N_R   0.636150 0.278086 0.189893 0.221199
O13   O     O_R   0.626630 0.174542 0.155448 -0.356857
O14   O     O_R   0.719980 0.299964 0.260617 -0.399039
N6    N     N_R   0.352961 0.717251 0.808395 0.221324
O15   O     O_R   0.355015 0.821320 0.843687 -0.355521
O16   O     O_R   0.273240 0.691629 0.735328 -0.386831
N7    N     N_R   0.878552 0.519808 0.694774 0.221176
O17   O     O_R   0.814732 0.466573 0.759130 -0.402386
O18   O     O_R   0.897114 0.624818 0.717212 -0.367649

loop_
_geom_bond_atom_site_label_1
_geom_bond_atom_site_label_2
_geom_bond_distance
_ccdc_geom_bond_type
C30   H17   1.083299 S    
C10   C12   1.575052 S    
C3    C13   1.437023 S    
N2    C24   1.363074 A    
Zn1   O7    2.013411 S    
C12   H8    1.116720 S    
C24   H18   1.080804 S    
N7    O18   1.301361 A    
C8    C12   1.521960 S    
C17   C18   1.372122 A    
C18   C19   1.406996 A    
O4    C2    1.280457 A    
O7    C4    1.287162 A    
C8    H7    1.111509 S    
C1    C14   1.436587 S    
C5    H1    1.115748 S    
C14   C17   1.394976 A    
Zn1   O5    2.012035 S    
C15   C16   1.391152 A    
C13   C20   1.396244 A    
O5    C3    1.285448 A    
N3    O10   1.300427 A    
C6    H3    1.114092 S    
C29   C30   1.403322 A    
N5    O13   1.301214 A    
N4    O12   1.302400 A    
C8    C9    1.554495 S    
C4    C10   1.457561 S    
C20   H10   1.085702 S    
C8    H6    1.114076 S    
C16   N6    1.436474 S    
C7    C11   1.548335 S    
O3    Zn1   2.013243 S    
C6    H2    1.113208 S    
N2    C25   1.366608 A    
N7    O17   1.300754 A    
C26   C27   1.408598 A    
C6    C10   1.558794 S    
Zn1   N1    2.008437 S    
O3    C2    1.284336 A    
C7    H9    1.110794 S    
N6    O16   1.301324 A    
O1    C1    1.286873 A    
C15   C19   1.396977 A    
N3    O9    1.299731 A    
Zn2   O8    2.013243 S    
C2    C9    1.453290 S    
N1    C29   1.363389 A    
C25   C26   1.412792 A    
C17   H13   1.085755 S    
C5    C9    1.560303 S    
N5    O14   1.300412 A    
C23   C24   1.402592 A    
H5    C11   1.115174 S    
O8    C4    1.280248 A    
C22   H12   1.084685 S    
C7    C9    1.550769 S    
C27   C28   1.412107 A    
C28   H14   1.082823 S    
C5    C6    1.541905 S    
C12   N3    1.470376 S    
C21   C22   1.388821 A    
O1    Zn1   1.983157 S    
O2    Zn2   2.012036 S    
C15   H11   1.084541 S    
H4    C7    1.113319 S    
O6    C3    1.287735 A    
O4    Zn2   2.013410 S    
C23   H16   1.083325 S    
O2    C1    1.285746 A    
Zn2   N2    2.008199 S    
N6    O15   1.301219 A    
C19   C20   1.374055 A    
N1    C28   1.366102 A    
C14   C16   1.413874 A    
C11   N4    1.475672 S    
C26   C30   1.402466 A    
C13   C21   1.414248 A    
C18   C22   1.395495 A    
C23   C27   1.401711 A    
C5    N7    1.469477 S    
Zn2   O6    1.983157 S    
N4    O11   1.298970 A    
C21   N5    1.435645 S    
C10   C11   1.575139 S    
C25   H19   1.082755 S    
C29   H15   1.081558 S    
