data_mof_unit_36182.cif
_audit_creation_date              2012-12-11T15:41:25-0500
_audit_creation_method            fapswitch 2.2
_symmetry_space_group_name_H-M    P1
_symmetry_Int_Tables_number       1
_space_group_crystal_system       triclinic
_cell_length_a                    19.115391
_cell_length_b                    10.989942
_cell_length_c                    18.773168
_cell_angle_alpha                 89.841051
_cell_angle_beta                  90.059177
_cell_angle_gamma                 89.824247
_cell_volume                      3943.77566618

loop_
_atom_site_label
_atom_site_type_symbol
_atom_type_description
_atom_site_fract_x
_atom_site_fract_y
_atom_site_fract_z
_atom_type_partial_charge
C1    C     C_R   0.727787 0.953587 0.852587 0.562260
C2    C     C_R   0.317198 0.416023 0.028618 -0.052035
C3    C     C_R   0.761121 0.859467 0.354651 0.550272
C4    C     C_2   0.506805 0.165646 0.924950 -0.104439
C5    C     C_2   0.504395 0.177658 0.080693 -0.115054
C6    C     C_2   0.006808 0.665650 0.924952 -0.104350
C7    C     C_2   0.004407 0.677664 0.080698 -0.115076
C8    C     C_2   0.521725 0.076876 0.045813 -0.121194
C9    C     C_2   0.533802 0.078841 0.968298 -0.105098
C10   C     C_2   0.021734 0.576887 0.045815 -0.121251
C11   C     C_2   0.033808 0.578850 0.968301 -0.105072
C12   C     C_R   0.765733 0.434860 0.068449 -0.022245
C13   C     C_R   0.188927 0.933147 0.967607 0.064588
C14   C     C_R   0.254468 0.393311 0.916819 -0.025532
C15   C     C_R   0.265738 0.934888 0.068442 -0.022338
C16   C     C_R   0.754469 0.893337 0.916824 -0.025536
C17   C     C_3   0.863303 0.537241 0.850075 0.013688
C18   C     C_3   0.898917 0.499215 0.781036 -0.331922
C19   C     C_3   0.109002 0.255594 0.058991 0.041671
C20   C     C_3   0.058018 0.172881 0.097882 -0.340691
C21   C     C_3   0.363390 0.036984 0.850033 0.013766
C22   C     C_3   0.399091 0.998852 0.781067 -0.331794
C23   C     C_3   0.609009 0.755431 0.058953 0.041792
C24   C     C_R   0.817171 0.916101 0.028633 -0.051999
C25   C     C_3   0.557970 0.672453 0.097620 -0.340668
C26   C     C_R   0.813341 0.440790 0.947082 0.264573
C27   C     C_R   0.221539 0.273075 0.020256 0.236563
C28   C     C_R   0.313361 0.940745 0.947078 0.264518
C29   C     C_R   0.721550 0.773078 0.020252 0.236514
C30   C     C_R   0.823618 0.428585 0.020657 0.224514
C31   C     C_R   0.218815 0.292925 0.946252 0.189501
C32   C     C_R   0.323626 0.928555 0.020657 0.224495
C33   C     C_R   0.276052 0.960973 0.143846 0.565317
C34   C     C_R   0.718835 0.792925 0.946248 0.189434
C35   C     C_3   0.638969 0.362430 0.056534 -0.297502
C36   C     C_3   0.325104 0.577301 0.970149 -0.216095
C37   C     C_3   0.138942 0.862618 0.056517 -0.297411
C38   C     C_3   0.825030 0.077390 0.970171 -0.216128
C39   C     C_3   0.627572 0.351756 0.977063 -0.251285
C40   C     C_3   0.336343 0.543727 0.047784 -0.231993
C41   C     C_3   0.127555 0.851920 0.977046 -0.251236
C42   C     C_3   0.836262 0.043824 0.047807 -0.232018
C43   C     C_R   0.745659 0.422035 0.921050 -0.010158
C44   C     C_R   0.227787 0.453582 0.852586 0.562238
C45   C     C_R   0.270873 0.336920 0.062764 -0.026161
C46   C     C_R   0.245674 0.922063 0.921039 -0.010234
C47   C     C_R   0.770864 0.836953 0.062768 -0.026139
C48   C     C_R   0.508786 0.170198 0.420630 0.020279
C49   C     C_R   0.516402 0.170654 0.568537 0.021072
C50   C     C_R   0.008787 0.670199 0.420630 0.020281
C51   C     C_R   0.016402 0.670655 0.568537 0.021070
C52   C     C_R   0.522347 0.278500 0.457410 0.028647
C53   C     C_R   0.525401 0.277598 0.529904 0.045146
C54   C     C_R   0.022347 0.778501 0.457411 0.028647
C55   C     C_R   0.776050 0.460964 0.143849 0.565322
C56   C     C_R   0.025400 0.777599 0.529904 0.045143
C57   C     C_R   0.515542 0.059559 0.531804 -0.167034
C58   C     C_R   0.513865 0.059273 0.457437 -0.171319
C59   C     C_R   0.015542 0.559559 0.531804 -0.167035
C60   C     C_R   0.013866 0.559274 0.457437 -0.171320
C61   C     C_R   0.532346 0.177378 0.852092 0.520448
C62   C     C_R   0.471333 0.178570 0.150345 0.551408
C63   C     C_R   0.032347 0.677379 0.852093 0.520467
C64   C     C_R   0.971335 0.678571 0.150345 0.551432
C65   C     C_3   0.485586 0.400117 0.457950 -0.267772
C66   C     C_R   0.699046 0.443614 0.040211 0.052838
C67   C     C_3   0.488926 0.396684 0.538133 -0.277625
C68   C     C_3   0.985585 0.900118 0.457950 -0.267774
C69   C     C_3   0.988925 0.896685 0.538133 -0.277623
C70   C     C_R   0.750672 0.400574 0.419496 0.017292
C71   C     C_R   0.250601 0.411648 0.578463 0.013584
C72   C     C_R   0.250672 0.900574 0.419496 0.017292
C73   C     C_R   0.750601 0.911648 0.578463 0.013583
C74   C     C_R   0.798662 0.328904 0.457672 0.022504
C75   C     C_R   0.214672 0.317495 0.544630 0.019645
C76   C     C_R   0.298662 0.828903 0.457672 0.022504
C77   C     C_R   0.307469 0.446729 0.957683 -0.053906
C78   C     C_R   0.714672 0.817496 0.544630 0.019646
C79   C     C_R   0.794326 0.319568 0.530349 0.034513
C80   C     C_R   0.216147 0.307923 0.471713 0.043766
C81   C     C_R   0.294325 0.819567 0.530349 0.034515
C82   C     C_R   0.716147 0.807923 0.471713 0.043764
C83   C     C_R   0.686697 0.432637 0.529435 -0.150387
C84   C     C_R   0.298675 0.471834 0.463365 -0.172029
C85   C     C_R   0.186697 0.932636 0.529434 -0.150388
C86   C     C_R   0.798675 0.971834 0.463365 -0.172029
C87   C     C_R   0.690426 0.441217 0.454920 -0.154794
C88   C     C_R   0.199057 0.943713 0.040194 0.052893
C89   C     C_R   0.297272 0.482605 0.537647 -0.165528
C90   C     C_R   0.190426 0.941216 0.454920 -0.154794
C91   C     C_R   0.797271 0.982605 0.537647 -0.165528
C92   C     C_3   0.876993 0.333232 0.460970 -0.267936
C93   C     C_3   0.139470 0.279644 0.547487 -0.266810
C94   C     C_3   0.376993 0.833231 0.460970 -0.267930
C95   C     C_3   0.639469 0.779645 0.547487 -0.266813
C96   C     C_3   0.871505 0.322523 0.540951 -0.280406
C97   C     C_3   0.140902 0.273670 0.467097 -0.269026
C98   C     C_3   0.371505 0.822522 0.540951 -0.280415
C99   C     C_R   0.807446 0.946801 0.957698 -0.053868
C100  C     C_3   0.640902 0.773671 0.467097 -0.269022
C101  C     C_R   0.742386 0.380252 0.568140 0.020068
C102  C     C_R   0.254145 0.388873 0.429509 0.020882
C103  C     C_R   0.242386 0.880251 0.568140 0.020070
C104  C     C_R   0.754145 0.888873 0.429509 0.020880
C105  C     C_R   0.736729 0.361955 0.853240 0.548435
C106  C     C_R   0.275130 0.314726 0.139859 0.583995
C107  C     C_R   0.236729 0.861952 0.853241 0.548396
C108  C     C_R   0.775128 0.814734 0.139858 0.583997
C109  C     C_R   0.728038 0.955480 0.647653 0.551775
C110  C     C_R   0.688912 0.433052 0.967624 0.064561
C111  C     C_R   0.271853 0.953251 0.351709 0.544139
C112  C     C_R   0.228038 0.455480 0.647653 0.551768
C113  C     C_R   0.771853 0.453251 0.351709 0.544131
C114  C     C_R   0.532096 0.176579 0.643267 0.533785
C115  C     C_R   0.471615 0.176509 0.354011 0.544700
C116  C     C_R   0.032095 0.676579 0.643267 0.533790
C117  C     C_R   0.971615 0.676510 0.354011 0.544699
C118  C     C_R   0.737628 0.356127 0.643984 0.537685
C119  C     C_R   0.261121 0.359467 0.354651 0.550281
C120  C     C_R   0.237628 0.856127 0.643984 0.537712
Cl1   Cl    Cl    0.906575 0.377805 0.047792 -0.631999
Cl2   Cl    Cl    0.165894 0.196605 0.893484 -0.612550
Cl3   Cl    Cl    0.406575 0.877751 0.047808 -0.631977
Cl4   Cl    Cl    0.665955 0.696563 0.893463 -0.612676
Cr1   Cr    Cr6+3 0.769260 0.163750 0.750730 1.015132
Cr2   Cr    Cr6+3 0.385810 0.322400 0.252290 1.003867
Cr3   Cr    Cr6+3 0.114190 0.822400 0.747710 1.043035
Cr4   Cr    Cr6+3 0.885810 0.822400 0.252290 1.003874
Cr5   Cr    Cr6+3 0.230740 0.163750 0.249270 1.016026
Cr6   Cr    Cr6+3 0.269260 0.663750 0.750730 1.015077
Cr7   Cr    Cr6+3 0.730740 0.663750 0.249270 1.016107
Cr8   Cr    Cr6+3 0.612640 0.009910 0.748780 1.032955
Cr9   Cr    Cr6+3 0.387360 0.009910 0.251220 1.034231
Cr10  Cr    Cr6+3 0.112640 0.509910 0.748780 1.033063
Cr11  Cr    Cr6+3 0.887360 0.509910 0.251220 1.034186
Cr12  Cr    Cr6+3 0.614190 0.322400 0.747710 1.043034
H1    H     H_    0.526538 0.991564 0.074378 0.174673
H2    H     H_    0.436863 0.387218 0.563868 0.140973
H3    H     H_    0.017930 0.973658 0.434231 0.121074
H4    H     H_    0.936862 0.887218 0.563868 0.140973
H5    H     H_    0.641888 0.469917 0.556696 0.126054
H6    H     H_    0.332520 0.530672 0.432536 0.122054
H7    H     H_    0.141887 0.969916 0.556696 0.126054
H8    H     H_    0.832519 0.030673 0.432535 0.122052
H9    H     H_    0.649262 0.486809 0.425797 0.116317
H10   H     H_    0.327904 0.553616 0.562127 0.138609
H11   H     H_    0.149261 0.986809 0.425797 0.116316
H12   H     H_    0.567301 0.007775 0.946909 0.160296
H13   H     H_    0.827903 0.053617 0.562127 0.138610
H14   H     H_    0.897208 0.422882 0.444034 0.169839
H15   H     H_    0.103811 0.351069 0.567233 0.163207
H16   H     H_    0.397207 0.922882 0.444034 0.169838
H17   H     H_    0.603811 0.851069 0.567233 0.163206
H18   H     H_    0.901934 0.252839 0.435532 0.128149
H19   H     H_    0.132807 0.189358 0.573270 0.130826
H20   H     H_    0.401934 0.752839 0.435532 0.128152
H21   H     H_    0.632807 0.689358 0.573270 0.130823
H22   H     H_    0.892808 0.235487 0.562036 0.134313
H23   H     H_    0.026531 0.491574 0.074377 0.174681
H24   H     H_    0.132788 0.181200 0.446002 0.136335
H25   H     H_    0.392808 0.735486 0.562036 0.134303
H26   H     H_    0.632787 0.681201 0.446002 0.136337
H27   H     H_    0.888915 0.405397 0.569727 0.133307
H28   H     H_    0.108784 0.345256 0.440898 0.135570
H29   H     H_    0.388915 0.905396 0.569727 0.133298
H30   H     H_    0.608784 0.845256 0.440898 0.135574
H31   H     H_    0.506463 0.265004 0.053905 0.103767
H32   H     H_    0.472675 0.236831 0.944860 0.094401
H33   H     H_    0.006488 0.765013 0.053916 0.103799
H34   H     H_    0.067304 0.507782 0.946911 0.160324
H35   H     H_    0.972685 0.736841 0.944866 0.094394
H36   H     H_    0.096327 0.911372 0.084659 0.147621
H37   H     H_    0.779633 0.139430 0.961871 0.141822
H38   H     H_    0.596341 0.411115 0.084697 0.147535
H39   H     H_    0.279728 0.639392 0.961860 0.141914
H40   H     H_    0.655404 0.275336 0.081987 0.122120
H41   H     H_    0.374077 0.604748 0.942658 0.187483
H42   H     H_    0.155334 0.775517 0.081988 0.122090
H43   H     H_    0.873997 0.104894 0.942693 0.187546
H44   H     H_    0.638035 0.258744 0.956571 0.121315
H45   H     H_    0.930952 0.896621 0.438528 0.175348
H46   H     H_    0.391870 0.551236 0.064869 0.162855
H47   H     H_    0.137991 0.758889 0.956571 0.121302
H48   H     H_    0.891780 0.051398 0.064907 0.162949
H49   H     H_    0.578259 0.395478 0.958613 0.173095
H50   H     H_    0.297844 0.587206 0.084192 0.150311
H51   H     H_    0.078258 0.895678 0.958579 0.173198
H52   H     H_    0.797738 0.087254 0.084205 0.150241
H53   H     H_    0.513168 0.974371 0.560415 0.117343
H54   H     H_    0.508971 0.973791 0.429573 0.115807
H55   H     H_    0.013169 0.474372 0.560415 0.117348
H56   H     H_    0.022645 0.968631 0.561048 0.134528
H57   H     H_    0.008972 0.473792 0.429573 0.115804
H58   H     H_    0.887542 0.621139 0.870560 0.134758
H59   H     H_    0.808552 0.563316 0.836614 0.135686
H60   H     H_    0.907668 0.580154 0.746666 0.094446
H61   H     H_    0.949689 0.454105 0.792325 0.197694
H62   H     H_    0.865460 0.434069 0.751743 0.165127
H63   H     H_    0.085743 0.279912 0.006510 0.187324
H64   H     H_    0.115017 0.340464 0.090579 0.125360
H65   H     H_    0.011083 0.225328 0.114214 0.151054
H66   H     H_    0.041255 0.098189 0.062120 0.146667
H67   H     H_    0.430953 0.396620 0.438528 0.175348
H68   H     H_    0.083012 0.133972 0.146329 0.160391
H69   H     H_    0.387597 0.120923 0.870507 0.134718
H70   H     H_    0.308656 0.063029 0.836490 0.135517
H71   H     H_    0.407902 0.079759 0.746680 0.094499
H72   H     H_    0.449840 0.953734 0.792454 0.197729
H73   H     H_    0.365662 0.933675 0.751749 0.165102
H74   H     H_    0.585833 0.779992 0.006459 0.187157
H75   H     H_    0.614954 0.840169 0.090701 0.125527
H76   H     H_    0.510980 0.724756 0.113951 0.151110
H77   H     H_    0.541304 0.597892 0.061689 0.146785
H78   H     H_    0.522647 0.468631 0.561048 0.134525
H79   H     H_    0.582885 0.633353 0.146064 0.160223
H80   H     H_    0.517931 0.473656 0.434230 0.121078
O1    O     O_R   0.784290 0.290360 0.830540 -0.493094
O2    O     O_R   0.456020 0.282110 0.333230 -0.527504
O3    O     O_R   0.043980 0.782110 0.666770 -0.516852
O4    O     O_R   0.956020 0.782110 0.333230 -0.527506
O5    O     O_R   0.679070 0.374030 0.674430 -0.500926
O6    O     O_R   0.320930 0.374030 0.325570 -0.505811
O7    O     O_R   0.179070 0.874030 0.674430 -0.500922
O8    O     O_R   0.820930 0.874030 0.325570 -0.505818
O9    O     O_3   0.665360 0.165350 0.749070 -0.264285
O10   O     O_3   0.334640 0.165350 0.250930 -0.273902
O11   O     O_3   0.165360 0.665350 0.749070 -0.264292
O12   O     O_R   0.215710 0.290360 0.169460 -0.494976
O13   O     O_3   0.834640 0.665350 0.250930 -0.273894
O14   O     O_R   0.762610 0.041070 0.825230 -0.510208
O15   O     O_R   0.237390 0.041070 0.174770 -0.494401
O16   O     O_R   0.262610 0.541070 0.825230 -0.510213
O17   O     O_R   0.737390 0.541070 0.174770 -0.494356
O18   O     O_R   0.667390 0.924160 0.829970 -0.455417
O19   O     O_R   0.332610 0.924160 0.170030 -0.463175
O20   O     O_R   0.167390 0.424160 0.829970 -0.455384
O21   O     O_R   0.832610 0.424160 0.170030 -0.463215
O22   O     O_R   0.553980 0.081420 0.821780 -0.502577
O23   O     O_R   0.284290 0.790360 0.830540 -0.493093
O24   O     O_R   0.446020 0.081420 0.178220 -0.465006
O25   O     O_R   0.053980 0.581420 0.821780 -0.502506
O26   O     O_R   0.946020 0.581420 0.178220 -0.465013
O27   O     O_R   0.543210 0.283170 0.826740 -0.512276
O28   O     O_R   0.456790 0.283170 0.173260 -0.534066
O29   O     O_R   0.043210 0.783170 0.826740 -0.512300
O30   O     O_R   0.956790 0.783170 0.173260 -0.534050
O31   O     O_R   0.678350 0.375000 0.822720 -0.477131
O32   O     O_R   0.321650 0.375000 0.177280 -0.504009
O33   O     O_R   0.178350 0.875000 0.822720 -0.477145
O34   O     O_R   0.715710 0.790360 0.169460 -0.495003
O35   O     O_R   0.821650 0.875000 0.177280 -0.504007
O36   O     O_R   0.785060 0.289300 0.670580 -0.533080
O37   O     O_R   0.214940 0.289300 0.329420 -0.518118
O38   O     O_R   0.285060 0.789300 0.670580 -0.533113
O39   O     O_R   0.714940 0.789300 0.329420 -0.518103
O40   O     O_R   0.763330 0.040090 0.676940 -0.509296
O41   O     O_R   0.236670 0.040090 0.323060 -0.508751
O42   O     O_R   0.263330 0.540090 0.676940 -0.509301
O43   O     O_R   0.736670 0.540090 0.323060 -0.508745
O44   O     O_R   0.668160 0.923110 0.670000 -0.514281
O45   O     O_R   0.554690 0.080440 0.673480 -0.517665
O46   O     O_R   0.331840 0.923110 0.330000 -0.524634
O47   O     O_R   0.168160 0.423110 0.670000 -0.514280
O48   O     O_R   0.831840 0.423110 0.330000 -0.524643
O49   O     O_3   0.870616 0.442830 0.901593 -0.499823
O50   O     O_3   0.173920 0.194583 0.051183 -0.517405
O51   O     O_3   0.370645 0.942646 0.901601 -0.499822
O52   O     O_3   0.673962 0.694519 0.051167 -0.517419
O53   O     O_R   0.445310 0.080440 0.326520 -0.513673
O54   O     O_R   0.054690 0.580440 0.673480 -0.517653
O55   O     O_R   0.945310 0.580440 0.326520 -0.513679
O56   O     O_R   0.543980 0.282110 0.666770 -0.516851

loop_
_geom_bond_atom_site_label_1
_geom_bond_atom_site_label_2
_ccdc_geom_bond_type
C3    C104  S    
C61   O27   A    
C7    C10   D    
C96   H22   S    
Cr12  O9    S    
C49   C53   A    
Cr10  O47   S    
C29   O52   S    
C64   O30   A    
C80   C97   S    
C25   H76   S    
C50   C117  S    
C84   C102  A    
C37   C88   S    
C83   C87   A    
C19   C20   S    
C14   C31   A    
C72   C76   A    
C86   C104  A    
C85   H7    S    
C37   H36   S    
C13   C41   S    
C39   H44   S    
Cr3   O3    S    
C15   C32   A    
Cr8   O44   S    
Cr7   O17   S    
C119  O6    A    
C37   H42   S    
C28   C32   A    
C28   C46   A    
C19   H64   S    
C3    O8    A    
C28   O51   S    
C29   C47   A    
C101  C118  S    
Cr11  O26   S    
C114  O45   A    
C20   H65   S    
C38   C42   S    
C48   C52   A    
Cr5   O41   S    
C86   C91   A    
C44   O20   A    
C43   C105  S    
C13   C46   A    
Cr7   O39   S    
C27   O50   S    
C64   O26   A    
C81   C98   S    
C94   C98   S    
C21   H69   S    
C24   C99   A    
C22   H73   S    
C23   O52   S    
C92   C96   S    
C24   C42   S    
C41   H51   S    
C117  O4    A    
C100  H30   S    
C51   C56   A    
Cr9   O19   S    
C14   C77   A    
C74   C92   S    
C67   H2    S    
Cr8   O22   S    
C70   C74   A    
C105  O31   A    
C17   O49   S    
C15   C88   A    
C16   C34   A    
C59   H55   S    
C1    O14   A    
C39   C110  S    
Cr12  O5    S    
C103  C120  S    
C111  O46   A    
C8    C9    S    
C65   C67   S    
C65   H67   S    
Cr5   O10   S    
C58   H54   S    
C73   C78   A    
C115  O2    A    
C78   C95   S    
Cr3   O29   S    
Cr9   O24   S    
Cr6   O16   S    
C87   H9    S    
C75   C80   A    
Cr4   O4    S    
C68   H45   S    
C33   O19   A    
Cr7   O34   S    
Cr3   O7    S    
C107  O23   A    
C26   O49   S    
C76   C94   S    
C27   C45   A    
C69   H4    S    
Cr5   O12   S    
C49   C114  S    
C72   C111  S    
Cr11  O48   S    
C2    C45   A    
C21   C22   S    
C46   C107  S    
C118  O5    A    
Cr3   O11   S    
C24   C47   A    
C32   Cl3   S    
Cr4   O8    S    
C17   H58   S    
Cr2   O10   S    
C55   O17   A    
C116  O54   A    
C70   C87   A    
C119  O37   A    
C69   H56   S    
Cr6   O42   S    
Cr8   O18   S    
C26   C43   A    
C40   H46   S    
C6    H35   S    
C91   H13   S    
C70   C113  S    
Cr9   O46   S    
C63   O29   A    
C54   C56   A    
Cr6   O23   S    
C71   C75   A    
Cr4   O35   S    
C107  O33   A    
C108  O35   A    
C27   C31   A    
C98   H29   S    
C97   H24   S    
C93   H19   S    
Cr9   O10   S    
C73   C91   A    
C65   H80   S    
Cr1   O14   S    
C6    C11   D    
C83   H5    S    
C21   O51   S    
C95   C100  S    
C68   C69   S    
C38   H37   S    
C35   C66   S    
C42   H48   S    
C3    O39   A    
C12   C66   A    
C4    C61   S    
Cr2   O32   S    
C55   O21   A    
C4    H32   S    
Cr12  O31   S    
C108  O34   A    
C8    H1    S    
Cr3   O33   S    
C113  O48   A    
C21   H70   S    
Cr1   O40   S    
C35   C39   S    
Cr10  O25   S    
C57   H53   S    
C90   H11   S    
C2    C40   S    
C6    C63   S    
C72   C90   A    
C78   C82   A    
Cr9   O53   S    
C71   C89   A    
C30   Cl1   S    
C36   C40   S    
C1    O18   A    
C97   H28   S    
Cr10  O20   S    
C71   C112  S    
C18   H61   S    
Cr11  O55   S    
C17   C18   S    
C22   H72   S    
Cr12  O56   S    
C1    C16   S    
C50   C54   A    
C66   C110  A    
C116  O3    A    
C62   O28   A    
C89   H10   S    
C20   H68   S    
C18   H62   S    
C106  O32   A    
C11   H34   S    
C19   O50   S    
Cr7   O43   S    
C115  O53   A    
Cr6   O38   S    
C43   C110  A    
Cr5   O37   S    
Cr6   O11   S    
C26   C30   A    
C120  O7    A    
C105  O1    A    
C74   C79   A    
C48   C115  S    
C92   H14   S    
C45   C106  S    
C25   H79   S    
C106  O12   A    
C17   H59   S    
C51   C59   A    
C84   C89   A    
C35   H40   S    
Cr4   O13   S    
C93   C97   S    
C48   C58   A    
C98   H25   S    
C112  O42   A    
C52   C53   A    
Cr1   O9    S    
C14   C44   S    
C81   C103  A    
C42   H52   S    
C47   C108  S    
C40   H50   S    
C34   Cl4   S    
C38   H43   S    
C83   C101  A    
Cr12  O27   S    
C12   C30   A    
C95   H21   S    
C35   H38   S    
C82   C100  S    
C5    C62   S    
Cr1   O36   S    
C41   H47   S    
C36   H41   S    
C31   Cl2   S    
C38   C99   S    
C67   H78   S    
C85   C103  A    
C76   C81   A    
C117  O55   A    
C5    C8    D    
C92   H18   S    
C85   C90   A    
Cr2   O6    S    
C16   C99   A    
C73   C109  S    
C23   H74   S    
Cr10  O54   S    
Cr5   O15   S    
C9    H12   S    
C19   H63   S    
C51   C116  S    
C96   H27   S    
C36   C77   S    
C50   C60   A    
C60   H57   S    
C109  O44   A    
C7    H33   S    
C44   O16   A    
Cr4   O30   S    
C79   C96   S    
C2    C77   A    
C118  O36   A    
Cr8   O9    S    
Cr10  O11   S    
Cr2   O28   S    
Cr7   O13   S    
C57   C58   A    
C49   C57   A    
C23   H75   S    
C22   H71   S    
C75   C93   S    
C61   O22   A    
C29   C34   A    
C13   C88   A    
C25   H77   S    
C109  O40   A    
C15   C33   S    
C84   H6    S    
C86   H8    S    
C114  O56   A    
C5    H31   S    
C18   H60   S    
C37   C41   S    
C53   C67   S    
C120  O38   A    
C7    C64   S    
C12   C55   S    
C93   H15   S    
C10   C11   S    
C102  C119  S    
C112  O47   A    
C20   H66   S    
C39   H49   S    
Cr11  O21   S    
C59   C60   A    
C23   C25   S    
C54   C68   S    
C36   H39   S    
C94   H20   S    
C56   C69   S    
Cr11  O13   S    
C80   C102  A    
C62   O24   A    
C82   C104  A    
C79   C101  A    
C68   H3    S    
C100  H26   S    
C113  O43   A    
C95   H17   S    
C4    C9    D    
C33   O15   A    
C94   H16   S    
C10   H23   S    
C111  O41   A    
C52   C65   S    
Cr2   O2    S    
Cr1   O1    S    
Cr8   O45   S    
C63   O25   A    
