data_mof_unit_62660.cif
_audit_creation_date              2012-10-26T18:01:51-0400
_audit_creation_method            fapswitch 2.2
_symmetry_space_group_name_H-M    P1
_symmetry_Int_Tables_number       1
_space_group_crystal_system       triclinic
_cell_length_a                    30.837292
_cell_length_b                    30.600852
_cell_length_c                    22.257801
_cell_angle_alpha                 90.008231
_cell_angle_beta                  46.381318
_cell_angle_gamma                 89.998904
_cell_volume                      15205.43145

loop_
_atom_site_label
_atom_site_type_symbol
_atom_type_description
_atom_site_fract_x
_atom_site_fract_y
_atom_site_fract_z
_atom_type_partial_charge
C1    C     C_R   0.190951 0.190484 0.499612 0.555682
C2    C     C_R   0.839730 0.156616 0.504380 0.005358
C3    C     C_R   0.941358 0.939602 0.499778 0.627193
C4    C     C_R   0.059236 0.059619 0.500247 0.552749
C5    C     C_R   0.941109 0.060101 0.500026 0.579827
C6    C     C_R   0.558877 0.560110 0.499982 0.575658
C7    C     C_R   0.440559 0.559432 0.499797 0.549083
C8    C     C_R   0.170571 0.249939 0.658862 0.560518
C9    C     C_R   0.829385 0.249968 0.341147 0.550546
C10   C     C_R   0.670610 0.749971 0.658854 0.550501
C11   C     C_R   0.329423 0.749937 0.341138 0.560307
C12   C     C_R   0.529790 0.211607 0.956625 -0.098902
C13   C     C_R   0.660277 0.656620 0.495585 0.004112
C14   C     C_R   0.486321 0.211620 0.043543 -0.099751
C15   C     C_R   0.017471 0.711015 0.956448 -0.099842
C16   C     C_R   0.974000 0.710998 0.043366 -0.099032
C17   C     C_R   0.543656 0.250355 0.912785 0.037192
C18   C     C_R   0.456408 0.250382 0.087246 0.037393
C19   C     C_R   0.043637 0.750380 0.912753 0.037403
C20   C     C_R   0.956386 0.750346 0.087214 0.037033
C21   C     C_R   0.513746 0.289123 0.956483 -0.101628
C22   C     C_R   0.470274 0.289138 0.043416 -0.100783
C23   C     C_R   0.026028 0.789735 0.956591 -0.100792
C24   C     C_R   0.342300 0.656415 0.498795 0.010714
C25   C     C_R   0.982554 0.789717 0.043524 -0.101545
C26   C     C_1   0.588460 0.250309 0.823165 -0.051980
C27   C     C_1   0.411581 0.250359 0.176861 -0.053778
C28   C     C_1   0.088450 0.750363 0.823139 -0.053709
C29   C     C_1   0.911568 0.750300 0.176835 -0.051914
C30   C     C_1   0.374081 0.250262 0.251851 -0.023520
C31   C     C_1   0.625948 0.250218 0.748169 -0.017347
C32   C     C_1   0.874069 0.750209 0.251831 -0.017168
C33   C     C_1   0.125939 0.750268 0.748148 -0.023479
C34   C     C_3   0.490618 0.334213 0.483608 -0.074886
C35   C     C_R   0.187256 0.119347 0.450294 -0.122076
C36   C     C_3   0.474340 0.378417 0.701900 -0.077163
C37   C     C_3   0.025510 0.878629 0.297911 -0.076938
C38   C     C_3   0.009744 0.834184 0.515660 -0.074861
C39   C     C_2   0.302040 0.471226 0.559041 0.498746
C40   C     C_2   0.695491 0.397558 0.302613 0.542810
C41   C     C_2   0.804703 0.897454 0.697364 0.542914
C42   C     C_2   0.197746 0.971274 0.441519 0.498332
C43   C     C_2   0.384380 0.486188 0.406208 0.635517
C44   C     C_2   0.724872 0.463610 0.335604 0.621465
C45   C     C_2   0.775105 0.963512 0.664710 0.621782
C46   C     C_R   0.851565 0.161598 0.554804 -0.146773
C47   C     C_2   0.115234 0.986085 0.594399 0.634926
C48   C     C_3   0.314202 0.387993 0.367613 -0.059602
C49   C     C_3   0.782234 0.424929 0.405349 -0.067715
C50   C     C_3   0.717558 0.924832 0.595205 -0.067925
C51   C     C_3   0.185414 0.887839 0.632884 -0.059832
C52   C     C_3   0.060689 0.167366 0.445157 -0.134380
C53   C     C_3   0.004045 0.125632 0.317053 -0.107865
C54   C     C_3   0.495872 0.625798 0.682863 -0.107578
C55   C     C_3   0.438928 0.667247 0.554801 -0.135650
C56   C     C_2   0.956102 0.147615 0.671105 0.621930
C57   C     C_R   0.648503 0.661563 0.445079 -0.142825
C58   C     C_2   0.913864 0.028996 0.359240 0.625714
C59   C     C_2   0.585912 0.529137 0.641036 0.625797
C60   C     C_2   0.544120 0.648774 0.328090 0.620201
C61   C     C_R   0.312463 0.619504 0.550316 -0.123159
C62   C     C_R   0.155034 0.087445 0.449480 -0.133770
C63   C     C_R   0.883858 0.129377 0.554939 -0.143622
C64   C     C_R   0.616193 0.629344 0.444961 -0.144149
C65   C     C_R   0.809108 0.190477 0.500297 0.550226
C66   C     C_R   0.344564 0.587460 0.551126 -0.134656
C67   C     C_R   0.092794 0.091749 0.501637 0.003054
C68   C     C_R   0.907110 0.093240 0.501432 0.001019
C69   C     C_R   0.592862 0.593259 0.498579 0.000671
C70   C     C_R   0.406867 0.591477 0.498517 0.005235
C71   C     C_R   0.063509 0.126084 0.558613 0.017656
C72   C     C_R   0.890888 0.087548 0.457115 0.028727
C73   C     C_R   0.609021 0.587603 0.542978 0.030013
C74   C     C_R   0.436194 0.625629 0.441343 0.037727
C75   C     C_3   0.015782 0.158540 0.585806 0.305070
C76   C     C_R   0.690905 0.690478 0.499672 0.549911
C77   C     C_3   0.924300 0.075665 0.368586 0.322752
C78   C     C_3   0.575544 0.575797 0.631555 0.322798
C79   C     C_3   0.484126 0.657863 0.414109 0.304261
C80   C     C_3   0.051964 0.193557 0.585392 -0.219482
C81   C     C_3   0.883256 0.108182 0.374852 -0.228045
C82   C     C_3   0.616594 0.608309 0.625279 -0.228431
C83   C     C_3   0.448541 0.692940 0.413781 -0.219801
C84   C     C_R   0.010909 0.228184 0.043786 -0.099246
C85   C     C_R   0.988793 0.271318 0.956269 -0.094400
C86   C     C_R   0.504717 0.779031 0.043705 -0.095960
C87   C     C_R   0.309074 0.690483 0.500340 0.556056
C88   C     C_R   0.495546 0.720516 0.956233 -0.099980
C89   C     C_R   0.956216 0.249778 0.087252 0.038802
C90   C     C_R   0.043500 0.249738 0.912797 0.038246
C91   C     C_R   0.456477 0.749757 0.087200 0.037612
C92   C     C_R   0.543772 0.749800 0.912745 0.037403
C93   C     C_R   0.329439 0.250088 0.341157 0.542725
C94   C     C_R   0.670575 0.250072 0.658849 0.549092
C95   C     C_R   0.829430 0.750069 0.341150 0.549011
C96   C     C_R   0.170566 0.750091 0.658843 0.542494
C97   C     C_R   0.945304 0.271342 0.043195 -0.091339
C98   C     C_R   0.095347 0.157818 0.558242 -0.062921
C99   C     C_R   0.054401 0.228168 0.956862 -0.096694
C100  C     C_R   0.452051 0.720495 0.043157 -0.096500
C101  C     C_R   0.548212 0.779054 0.956780 -0.092366
C102  C     C_1   0.911415 0.249834 0.176861 -0.043080
C103  C     C_1   0.088372 0.249766 0.823176 -0.043396
C104  C     C_1   0.411602 0.749770 0.176821 -0.044486
C105  C     C_1   0.588570 0.749851 0.823139 -0.043431
C106  C     C_1   0.125911 0.249822 0.748181 -0.007431
C107  C     C_1   0.873955 0.249887 0.251847 -0.009609
C108  C     C_1   0.626033 0.749899 0.748153 -0.009398
C109  C     C_R   0.855483 0.117464 0.461396 -0.060434
C110  C     C_1   0.374068 0.749819 0.251818 -0.008333
C111  C     C_R   0.358499 0.383355 0.455506 -0.024760
C112  C     C_R   0.684858 0.380400 0.453795 -0.065872
C113  C     C_R   0.815106 0.880365 0.546359 -0.065635
C114  C     C_R   0.141376 0.883309 0.544653 -0.025047
C115  C     C_R   0.347328 0.342377 0.491986 -0.054496
C116  C     C_R   0.656546 0.343500 0.503968 -0.043246
C117  C     C_R   0.843439 0.843499 0.496053 -0.043116
C118  C     C_R   0.152698 0.842372 0.507957 -0.054552
C119  C     C_R   0.375908 0.332097 0.519448 -0.123213
C120  C     C_R   0.644436 0.617510 0.538683 -0.060762
C121  C     C_R   0.593784 0.341249 0.562482 -0.138828
C122  C     C_R   0.906208 0.841297 0.437395 -0.138769
C123  C     C_R   0.124277 0.832120 0.480251 -0.123126
C124  C     C_R   0.408063 0.364106 0.520426 0.242212
C125  C     C_R   0.560410 0.374038 0.565045 0.235023
C126  C     C_R   0.939580 0.874094 0.434815 0.235055
C127  C     C_R   0.092121 0.864130 0.479273 0.242321
C128  C     C_R   0.408596 0.407228 0.498198 0.055021
C129  C     C_R   0.591117 0.406416 0.502354 0.066025
C130  C     C_R   0.908882 0.906428 0.497615 0.066233
C131  C     C_R   0.404644 0.657465 0.441333 -0.059937
C132  C     C_R   0.091425 0.907226 0.501764 0.055104
C133  C     C_R   0.385766 0.415464 0.462911 -0.048036
C134  C     C_R   0.653200 0.409177 0.448824 -0.046134
C135  C     C_R   0.846781 0.909142 0.551293 -0.046007
C136  C     C_R   0.114102 0.915425 0.537273 -0.047941
C137  C     C_3   0.347984 0.451469 0.472914 0.094863
C138  C     C_3   0.704080 0.416519 0.356832 0.094916
C139  C     C_3   0.795969 0.916434 0.643322 0.094901
C140  C     C_3   0.151762 0.951434 0.527549 0.095661
C141  C     C_R   0.310475 0.309518 0.497851 0.550202
C142  C     C_R   0.157636 0.156437 0.501303 0.012558
C143  C     C_R   0.690943 0.309515 0.499785 0.553643
C144  C     C_R   0.809050 0.809515 0.500226 0.553550
C145  C     C_R   0.189532 0.809517 0.502135 0.550099
C146  C     C_3   0.320204 0.415855 0.458787 0.157843
C147  C     C_3   0.740524 0.385302 0.362515 0.147041
C148  C     C_3   0.759503 0.885209 0.637690 0.146503
C149  C     C_3   0.179538 0.915805 0.541650 0.157994
C150  C     C_R   0.558643 0.439600 0.500210 0.628455
C151  C     C_R   0.440119 0.441089 0.499851 0.605116
C152  C     C_R   0.059888 0.941090 0.500138 0.604316
Cu1   Cu    Cu3+1 0.219120 0.280920 0.500000 0.916769
Cu2   Cu    Cu3+1 0.458970 0.500000 0.582030 1.057112
Cu3   Cu    Cu3+1 0.041030 1.000000 0.417970 1.057993
Cu4   Cu    Cu3+1 0.958970 1.000000 0.582030 1.119079
Cu5   Cu    Cu3+1 0.780880 0.280920 0.500000 0.955927
Cu6   Cu    Cu3+1 0.719120 0.780920 0.500000 0.957712
Cu7   Cu    Cu3+1 0.280880 0.780920 0.500000 0.917191
Cu8   Cu    Cu3+1 0.280880 0.219080 0.500020 0.983963
Cu9   Cu    Cu3+1 0.719120 0.219080 0.499980 0.965262
Cu10  Cu    Cu3+1 0.780880 0.719080 0.500020 0.965638
Cu11  Cu    Cu3+1 0.219120 0.719080 0.499980 0.984670
Cu12  Cu    Cu3+1 0.541030 0.500000 0.417970 1.111423
H1    H     H_    0.476045 0.181442 0.076627 0.121056
H2    H     H_    0.570909 0.313863 0.604946 0.132760
H3    H     H_    0.929093 0.813945 0.394823 0.132781
H4    H     H_    0.128687 0.799884 0.456397 0.155450
H5    H     H_    0.271051 0.411123 0.512125 0.134121
H6    H     H_    0.752639 0.353833 0.328947 0.136630
H7    H     H_    0.747487 0.853721 0.671148 0.136464
H8    H     H_    0.228713 0.911121 0.488374 0.133983
H9    H     H_    0.524015 0.319297 0.923391 0.116184
H10   H     H_    0.447503 0.319322 0.076406 0.117337
H11   H     H_    0.045881 0.820389 0.923608 0.117919
H12   H     H_    0.552553 0.181419 0.923649 0.123326
H13   H     H_    0.969366 0.820359 0.076622 0.117016
H14   H     H_    0.235411 0.116152 0.408356 0.140961
H15   H     H_    0.836734 0.190504 0.592814 0.146737
H16   H     H_    0.663399 0.690434 0.406988 0.150401
H17   H     H_    0.264256 0.616555 0.592591 0.141023
H18   H     H_    0.178711 0.060090 0.407172 0.164495
H19   H     H_    0.893137 0.133727 0.593454 0.193114
H20   H     H_    0.606969 0.633648 0.406358 0.183275
H21   H     H_    0.320768 0.560257 0.593774 0.164449
H22   H     H_    0.071613 0.219542 0.537891 0.146272
H23   H     H_    0.954152 0.680341 0.076335 0.123149
H24   H     H_    0.906119 0.136970 0.333057 0.130708
H25   H     H_    0.593743 0.637136 0.666998 0.130420
H26   H     H_    0.429252 0.719259 0.460626 0.151245
H27   H     H_    0.030919 0.206333 0.647165 0.166314
H28   H     H_    0.850374 0.092664 0.375372 0.135981
H29   H     H_    0.649426 0.592793 0.624862 0.135914
H30   H     H_    0.470910 0.705199 0.351045 0.133815
H31   H     H_    0.096479 0.211369 0.924060 0.122057
H32   H     H_    0.903236 0.288162 0.076006 0.132166
H33   H     H_    0.585244 0.801860 0.923952 0.135834
H34   H     H_    0.030661 0.680370 0.923358 0.120669
H35   H     H_    0.415011 0.697702 0.075976 0.123700
H36   H     H_    0.521238 0.357442 0.431138 0.153316
H37   H     H_    0.485506 0.303747 0.461628 0.105044
H38   H     H_    0.511883 0.324932 0.506422 0.186919
H39   H     H_    0.491252 0.409376 0.705939 0.136483
H40   H     H_    0.483439 0.350356 0.723561 0.101545
H41   H     H_    0.425018 0.381505 0.744772 0.157885
H42   H     H_    0.008510 0.909616 0.294112 0.136722
H43   H     H_    0.016367 0.850618 0.276212 0.101838
H44   H     H_    0.074839 0.881728 0.254922 0.158021
H45   H     H_    0.019927 0.211394 0.077056 0.117902
H46   H     H_    0.978999 0.857358 0.568210 0.153217
H47   H     H_    0.014873 0.803706 0.537585 0.105168
H48   H     H_    0.988617 0.824903 0.492646 0.187064
H49   H     H_    0.228174 0.508749 0.637865 0.338070
H50   H     H_    0.732631 0.385174 0.186255 0.344247
H51   H     H_    0.767736 0.885020 0.813614 0.344268
H52   H     H_    0.271542 0.008878 0.362994 0.337894
H53   H     H_    0.465237 0.513578 0.314074 0.351694
H54   H     H_    0.707712 0.526685 0.372356 0.338328
H55   H     H_    0.792131 0.026606 0.628131 0.338813
H56   H     H_    0.979779 0.288116 0.923003 0.126943
H57   H     H_    0.034279 0.013341 0.686620 0.344807
H58   H     H_    0.336700 0.356335 0.355305 0.149202
H59   H     H_    0.323113 0.396274 0.311416 0.141983
H60   H     H_    0.264769 0.385318 0.420151 0.126929
H61   H     H_    0.745999 0.449785 0.437822 0.153057
H62   H     H_    0.823780 0.442038 0.379515 0.146739
H63   H     H_    0.772232 0.399996 0.449660 0.146293
H64   H     H_    0.753757 0.949711 0.562715 0.153181
H65   H     H_    0.675955 0.941919 0.621194 0.146702
H66   H     H_    0.727529 0.899914 0.550883 0.146409
H67   H     H_    0.508689 0.801818 0.076952 0.126611
H68   H     H_    0.163026 0.856167 0.644937 0.148971
H69   H     H_    0.176364 0.896044 0.689216 0.142013
H70   H     H_    0.234866 0.885231 0.580438 0.127126
H71   H     H_    0.067845 0.134530 0.418576 0.133918
H72   H     H_    0.101520 0.177986 0.430490 0.111922
H73   H     H_    0.054248 0.190350 0.413337 0.138827
H74   H     H_    0.015454 0.119835 0.353941 0.137213
H75   H     H_    0.970441 0.152193 0.345844 0.101776
H76   H     H_    0.045323 0.137590 0.255296 0.141234
H77   H     H_    0.484503 0.619952 0.645935 0.137553
H78   H     H_    0.491569 0.697738 0.922979 0.120254
H79   H     H_    0.529499 0.652337 0.654037 0.102397
H80   H     H_    0.454584 0.637812 0.744568 0.141604
H81   H     H_    0.431138 0.634555 0.582183 0.131443
H82   H     H_    0.398374 0.678115 0.568947 0.110567
H83   H     H_    0.445562 0.690326 0.586302 0.141621
H84   H     H_    0.889259 0.164982 0.791177 0.345012
H85   H     H_    0.918221 0.984832 0.287997 0.328597
H86   H     H_    0.581463 0.485041 0.712426 0.328647
H87   H     H_    0.626718 0.671558 0.230130 0.338757
H88   H     H_    0.371623 0.299837 0.543121 0.155330
O1    O     O_R   0.178830 0.231030 0.500000 -0.516356
O2    O     O_R   0.920260 0.045080 0.569280 -0.477105
O3    O     O_R   0.579740 0.545080 0.430720 -0.492602
O4    O     O_R   0.420260 0.545080 0.569280 -0.538937
O5    O     O_R   0.010480 0.045040 0.569280 -0.461090
O6    O     O_R   0.989520 0.045040 0.430720 -0.503936
O7    O     O_R   0.510480 0.545040 0.569280 -0.501389
O8    O     O_R   0.489520 0.545040 0.430720 -0.463338
O9    O     O_R   0.230990 0.178800 0.500020 -0.493304
O10   O     O_R   0.769010 0.178800 0.499980 -0.500711
O11   O     O_R   0.730990 0.678800 0.500020 -0.500830
O12   O     O_R   0.821170 0.231030 0.500000 -0.513224
O13   O     O_R   0.269010 0.678800 0.499980 -0.492988
O14   O     O_R   0.283780 0.276120 0.380310 -0.526227
O15   O     O_R   0.716220 0.276120 0.619690 -0.503365
O16   O     O_R   0.783780 0.776120 0.380310 -0.503094
O17   O     O_R   0.216220 0.776120 0.619690 -0.526176
O18   O     O_R   0.335940 0.223900 0.380320 -0.497317
O19   O     O_R   0.664060 0.223900 0.619680 -0.502105
O20   O     O_R   0.835940 0.723900 0.380320 -0.502345
O21   O     O_R   0.164060 0.723900 0.619680 -0.497189
O22   O     O_R   0.269010 0.321200 0.499990 -0.532234
O23   O     O_R   0.678830 0.731030 0.500000 -0.512429
O24   O     O_R   0.730990 0.321200 0.500010 -0.509269
O25   O     O_R   0.769010 0.821200 0.499990 -0.509506
O26   O     O_R   0.230990 0.821200 0.500010 -0.532312
O27   O     O_R   0.321170 0.268970 0.500010 -0.509872
O28   O     O_R   0.678830 0.268970 0.499990 -0.507249
O29   O     O_R   0.821170 0.768970 0.500010 -0.507129
O30   O     O_R   0.178830 0.768970 0.499990 -0.509777
O31   O     O_R   0.164060 0.276100 0.619690 -0.498293
O32   O     O_R   0.835940 0.276100 0.380310 -0.495589
O33   O     O_R   0.664060 0.776100 0.619690 -0.495626
O34   O     O_R   0.321170 0.731030 0.500000 -0.515843
O35   O     O_R   0.335940 0.776100 0.380310 -0.498702
O36   O     O_R   0.216220 0.223880 0.619710 -0.494894
O37   O     O_R   0.783780 0.223880 0.380290 -0.503319
O38   O     O_R   0.716220 0.723880 0.619710 -0.503142
O39   O     O_R   0.283780 0.723880 0.380290 -0.494727
O40   O     O_R   0.579750 0.454880 0.430680 -0.489208
O41   O     O_R   0.420250 0.454880 0.569320 -0.459589
O42   O     O_R   0.079750 0.954880 0.430680 -0.459856
O43   O     O_R   0.920250 0.954880 0.569320 -0.490290
O44   O     O_3   0.434784 0.353893 0.549097 -0.534669
O45   O     O_R   0.510480 0.454840 0.569230 -0.471428
O46   O     O_3   0.498597 0.371229 0.621044 -0.537418
O47   O     O_3   0.001405 0.871332 0.378656 -0.537632
O48   O     O_3   0.065551 0.853946 0.450373 -0.534612
O49   O     O_2   0.304504 0.464835 0.610859 -0.526596
O50   O     O_R   0.256184 0.497067 0.579034 -0.668444
O51   O     O_2   0.648383 0.380037 0.333240 -0.550593
O52   O     O_R   0.743001 0.399106 0.216343 -0.649510
O53   O     O_2   0.851863 0.879951 0.666577 -0.550509
O54   O     O_R   0.757270 0.898961 0.783653 -0.650319
O55   O     O_2   0.195410 0.964929 0.389562 -0.526907
O56   O     O_R   0.489520 0.454840 0.430770 -0.495107
O57   O     O_R   0.243495 0.997139 0.421779 -0.668718
O58   O     O_2   0.359218 0.512483 0.397453 -0.441266
O59   O     O_R   0.446381 0.488582 0.355238 -0.677215
O60   O     O_2   0.773277 0.472741 0.266886 -0.437975
O61   O     O_R   0.688831 0.496677 0.394092 -0.683316
O62   O     O_2   0.726725 0.972605 0.733502 -0.438219
O63   O     O_R   0.811050 0.996611 0.606286 -0.683604
O64   O     O_2   0.140285 0.012384 0.603341 -0.442876
O65   O     O_R   0.053235 0.988401 0.645312 -0.680825
O66   O     O_3   0.338576 0.421150 0.380679 -0.535391
O67   O     O_R   0.010480 0.954840 0.569230 -0.496827
O68   O     O_3   0.792351 0.405084 0.339221 -0.529111
O69   O     O_3   0.707591 0.904968 0.661194 -0.530090
O70   O     O_3   0.161040 0.921017 0.619857 -0.535574
O71   O     O_3   0.007815 0.167344 0.530834 -0.578221
O72   O     O_3   0.986714 0.085951 0.305689 -0.540292
O73   O     O_3   0.513139 0.586137 0.694378 -0.540690
O74   O     O_3   0.491971 0.666608 0.469223 -0.571907
O75   O     O_2   0.930228 0.114076 0.681116 -0.496856
O76   O     O_R   0.929366 0.176075 0.737884 -0.715119
O77   O     O_2   0.895614 0.001738 0.412501 -0.523566
O78   O     O_R   0.989520 0.954840 0.430770 -0.471961
O79   O     O_R   0.926434 0.016915 0.288006 -0.680053
O80   O     O_2   0.604154 0.501830 0.587833 -0.523059
O81   O     O_R   0.573291 0.517122 0.712328 -0.680474
O82   O     O_2   0.554629 0.613373 0.294751 -0.512604
O83   O     O_R   0.588174 0.681204 0.287082 -0.679171
O84   O     O_R   0.079740 0.045080 0.430720 -0.539115

loop_
_geom_bond_atom_site_label_1
_geom_bond_atom_site_label_2
_ccdc_geom_bond_type
C115  C141  S    
C60   C79   S    
C133  C137  S    
C24   C61   A    
C78   O73   S    
Cu1   O31   S    
C149  H8    S    
C37   H42   S    
C44   O60   D    
C50   H64   S    
C65   O10   A    
C82   C120  S    
C136  C140  S    
C2    C65   S    
H49   O50   S    
C135  C139  S    
C121  H2    S    
C86   H67   S    
C34   H37   S    
Cu4   O67   S    
C99   H31   S    
C45   C139  S    
C50   H65   S    
C127  O48   S    
C48   O66   S    
Cu2   O45   S    
C40   C138  S    
C70   C74   A    
C91   C100  A    
C35   H14   S    
C21   C22   A    
C10   O33   A    
C53   H76   S    
C50   O69   S    
Cu3   Cu4   S    
C63   H19   S    
C116  C121  A    
C137  C146  S    
C141  O27   A    
Cu3   O6    S    
C80   H22   S    
C84   H45   S    
Cu6   O25   S    
C93   O14   A    
C56   O76   S    
C17   C21   A    
C6    O7    A    
C19   C23   A    
C83   C131  S    
C78   C82   S    
Cu12  O56   S    
C68   C72   A    
C59   O81   S    
C79   O74   S    
C34   O44   S    
C28   C33   T    
C21   H9    S    
C74   C79   S    
C143  O24   A    
C132  C152  S    
C37   H44   S    
C65   O12   A    
C52   H72   S    
Cu3   O84   S    
Cu1   O1    S    
C122  H3    S    
C151  O41   A    
C46   H15   S    
C112  C134  A    
Cu9   O28   S    
C57   H16   S    
C85   C90   A    
C42   O55   D    
C51   H69   S    
Cu1   O14   S    
C11   O35   A    
C104  C110  T    
C125  O46   S    
C24   C131  A    
C66   C70   A    
C48   H58   S    
C6    O3    A    
C152  O67   A    
C24   C87   S    
C85   C97   A    
C8    O36   A    
C34   H36   S    
C58   O77   D    
C113  C135  A    
C144  O29   A    
C114  C136  A    
C38   H48   S    
C37   O47   S    
C6    C69   S    
C2    C109  A    
C38   O48   S    
C7    O4    A    
C150  O40   A    
C83   H26   S    
C10   C108  S    
C56   O75   D    
Cu5   O24   S    
C95   O20   A    
C10   O38   A    
C94   O15   A    
H53   O59   S    
C113  C148  S    
Cu2   Cu12  S    
C101  H33   S    
C13   C57   A    
C41   O54   S    
H55   O63   S    
C82   H29   S    
C1    C142  S    
C58   C77   S    
C123  C127  A    
C75   O71   S    
C47   C140  S    
C47   O65   S    
C144  O25   A    
C12   H12   S    
C56   C75   S    
C74   C131  A    
C98   C142  A    
C11   C110  S    
C36   H41   S    
C54   O73   S    
C59   C78   S    
H84   O76   S    
C139  C148  S    
Cu3   O42   S    
C42   C140  S    
C117  C144  S    
H85   O79   S    
C111  C146  S    
Cu12  O40   S    
C126  O47   S    
C48   H60   S    
C96   O17   A    
C76   O23   A    
C40   O51   D    
Cu9   O37   S    
C117  C122  A    
C60   O83   S    
C121  C125  A    
C125  C129  A    
C36   O46   S    
C58   O79   S    
C132  C136  A    
C102  C107  T    
C64   C69   A    
C38   H46   S    
C19   C28   S    
C113  C117  A    
C123  H4    S    
C36   H39   S    
C115  C119  A    
C82   H25   S    
C149  O70   S    
C49   H61   S    
C33   C96   S    
C148  O69   S    
C112  C116  A    
C13   C120  A    
Cu4   O5    S    
Cu10  O29   S    
C53   O72   S    
C72   C109  A    
C146  O66   S    
C44   C138  S    
Cu4   O43   S    
C47   O64   D    
C18   C22   A    
C118  C145  S    
C9    C107  S    
C31   C94   S    
C112  C147  S    
C147  O68   S    
C54   H79   S    
Cu1   Cu8   S    
C3    O43   A    
C34   H38   S    
C143  O28   A    
C50   H66   S    
C35   C142  A    
C64   H20   S    
C32   C95   S    
C146  H5    S    
C124  O44   S    
C140  C149  S    
C51   O70   S    
Cu6   O33   S    
Cu7   O17   S    
C4    O5    A    
C90   C99   A    
C43   O58   D    
C130  C135  A    
C44   O61   S    
C53   H75   S    
C7    C70   S    
Cu2   O4    S    
C15   C19   A    
C151  O56   A    
C39   O50   S    
C85   H56   S    
C29   C32   T    
C86   C91   A    
C88   H78   S    
C25   H13   S    
C23   H11   S    
C20   C25   A    
C126  C130  A    
C148  H7    S    
C3    O78   A    
C45   O63   S    
C63   C68   A    
C55   H82   S    
C12   C17   A    
C69   C73   A    
H54   O61   S    
C49   H63   S    
C81   H24   S    
C147  H6    S    
C124  C128  A    
C11   O39   A    
C73   C120  A    
C37   H43   S    
H86   O81   S    
C7    O8    A    
C5    C68   S    
C1    O1    A    
H50   O52   S    
C150  O45   A    
Cu7   O34   S    
C54   H77   S    
Cu6   O23   S    
C15   H34   S    
C2    C46   A    
C9    O32   A    
C62   H18   S    
Cu3   O78   S    
C55   O74   S    
Cu11  O30   S    
C77   C81   S    
C60   O82   D    
C88   C100  A    
C92   C101  A    
C87   O13   A    
Cu5   O32   S    
C81   C109  S    
C42   O57   S    
C80   H27   S    
Cu5   Cu9   S    
Cu11  O21   S    
C8    O31   A    
C80   C98   S    
C84   C99   A    
Cu10  O38   S    
C16   H23   S    
C8    C106  S    
H57   O65   S    
C46   C63   A    
C61   H17   S    
H51   O54   S    
C79   C83   S    
H52   O57   S    
C41   O53   D    
C67   C71   A    
C118  C123  A    
C90   C103  S    
C41   C139  S    
C129  C134  A    
C92   C105  S    
Cu5   O12   S    
C66   H21   S    
C114  C149  S    
C119  H88   S    
Cu11  O39   S    
Cu2   O7    S    
C52   H71   S    
C9    O37   A    
C39   C137  S    
Cu2   O41   S    
C89   C102  S    
C3    C130  S    
C14   C18   A    
C145  O26   A    
C87   O34   A    
C91   C104  S    
H87   O83   S    
C119  C124  A    
Cu9   O19   S    
Cu10  O20   S    
C52   O71   S    
C62   C67   A    
C51   H70   S    
C17   C26   S    
C97   H32   S    
C43   O59   S    
C30   C93   S    
C15   C16   A    
C40   O52   S    
C127  C132  A    
C61   C66   A    
C93   O18   A    
C88   C92   A    
C73   C78   S    
Cu1   O22   S    
C38   H47   S    
C103  C106  T    
C75   C80   S    
C16   C20   A    
C26   C31   T    
C55   H83   S    
Cu11  O13   S    
C27   C30   T    
C96   O21   A    
Cu8   O27   S    
C141  O22   A    
C145  O30   A    
Cu9   O10   S    
C22   H10   S    
Cu4   O2    S    
C20   C29   S    
Cu5   O15   S    
C71   C98   A    
Cu6   O16   S    
C111  C133  A    
C59   O80   D    
Cu7   O35   S    
C89   C97   A    
Cu8   O36   S    
C54   H80   S    
C5    O2    A    
C122  C126  A    
C152  O42   A    
C81   H28   S    
C72   C77   S    
C116  C143  S    
C128  C151  S    
C13   C76   S    
C138  C147  S    
C105  C108  T    
C14   H1    S    
C114  C118  A    
C52   H73   S    
C1    O9    A    
C76   O11   A    
C12   C14   A    
C4    O84   A    
Cu12  O8    S    
Cu8   O9    S    
Cu7   Cu11  S    
C84   C89   A    
C57   C64   A    
C51   H68   S    
C18   C27   S    
C53   H74   S    
C134  C138  S    
C4    C67   S    
C48   H59   S    
Cu8   O18   S    
C39   O49   D    
C83   H30   S    
C129  C150  S    
C49   O68   S    
C128  C133  A    
C71   C75   S    
C95   O16   A    
Cu10  O11   S    
C94   O19   A    
C5    O6    A    
C77   O72   S    
C43   C137  S    
C35   C62   A    
C23   C25   A    
C45   O62   D    
Cu6   Cu10  S    
Cu12  O3    S    
C100  H35   S    
C55   H81   S    
Cu7   O26   S    
C111  C115  A    
C36   H40   S    
C49   H62   S    
C86   C101  A    
