data_mof_unit_23901.cif
_audit_creation_date              2012-12-10T20:31:58-0500
_audit_creation_method            fapswitch 2.2
_symmetry_space_group_name_H-M    P1
_symmetry_Int_Tables_number       1
_space_group_crystal_system       triclinic
_cell_length_a                    9.896971
_cell_length_b                    10.705624
_cell_length_c                    15.564825
_cell_angle_alpha                 90.448001
_cell_angle_beta                  66.19246
_cell_angle_gamma                 88.185157
_cell_volume                      1507.67282269

loop_
_atom_site_label
_atom_site_type_symbol
_atom_type_description
_atom_site_fract_x
_atom_site_fract_y
_atom_site_fract_z
_atom_type_partial_charge
C1    C     C_R   0.503764 0.739291 0.491847 0.931114
C2    C     C_R   0.732497 0.448057 0.028659 0.131380
C3    C     C_R   0.587282 0.493030 0.086363 0.011898
C4    C     C_R   0.406235 0.498994 0.676621 0.932812
C5    C     C_R   0.835619 0.421670 0.068263 0.424150
C6    C     C_R   0.793014 0.442496 0.165208 -0.272924
C7    C     C_R   0.558672 0.531058 0.178295 -0.259052
C8    C     C_R   0.393923 0.940455 0.474555 0.097455
C9    C     C_R   0.517548 0.868766 0.467654 -0.272729
C10   C     C_R   0.654911 0.926970 0.439180 0.312384
C11   C     C_R   0.654988 0.056801 0.449847 0.352792
C12   C     C_R   0.412011 0.498237 0.913599 0.007742
C13   C     C_R   0.519264 0.126751 0.477962 -0.281519
C14   C     C_R   0.395497 0.067438 0.479292 0.079665
C15   C     C_3   0.237678 0.079959 0.547368 -0.387209
C16   C     C_R   0.504749 0.259354 0.496239 0.959712
C17   C     C_3   0.235123 0.938967 0.540928 -0.434820
C18   C     C_R   0.878060 0.541584 0.577148 0.187047
C19   C     C_R   0.977080 0.445307 0.428528 0.489516
C20   C     C_R   0.119694 0.444052 0.429383 -0.122460
C21   C     C_R   0.020322 0.541813 0.577247 0.153690
C22   C     C_3   0.991235 0.670242 0.620004 -0.482844
C23   C     C_R   0.273460 0.556669 0.969301 -0.090293
C24   C     C_3   0.837521 0.668498 0.621098 -0.451800
C25   C     C_R   0.593419 0.500795 0.323345 0.906338
C26   C     C_R   0.344525 0.502190 0.779787 -0.259999
C27   C     C_R   0.653564 0.495816 0.220377 -0.107840
C28   C     C_R   0.174283 0.590944 0.929575 -0.102593
C29   C     C_R   0.209371 0.566289 0.834999 0.410750
C30   C     C_R   0.435384 0.455415 0.822728 0.285383
C31   C     C_R   0.519957 0.484029 0.951627 0.075758
C32   C     C_R   0.476850 0.502674 0.049684 -0.053703
C33   C     C_R   0.324252 0.530182 0.106899 0.441972
C34   C     C_R   0.230207 0.570446 0.065705 -0.151091
C35   C     C_R   0.670787 0.459518 0.893826 -0.155031
C36   C     C_R   0.773248 0.434629 0.932057 -0.142363
Cl1   Cl    Cl    0.826665 0.841131 0.391585 -0.528062
Cl2   Cl    Cl    0.823224 0.123174 0.436495 -0.473726
Cl3   Cl    Cl    0.960872 0.376434 0.331595 -0.539008
Cl4   Cl    Cl    0.548893 0.319755 0.771235 -0.596302
H1    H     H_    0.117665 0.600748 0.110317 0.189531
H2    H     H_    0.748578 0.666397 0.693086 0.202273
H3    H     H_    0.818752 0.738301 0.574231 0.258347
H4    H     H_    0.867437 0.415171 0.196979 0.224483
H5    H     H_    0.886012 0.409231 0.885081 0.199718
H6    H     H_    0.068191 0.636017 0.972322 0.174716
H7    H     H_    0.712424 0.461605 0.818195 0.189032
H8    H     H_    0.031092 0.356930 0.051230 0.355854
H9    H     H_    0.096165 0.532074 0.763606 0.340111
H10   H     H_    0.308551 0.430961 0.211970 0.341045
H11   H     H_    0.224674 0.115496 0.617734 0.207899
H12   H     H_    0.167006 0.128957 0.516935 0.234462
H13   H     H_    0.217410 0.892174 0.607989 0.211373
H14   H     H_    0.165169 0.909286 0.504417 0.229595
H15   H     H_    0.212150 0.399003 0.372513 0.184691
H16   H     H_    0.989509 0.674163 0.691491 0.245186
H17   H     H_    0.460207 0.586214 0.219701 0.222192
H18   H     H_    0.061897 0.738192 0.570904 0.222736
N1    N     N_R   0.856900 0.500860 0.500610 -0.132162
N2    N     N_R   0.142540 0.500820 0.500610 -0.132719
O1    O     O_R   0.385310 0.683210 0.499990 -0.614377
O2    O     O_3   0.108053 0.603948 0.800003 -0.781496
O3    O     O_3   0.259375 0.507894 0.201474 -0.746787
O4    O     O_R   0.614650 0.683240 0.500000 -0.582434
O5    O     O_R   0.319830 0.499970 0.632240 -0.618586
O6    O     O_R   0.549170 0.500000 0.632250 -0.583022
O7    O     O_R   0.385350 0.316760 0.500000 -0.631258
O8    O     O_R   0.614690 0.316790 0.500010 -0.527811
O9    O     O_R   0.450830 0.500000 0.367750 -0.629785
O10   O     O_R   0.680170 0.500030 0.367760 -0.552052
O11   O     O_3   0.973599 0.370294 0.012398 -0.770949
Zn1   Zn    Zn3+2 0.346870 0.499980 0.499990 0.964725
Zn2   Zn    Zn3+2 0.653130 0.500020 0.500010 1.079279

loop_
_geom_bond_atom_site_label_1
_geom_bond_atom_site_label_2
_ccdc_geom_bond_type
C11   Cl2   S    
C18   C21   A    
C24   H2    S    
C35   C36   A    
C35   H7    S    
C12   C23   A    
C28   H6    S    
C10   Cl1   S    
C18   C24   S    
C28   C29   A    
C3    C7    A    
C4    O5    A    
N2    Zn1   S    
C7    C27   A    
O7    Zn1   S    
C31   C32   A    
C8    C9    A    
O4    Zn2   S    
C16   O8    A    
C15   H11   S    
C20   N2    A    
C9    C10   A    
N1    Zn2   S    
C6    H4    S    
C13   C14   A    
H10   O3    S    
C34   H1    S    
C20   H15   S    
C1    C9    S    
C21   N2    A    
C22   H16   S    
C19   N1    A    
O8    Zn2   S    
C23   C28   A    
O6    Zn2   S    
O9    Zn1   S    
C6    C27   A    
C33   O3    S    
C23   C34   A    
O10   Zn2   S    
C33   C34   A    
C30   Cl4   S    
C36   H5    S    
C16   O7    A    
C15   H12   S    
C19   Cl3   S    
O1    Zn1   S    
C26   C30   A    
C12   C31   A    
C22   C24   S    
C2    C5    A    
C25   O9    A    
H8    O11   S    
C1    O4    A    
C17   H13   S    
C2    C36   A    
C15   C17   S    
C29   O2    S    
C8    C14   A    
H9    O2    S    
C12   C30   A    
C1    O1    A    
C22   H18   S    
C4    C26   S    
C25   C27   S    
O5    Zn1   S    
C8    C17   S    
C32   C33   A    
C19   C20   A    
C2    C3    A    
C5    O11   S    
C4    O6    A    
C11   C13   A    
C5    C6    A    
C31   C35   A    
C3    C32   A    
C10   C11   A    
C18   N1    A    
C26   C29   A    
C13   C16   S    
C24   H3    S    
C14   C15   S    
C25   O10   A    
C21   C22   S    
C17   H14   S    
C7    H17   S    
