data_mof_unit_40320.cif
_audit_creation_date              2012-12-10T19:01:24-0500
_audit_creation_method            fapswitch 2.2
_symmetry_space_group_name_H-M    P1
_symmetry_Int_Tables_number       1
_space_group_crystal_system       triclinic
_cell_length_a                    9.596961
_cell_length_b                    10.825567
_cell_length_c                    15.552333
_cell_angle_alpha                 89.488113
_cell_angle_beta                  73.704915
_cell_angle_gamma                 91.126769
_cell_volume                      1550.3891647

loop_
_atom_site_label
_atom_site_type_symbol
_atom_type_description
_atom_site_fract_x
_atom_site_fract_y
_atom_site_fract_z
_atom_type_partial_charge
C1    C     C_R   0.998370 0.262751 0.501169 0.784594
C2    C     C_R   0.227718 0.493605 0.041315 -0.026212
C3    C     C_R   0.328554 0.515656 0.091200 0.035727
C4    C     C_R   0.918255 0.502542 0.671889 0.784251
C5    C     C_R   0.078243 0.487786 0.084912 -0.275299
C6    C     C_R   0.027091 0.494096 0.178289 0.475337
C7    C     C_R   0.276854 0.506747 0.184833 -0.246972
C8    C     C_R   0.126417 0.068218 0.476694 0.051581
C9    C     C_R   0.996159 0.129715 0.505838 -0.133006
C10   C     C_R   0.867164 0.061101 0.542384 -0.203636
C11   C     C_R   0.869368 0.932036 0.542038 -0.209806
C12   C     C_R   0.677866 0.527398 0.907160 0.120506
C13   C     C_R   0.000223 0.870898 0.504253 -0.081116
C14   C     C_R   0.128773 0.941044 0.474660 -0.058760
C15   C     C_3   0.249826 0.946558 0.387892 0.245329
C16   C     C_R   0.001052 0.737524 0.499798 0.818914
C17   C     C_3   0.245902 0.087403 0.392134 0.261998
C18   C     C_R   0.605333 0.560948 0.433996 0.265435
C19   C     C_R   0.542146 0.428735 0.559495 0.218312
C20   C     C_R   0.395433 0.428459 0.558127 -0.001800
C21   C     C_R   0.457944 0.561436 0.434511 0.233080
C22   C     C_3   0.464731 0.696264 0.415540 -0.510980
C23   C     C_R   0.773515 0.584636 0.949751 0.091791
C24   C     C_3   0.623616 0.695878 0.413088 -0.495684
C25   C     C_R   0.082248 0.500138 0.327813 0.826951
C26   C     C_R   0.875361 0.520420 0.769134 -0.079187
C27   C     C_R   0.127964 0.500631 0.228985 -0.162758
C28   C     C_R   0.918123 0.611323 0.901388 -0.136821
C29   C     C_R   0.967890 0.581879 0.810925 -0.121452
C30   C     C_R   0.735034 0.487072 0.818995 -0.244490
C31   C     C_3   0.083811 0.913246 0.299321 -0.289083
C32   C     C_3   0.472780 0.175458 0.331047 -0.328507
C33   C     C_3   0.810412 0.387592 0.214789 -0.343125
C34   C     C_R   0.527876 0.514550 0.952766 -0.051348
C35   C     C_3   0.181360 0.330080 0.877051 -0.342869
C36   C     C_R   0.478060 0.540521 0.045769 0.065976
C37   C     C_R   0.577325 0.598908 0.087078 0.155247
C38   C     C_R   0.722698 0.619082 0.038779 -0.280111
C39   C     C_R   0.425268 0.486090 0.905796 -0.296930
C40   C     C_R   0.277411 0.476696 0.948762 0.488444
Cu1   Cu    Cu3+1 0.140670 0.499980 0.500000 0.962604
Cu2   Cu    Cu3+1 0.859330 0.500020 0.500000 0.945147
H1    H     H_    0.795451 0.665623 0.070891 0.163281
H2    H     H_    0.397361 0.747613 0.473474 0.212475
H3    H     H_    0.698192 0.715234 0.345240 0.209385
H4    H     H_    0.646705 0.750696 0.467751 0.215431
H5    H     H_    0.991323 0.658467 0.932760 0.149843
H6    H     H_    0.077523 0.608970 0.773473 0.168001
H7    H     H_    0.672607 0.427962 0.788241 0.131480
H8    H     H_    0.455456 0.478889 0.833917 0.157465
H9    H     H_    0.032598 0.999885 0.328772 0.133659
H10   H     H_    0.011682 0.832860 0.327793 0.175933
H11   H     H_    0.092842 0.917567 0.226682 0.180816
H12   H     H_    0.000288 0.479730 0.046608 0.191781
H13   H     H_    0.433372 0.254057 0.298357 0.159606
H14   H     H_    0.501196 0.096616 0.284332 0.162887
H15   H     H_    0.573356 0.206967 0.346852 0.182280
H16   H     H_    0.665238 0.313164 0.611483 0.263471
H17   H     H_    0.572716 0.424987 0.681001 0.221753
H18   H     H_    0.860555 0.311527 0.243629 0.154752
H19   H     H_    0.810277 0.366418 0.145020 0.160751
H20   H     H_    0.695428 0.392871 0.255181 0.176090
H21   H     H_    0.154056 0.269986 0.938273 0.158628
H22   H     H_    0.287539 0.304390 0.830717 0.170432
H23   H     H_    0.764969 0.106603 0.569157 0.159805
H24   H     H_    0.097004 0.312932 0.841984 0.197499
H25   H     H_    0.551517 0.747555 0.167624 0.233765
H26   H     H_    0.591150 0.615215 0.213527 0.229737
H27   H     H_    0.768454 0.880442 0.569138 0.157624
H28   H     H_    0.352888 0.913515 0.397088 0.130535
H29   H     H_    0.209579 0.136686 0.339164 0.073675
H30   H     H_    0.314737 0.374203 0.607359 0.158126
H31   H     H_    0.446270 0.717655 0.349774 0.226932
H32   H     H_    0.352182 0.498967 0.224445 0.199413
N1    N     N_R   0.648210 0.500930 0.499430 -0.208560
N2    N     N_R   0.352300 0.500890 0.499430 -0.214579
N3    N     N_3   0.569712 0.361517 0.631865 -0.622092
N4    N     N_3   0.529749 0.652350 0.174044 -0.601595
O1    O     O_R   0.118810 0.319640 0.500000 -0.548805
O2    O     O_3   0.369291 0.139918 0.411641 -0.560252
O3    O     O_3   0.879612 0.502475 0.219286 -0.576882
O4    O     O_3   0.180619 0.456207 0.898921 -0.596694
O5    O     O_R   0.881230 0.319680 0.499990 -0.604213
O6    O     O_R   0.055580 0.499970 0.629840 -0.589638
O7    O     O_R   0.818000 0.500010 0.629830 -0.592036
O8    O     O_R   0.118770 0.680320 0.500010 -0.573090
O9    O     O_R   0.881190 0.680360 0.500000 -0.595420
O10   O     O_R   0.182000 0.499990 0.370170 -0.583351
O11   O     O_R   0.944420 0.500030 0.370160 -0.529762
O12   O     O_3   0.224024 0.894702 0.309474 -0.581613

loop_
_geom_bond_atom_site_label_1
_geom_bond_atom_site_label_2
_ccdc_geom_bond_type
C28   H5    S    
C18   N1    A    
C18   C21   A    
Cu1   Cu2   S    
C19   C20   A    
C31   H10   S    
H17   N3    S    
Cu1   O8    S    
C12   C23   A    
Cu2   N1    S    
C18   C24   S    
C24   H3    S    
C28   C29   A    
C3    C7    A    
C5    C6    A    
C7    C27   A    
C20   N2    A    
C19   N3    S    
H16   N3    S    
C22   H2    S    
C33   H20   S    
C4    O6    A    
C16   O9    A    
C35   H22   S    
C9    C10   A    
C32   H13   S    
C6    O3    S    
C13   C14   A    
C16   O8    A    
H25   N4    S    
C32   H15   S    
C35   O4    S    
C7    H32   S    
H26   N4    S    
C29   H6    S    
C34   C39   A    
C15   H28   S    
C40   O4    S    
C5    H12   S    
C1    C9    S    
C39   C40   A    
C8    C9    A    
C4    O7    A    
C35   H24   S    
Cu1   O6    S    
C25   O10   A    
C37   C38   A    
C32   O2    S    
C6    C27   A    
C21   N2    A    
C31   O12   S    
Cu2   O7    S    
C23   C28   A    
C31   H11   S    
C30   H7    S    
C26   C30   A    
C33   H18   S    
C1    O1    A    
C22   C24   S    
C2    C5    A    
C25   C27   S    
C12   C34   A    
C10   H23   S    
C15   C17   S    
Cu1   O10   S    
C36   C37   A    
C8    C14   A    
C12   C30   A    
Cu2   O5    S    
C31   H9    S    
Cu1   O1    S    
C4    C26   S    
C11   H27   S    
C17   H29   S    
C1    O5    A    
C23   C38   A    
C37   N4    S    
C25   O11   A    
C8    C17   S    
Cu2   O11   S    
C24   H4    S    
C19   N1    A    
C2    C3    A    
C38   H1    S    
Cu1   N2    S    
C11   C13   A    
C3    C36   A    
C34   C36   A    
C17   O2    S    
C10   C11   A    
C2    C40   A    
C39   H8    S    
C26   C29   A    
C33   H19   S    
C13   C16   S    
C14   C15   S    
C20   H30   S    
C35   H21   S    
Cu2   O9    S    
C22   H31   S    
C21   C22   S    
C33   O3    S    
C32   H14   S    
C15   O12   S    
