data_mof_unit_7887.cif
_audit_creation_date              2012-12-11T14:49:43-0500
_audit_creation_method            fapswitch 2.2
_symmetry_space_group_name_H-M    P1
_symmetry_Int_Tables_number       1
_space_group_crystal_system       triclinic
_cell_length_a                    16.871294
_cell_length_b                    7.001875
_cell_length_c                    16.894389
_cell_angle_alpha                 89.999518
_cell_angle_beta                  101.069815
_cell_angle_gamma                 90.000784
_cell_volume                      1958.61291797

loop_
_atom_site_label
_atom_site_type_symbol
_atom_type_description
_atom_site_fract_x
_atom_site_fract_y
_atom_site_fract_z
_atom_type_partial_charge
O1    O     O_R   0.579510 0.506290 0.439030 -0.534126
O2    O     O_R   0.420490 0.006290 0.560970 -0.534106
O3    O     O_R   0.412540 0.170090 0.405290 -0.543553
O4    O     O_R   0.587460 0.670090 0.594710 -0.543563
C1    C     C_R   0.385058 0.345997 0.381828 0.650796
C2    C     C_R   0.614943 0.845998 0.618171 0.650748
O5    O     O_R   0.578390 0.176230 0.429330 -0.543318
O6    O     O_R   0.421610 0.676230 0.570670 -0.543310
O7    O     O_R   0.587530 0.011250 0.585190 -0.538098
O8    O     O_R   0.412470 0.511250 0.414810 -0.538098
C3    C     C_R   0.603519 0.346596 0.412214 0.689376
C4    C     C_R   0.396482 0.846593 0.587786 0.689331
O9    O     O_3   0.502800 0.340940 0.551110 -0.368652
O10   O     O_3   0.497200 0.840940 0.448890 -0.368660
V1    V     V_3+5 0.499480 0.064020 0.490520 1.412119
V2    V     V_3+5 0.500520 0.564020 0.509480 1.412093
C5    C     C_R   0.169367 0.894347 0.865041 -0.064868
C6    C     C_R   0.830636 0.394318 0.134961 -0.064886
C7    C     C_R   0.334893 0.866922 0.640151 -0.145772
C8    C     C_R   0.665104 0.366943 0.359846 -0.145722
C9    C     C_R   0.224309 0.064065 0.671453 -0.027613
C10   C     C_R   0.775620 0.564227 0.328482 -0.027602
C11   C     C_R   0.276830 0.011211 0.620100 -0.129641
C12   C     C_R   0.723114 0.511372 0.379848 -0.129693
C13   C     C_R   0.339254 0.767759 0.713771 -0.065330
C14   C     C_R   0.660787 0.267644 0.286266 -0.065141
C15   C     C_R   0.278443 0.799175 0.761222 0.083410
C16   C     C_R   0.721585 0.299104 0.238803 0.083435
C17   C     C_R   0.225108 0.959234 0.743561 0.052015
C18   C     C_R   0.774867 0.459274 0.256415 0.052068
C19   C     C_R   0.173564 0.008525 0.798039 -0.172516
C20   C     C_R   0.826401 0.508568 0.201929 -0.172361
C21   C     C_R   0.217725 0.730103 0.878175 -0.141462
C22   C     C_R   0.782321 0.229998 0.121866 -0.141445
C23   C     C_R   0.268869 0.676073 0.825879 0.010924
C24   C     C_R   0.731195 0.175950 0.174176 0.010922
H1    H     H_    0.134417 0.131543 0.788320 0.107358
H2    H     H_    0.865511 0.631658 0.211610 0.107365
H3    H     H_    0.211769 0.635648 0.927558 0.152333
H4    H     H_    0.788300 0.135502 0.072505 0.152375
H5    H     H_    0.274229 0.088438 0.563999 0.157101
H6    H     H_    0.725684 0.588705 0.435918 0.157126
C25   C     C_3   0.747713 0.766422 0.833131 -0.310131
C26   C     C_3   0.252277 0.266384 0.166874 -0.310167
H7    H     H_    0.774564 0.623537 0.849685 0.133344
H8    H     H_    0.225415 0.123505 0.150325 0.133344
H9    H     H_    0.725945 0.820922 0.887049 0.168833
H10   H     H_    0.274052 0.320857 0.112955 0.168846
C27   C     C_3   0.674660 0.743183 0.762128 -0.321458
C28   C     C_3   0.325326 0.243130 0.237880 -0.321419
H11   H     H_    0.618204 0.787309 0.782001 0.172517
H12   H     H_    0.381788 0.287199 0.218005 0.172545
H13   H     H_    0.667883 0.589897 0.744697 0.145443
H14   H     H_    0.332082 0.089847 0.255323 0.145450
H15   H     H_    0.759957 0.647266 0.644756 0.130646
H16   H     H_    0.240025 0.147338 0.355272 0.130642
C29   C     C_3   0.840295 0.831992 0.733046 -0.124799
C30   C     C_3   0.159702 0.332036 0.266957 -0.124798
C31   C     C_3   0.769694 0.100155 0.789865 -0.353036
C32   C     C_3   0.230324 0.600150 0.210118 -0.353032
C33   C     C_3   0.812538 0.906101 0.811176 0.029963
C34   C     C_3   0.187464 0.406103 0.188822 0.029968
H17   H     H_    0.813088 0.206096 0.773877 0.137704
H18   H     H_    0.186942 0.706123 0.226102 0.137698
H19   H     H_    0.747368 0.157372 0.843037 0.153086
H20   H     H_    0.252651 0.657335 0.156941 0.153093
C35   C     C_3   0.686533 0.865165 0.688834 0.079654
C36   C     C_3   0.313468 0.365165 0.311164 0.079615
C37   C     C_3   0.765837 0.800062 0.663358 -0.366231
C38   C     C_3   0.234158 0.300123 0.336649 -0.366217
C39   C     C_3   0.698101 0.077582 0.718006 -0.287843
C40   C     C_3   0.301920 0.577574 0.281974 -0.287844
H21   H     H_    0.641947 0.130135 0.736192 0.150744
H22   H     H_    0.358077 0.630082 0.263780 0.150758
H23   H     H_    0.709414 0.170217 0.667764 0.146412
H24   H     H_    0.290621 0.670249 0.332209 0.146409
H25   H     H_    0.878691 0.945232 0.713259 0.140437
H26   H     H_    0.121310 0.445296 0.286735 0.140444
H27   H     H_    0.774704 0.882308 0.609346 0.155364
H28   H     H_    0.225298 0.382419 0.390650 0.155409
O11   O     O_R   0.087500 0.266000 0.085220 -0.540311
O12   O     O_R   0.912500 0.766000 0.914780 -0.540314
O13   O     O_R   0.921600 0.589950 0.070670 -0.538332
O14   O     O_R   0.078400 0.089950 0.929330 -0.538338
C41   C     C_R   0.894255 0.419909 0.085422 0.718931
C42   C     C_R   0.105744 0.919914 0.914576 0.718909
O15   O     O_R   0.087460 0.596020 0.094710 -0.545820
O16   O     O_R   0.912540 0.096020 0.905290 -0.545819
O17   O     O_R   0.079520 0.760970 0.939020 -0.535706
O18   O     O_R   0.920480 0.260970 0.060980 -0.535717
C43   C     C_R   0.116280 0.425868 0.117890 0.670549
C44   C     C_R   0.883721 0.925867 0.882108 0.670533
O19   O     O_3   0.997180 0.425140 0.948910 -0.367123
O20   O     O_3   0.002820 0.925140 0.051090 -0.367125
V3    V     V_3+5 0.000520 0.702080 0.009480 1.451815
V4    V     V_3+5 0.999480 0.202080 0.990520 1.451807
C45   C     C_2   0.890636 0.652351 0.747138 0.398738
H29   H     H_    0.864599 0.521175 0.764611 0.035880
O21   O     O_2   0.960963 0.653144 0.738884 -0.530733
C46   C     C_2   0.109355 0.152397 0.252878 0.398777
H30   H     H_    0.135392 0.021191 0.235437 0.035866
O22   O     O_2   0.039022 0.153221 0.261112 -0.530724
C47   C     C_2   0.167662 0.225554 0.645875 0.353281
H31   H     H_    0.111932 0.240195 0.668062 0.073514
O23   O     O_2   0.182351 0.344894 0.597941 -0.530042
C48   C     C_2   0.832198 0.725870 0.353994 0.353029
H32   H     H_    0.887941 0.740510 0.331833 0.073571
O24   O     O_2   0.817438 0.845331 0.401844 -0.530093
C49   C     C_2   0.300931 0.477395 0.833201 0.460491
H33   H     H_    0.316078 0.405201 0.781289 0.038314
O25   O     O_2   0.309001 0.390183 0.896872 -0.516621
C50   C     C_2   0.699189 0.977224 0.166897 0.460336
H34   H     H_    0.684057 0.905058 0.218823 0.038395
O26   O     O_2   0.691151 0.889937 0.103247 -0.516663
C51   C     C_2   0.414792 0.661809 0.747067 0.308054
H35   H     H_    0.443152 0.569735 0.709196 0.075187
O27   O     O_2   0.447490 0.681342 0.817627 -0.501287
C52   C     C_2   0.585299 0.161468 0.253013 0.308039
H36   H     H_    0.557036 0.069219 0.290898 0.075298
O28   O     O_2   0.552547 0.180963 0.182466 -0.501307

loop_
_geom_bond_atom_site_label_1
_geom_bond_atom_site_label_2
_ccdc_geom_bond_type
C30   C34   S    
C18   C20   A    
O16   V4    S    
O4    V2    S    
O15   C43   A    
C15   C17   A    
C12   H6    S    
O1    C3    A    
C40   H24   S    
O2    C4    A    
C2    O7    A    
C50   O26   D    
C45   H29   S    
O5    C3    A    
C28   H14   S    
C48   O24   D    
C22   H4    S    
O14   C42   A    
C13   C51   S    
C48   H32   S    
C32   C40   S    
C51   H35   S    
O12   C44   A    
C32   C34   S    
O14   V4    S    
C29   C33   S    
C8    C12   A    
C52   H36   S    
C29   C45   S    
O16   C44   A    
C27   H11   S    
O15   V3    S    
C24   C50   S    
C28   H12   S    
C20   H2    S    
C10   C18   A    
C22   C24   A    
C23   C49   S    
C33   C44   S    
C36   C40   S    
O5    V1    S    
C32   H20   S    
O6    V2    S    
C5    C21   A    
C1    C36   S    
C50   H34   S    
C45   O21   D    
C26   H8    S    
C3    C8    S    
C31   C33   S    
C6    C41   S    
C38   H28   S    
C5    C42   S    
C29   H25   S    
C30   C46   S    
C40   H22   S    
C39   H21   S    
O11   V4    S    
C30   C38   S    
C15   C23   A    
C10   C48   S    
C9    C17   A    
C19   H1    S    
C35   C37   S    
O11   C43   A    
O17   V3    S    
C7    C11   A    
C25   H7    S    
O6    C4    A    
O13   V3    S    
C34   C43   S    
C46   O22   D    
C47   O23   D    
O1    V2    S    
C21   H3    S    
O20   V4    S    
O2    V1    S    
C6    C22   A    
H15   C37   S    
O4    C2    A    
C2    C35   S    
O13   C41   A    
O19   V4    S    
H16   C38   S    
C9    C11   A    
C5    C19   A    
C10   C12   A    
C37   H27   S    
C6    C20   A    
O3    V1    S    
C25   C33   S    
C26   C28   S    
C51   O27   D    
O12   V3    S    
C27   C35   S    
C31   H17   S    
C25   C27   S    
C14   C52   S    
C25   H9    S    
O3    C1    A    
C42   O17   A    
C41   O18   A    
O18   V4    S    
C13   C15   A    
C14   C16   A    
C11   H5    S    
C32   H18   S    
C26   C34   S    
C49   O25   D    
O7    V1    S    
C1    O8    A    
C17   C19   A    
O8    V2    S    
C49   H33   S    
C31   H19   S    
C39   H23   S    
O19   V3    S    
C8    C14   A    
C27   H13   S    
C4    C7    S    
C16   C18   A    
C46   H30   S    
C21   C23   A    
C35   C39   S    
O20   V3    S    
C7    C13   A    
C52   O28   D    
C30   H26   S    
C9    C47   S    
C16   C24   A    
C36   C38   S    
O9    V2    S    
C47   H31   S    
O10   V1    S    
C29   C37   S    
C28   C36   S    
C26   H10   S    
C31   C39   S    
