data_mof_unit_58566.cif
_audit_creation_date              2012-12-11T17:34:17-0500
_audit_creation_method            fapswitch 2.2
_symmetry_space_group_name_H-M    P1
_symmetry_Int_Tables_number       1
_space_group_crystal_system       triclinic
_cell_length_a                    23.715996
_cell_length_b                    7.222802
_cell_length_c                    20.677376
_cell_angle_alpha                 90.000245
_cell_angle_beta                  105.512042
_cell_angle_gamma                 90.00016
_cell_volume                      3412.9324754

loop_
_atom_site_label
_atom_site_type_symbol
_atom_type_description
_atom_site_fract_x
_atom_site_fract_y
_atom_site_fract_z
_atom_type_partial_charge
O1    O     O_R   0.449110 0.494310 0.552140 -0.538876
O2    O     O_R   0.550890 0.994310 0.447860 -0.538877
O3    O     O_R   0.440010 0.824420 0.415850 -0.534283
O4    O     O_R   0.559990 0.324420 0.584150 -0.534285
C1    C     C_R   0.425530 0.655819 0.390767 0.668226
C2    C     C_R   0.574470 0.155820 0.609233 0.668227
O5    O     O_R   0.442260 0.824040 0.549660 -0.541609
O6    O     O_R   0.557740 0.324040 0.450340 -0.541609
O7    O     O_R   0.553160 0.993960 0.582620 -0.528835
O8    O     O_R   0.446840 0.493960 0.417380 -0.528839
C3    C     C_R   0.428828 0.655429 0.567865 0.688550
C4    C     C_R   0.571172 0.155429 0.432135 0.688544
O9    O     O_3   0.536380 0.660670 0.510660 -0.374074
O10   O     O_3   0.463620 0.160670 0.489340 -0.374075
V1    V     V_3+5 0.493250 0.935680 0.498020 1.417757
V2    V     V_3+5 0.506750 0.435680 0.501980 1.417759
C5    C     C_R   0.822654 0.910415 0.169805 -0.129772
C6    C     C_R   0.177318 0.410415 0.830161 -0.129778
H1    H     H_    0.805595 0.784385 0.185836 0.108844
H2    H     H_    0.194355 0.284386 0.814102 0.108834
C7    C     C_R   0.862204 0.898492 0.130101 -0.165120
C8    C     C_R   0.137769 0.398492 0.869865 -0.165112
H3    H     H_    0.874705 0.762730 0.116544 0.122501
H4    H     H_    0.125245 0.262731 0.883394 0.122494
C9    C     C_R   0.885485 0.059830 0.108702 -0.053305
C10   C     C_R   0.114515 0.559829 0.891299 -0.053307
C11   C     C_R   0.867633 0.233057 0.127926 -0.168551
C12   C     C_R   0.132396 0.733056 0.872110 -0.168563
H5    H     H_    0.884266 0.360698 0.112625 0.125932
H6    H     H_    0.115786 0.860695 0.887441 0.125941
C13   C     C_R   0.828140 0.244473 0.167522 -0.135175
C14   C     C_R   0.171889 0.744472 0.832514 -0.135167
H7    H     H_    0.815394 0.379397 0.181694 0.108190
H8    H     H_    0.184656 0.879396 0.818370 0.108199
C15   C     C_R   0.805531 0.083463 0.188854 0.131135
C16   C     C_R   0.194469 0.583463 0.811147 0.131133
C17   C     C_1   0.765198 0.096487 0.230549 -0.048811
C18   C     C_1   0.234802 0.596489 0.769451 -0.048813
C19   C     C_1   0.731638 0.108215 0.265541 -0.044595
C20   C     C_1   0.268362 0.608217 0.734458 -0.044596
C21   C     C_R   0.667760 0.960356 0.327419 -0.114170
C22   C     C_R   0.332234 0.460356 0.672574 -0.114177
H9    H     H_    0.679110 0.825636 0.311545 0.108944
H10   H     H_    0.320880 0.325636 0.688443 0.108938
C23   C     C_R   0.629025 0.971680 0.367940 -0.133281
C24   C     C_R   0.370969 0.471680 0.632053 -0.133289
H11   H     H_    0.611440 0.844188 0.382071 0.119899
H12   H     H_    0.388550 0.344186 0.617917 0.119895
C25   C     C_R   0.613168 0.144644 0.389608 -0.050696
C26   C     C_R   0.386831 0.644645 0.610391 -0.050685
C27   C     C_R   0.637319 0.305840 0.369276 -0.159070
C28   C     C_R   0.362685 0.805842 0.630730 -0.159064
H13   H     H_    0.626198 0.441421 0.384531 0.120335
H14   H     H_    0.373811 0.941424 0.615480 0.120333
C29   C     C_R   0.676127 0.293998 0.328661 -0.121094
C30   C     C_R   0.323878 0.794001 0.671344 -0.121094
H15   H     H_    0.694057 0.419898 0.313695 0.108638
H16   H     H_    0.305951 0.919902 0.686315 0.108639
C31   C     C_R   0.691538 0.121195 0.307520 0.127255
C32   C     C_R   0.308461 0.621197 0.692480 0.127259
C33   C     C_R   0.639419 0.198137 0.798280 -0.045561
C34   C     C_R   0.360586 0.698052 0.201717 -0.045560
H17   H     H_    0.728766 0.183590 0.913036 0.118608
H18   H     H_    0.271240 0.683471 0.086960 0.118608
C35   C     C_R   0.616352 0.150484 0.676922 -0.129350
C36   C     C_R   0.383648 0.650475 0.323079 -0.129348
C37   C     C_R   0.900486 0.018550 0.768108 -0.159369
C38   C     C_R   0.099511 0.518607 0.231893 -0.159370
C39   C     C_R   0.861440 0.017992 0.704625 -0.119243
C40   C     C_R   0.138555 0.518072 0.295377 -0.119241
C41   C     C_R   0.802060 0.051472 0.696457 -0.161309
C42   C     C_R   0.197937 0.551530 0.303545 -0.161308
C43   C     C_R   0.779701 0.086553 0.752309 0.088744
C44   C     C_R   0.220298 0.586565 0.247692 0.088744
C45   C     C_R   0.820453 0.089375 0.817422 0.068469
C46   C     C_R   0.179547 0.589361 0.182577 0.068467
C47   C     C_R   0.718481 0.119484 0.745552 0.081072
C48   C     C_R   0.281519 0.619475 0.254448 0.081073
C49   C     C_R   0.699569 0.160382 0.803847 0.035774
C50   C     C_R   0.300434 0.660324 0.196151 0.035772
C51   C     C_R   0.741068 0.159003 0.867095 -0.190050
C52   C     C_R   0.258936 0.658921 0.132902 -0.190048
C53   C     C_R   0.799889 0.124371 0.873662 -0.174880
C54   C     C_R   0.200113 0.624310 0.126336 -0.174875
C55   C     C_R   0.675443 0.111362 0.682869 -0.205025
C56   C     C_R   0.324555 0.611380 0.317133 -0.205024
C57   C     C_R   0.598092 0.198404 0.734244 -0.054661
C58   C     C_R   0.401912 0.698344 0.265753 -0.054663
C59   C     C_R   0.881043 0.054756 0.824927 -0.082528
C60   C     C_R   0.118957 0.554765 0.175073 -0.082524
H19   H     H_    0.686398 0.077391 0.636984 0.100524
H20   H     H_    0.313598 0.577447 0.363019 0.100519
H21   H     H_    0.946350 0.990826 0.772983 0.104813
H22   H     H_    0.053646 0.490903 0.227019 0.104809
H23   H     H_    0.775032 0.049871 0.645549 0.106656
H24   H     H_    0.224963 0.549950 0.354453 0.106656
H25   H     H_    0.877359 0.990966 0.661101 0.119453
H26   H     H_    0.122634 0.491082 0.338903 0.119453
H27   H     H_    0.829346 0.125616 0.923729 0.109131
H28   H     H_    0.170658 0.625535 0.076268 0.109123
O11   O     O_R   0.053190 0.709680 0.082610 -0.531355
O12   O     O_R   0.946810 0.209680 0.917390 -0.531356
O13   O     O_R   0.057740 0.380240 0.950340 -0.539490
O14   O     O_R   0.942260 0.880240 0.049660 -0.539491
C61   C     C_R   0.071538 0.548971 0.932602 0.674336
C62   C     C_R   0.928462 0.048971 0.067398 0.674337
O15   O     O_R   0.060000 0.379940 0.084150 -0.532134
O16   O     O_R   0.940000 0.879940 0.915850 -0.532133
O17   O     O_R   0.949110 0.210100 0.052140 -0.537916
O18   O     O_R   0.050890 0.710100 0.947860 -0.537915
C63   C     C_R   0.074875 0.548293 0.108972 0.676477
C64   C     C_R   0.925125 0.048292 0.891028 0.676477
O19   O     O_3   0.963630 0.543720 0.989330 -0.371610
O20   O     O_3   0.036370 0.043720 0.010670 -0.371609
V3    V     V_3+5 0.006750 0.268680 0.001980 1.412827
V4    V     V_3+5 0.993250 0.768680 0.998020 1.412829
C65   C     C_2   0.619612 0.233282 0.859638 0.498684
H29   H     H_    0.642946 0.330713 0.897269 0.029315
O21   O     O_2   0.577659 0.150414 0.869129 -0.486204
C66   C     C_2   0.380396 0.733138 0.140357 0.498692
H30   H     H_    0.357067 0.830558 0.102719 0.029317
O22   O     O_2   0.422345 0.650233 0.130873 -0.486202
C67   C     C_2   0.535752 0.252565 0.725550 0.481894
H31   H     H_    0.501401 0.190828 0.685869 0.001893
O23   O     O_2   0.522340 0.372205 0.760429 -0.502861
C68   C     C_2   0.464253 0.752476 0.274445 0.481874
H32   H     H_    0.498602 0.690758 0.314135 0.001892
O24   O     O_2   0.477671 0.872072 0.239554 -0.502853

loop_
_geom_bond_atom_site_label_1
_geom_bond_atom_site_label_2
_ccdc_geom_bond_type
C18   C20   T    
C61   O18   A    
C68   H32   S    
C20   C32   S    
C29   C31   A    
C11   H5    S    
C21   H9    S    
O12   C64   A    
O1    C3    A    
O2    C4    A    
C46   C54   A    
C2    O7    A    
O14   C62   A    
O20   V3    S    
C55   H19   S    
C67   H31   S    
O5    C3    A    
C59   C64   S    
C44   C46   A    
H17   C51   S    
C14   C16   A    
C8    H4    S    
C34   C50   A    
C15   C17   S    
C65   O21   D    
C36   C58   A    
C48   C50   A    
C67   O23   D    
C41   H23   S    
C37   C59   A    
C22   C24   A    
C39   C41   A    
C43   C47   A    
C58   C68   S    
O12   V3    S    
C33   C57   A    
O14   V4    S    
C2    C35   S    
C66   O22   D    
C12   H6    S    
C25   C27   A    
H18   C52   S    
C26   C28   A    
C13   H7    S    
C35   C57   A    
C27   C29   A    
O19   V4    S    
O15   C63   A    
C48   C56   A    
C23   H11   S    
C47   C55   A    
O6    V2    S    
C53   H27   S    
C43   C45   A    
C22   H10   S    
C60   C63   S    
C10   C61   S    
C51   C53   A    
C28   H14   S    
C9    C62   S    
C4    C25   S    
C47   C49   A    
C24   H12   S    
C33   C65   S    
C54   H28   S    
C12   C14   A    
C21   C31   A    
C42   C44   A    
C22   C32   A    
C49   C51   A    
O17   V3    S    
C34   C58   A    
C5    C7    A    
O16   C64   A    
C37   C39   A    
C14   H8    S    
O4    V2    S    
O13   V3    S    
C38   C60   A    
C23   C25   A    
O6    C4    A    
C19   C31   S    
O13   C61   A    
O1    V2    S    
O2    V1    S    
O15   V3    S    
O4    C2    A    
C52   C54   A    
C7    H3    S    
C11   C13   A    
C8    C10   A    
C13   C15   A    
C9    C11   A    
C16   C18   S    
O18   V4    S    
O3    V1    S    
C66   H30   S    
C41   C43   A    
C7    C9    A    
C68   O24   D    
C6    C8    A    
C34   C66   S    
C1    C36   S    
O3    C1    A    
C36   C56   A    
C40   C42   A    
C35   C55   A    
O11   C63   A    
C24   C26   A    
C10   C12   A    
O16   V4    S    
C29   H15   S    
O7    V1    S    
C1    O8    A    
C17   C19   T    
C3    C26   S    
C56   H20   S    
C65   H29   S    
C57   C67   S    
C45   C53   A    
C28   C30   A    
C33   C49   A    
O5    V1    S    
C5    H1    S    
C50   C52   A    
C30   H16   S    
C6    H2    S    
C38   H22   S    
C45   C59   A    
C42   H24   S    
C30   C32   A    
C38   C40   A    
C44   C48   A    
O9    V2    S    
C37   H21   S    
O11   V4    S    
C21   C23   A    
O10   V1    S    
O8    V2    S    
C5    C15   A    
C27   H13   S    
C6    C16   A    
C40   H26   S    
C46   C60   A    
C62   O17   A    
C39   H25   S    
