data_mof_unit_50852.cif
_audit_creation_date              2013-03-05T15:41:34-0500
_audit_creation_method            fapswitch 2.2
_symmetry_space_group_name_H-M    P1
_symmetry_Int_Tables_number       1
_space_group_crystal_system       triclinic
_cell_length_a                    24.763537
_cell_length_b                    17.438765
_cell_length_c                    15.63166
_cell_angle_alpha                 89.785436
_cell_angle_beta                  129.537469
_cell_angle_gamma                 90.180723
_cell_volume                      5205.97428687

loop_
_atom_site_label
_atom_site_type_symbol
_atom_site_description
_atom_site_fract_x
_atom_site_fract_y
_atom_site_fract_z
_atom_type_partial_charge
C1    C     C_R   0.332532 0.395483 0.197379 -0.125179
C2    C     C_R   0.345883 0.634530 0.227423 -0.110673
C3    C     C_R   0.837708 0.879896 0.210072 -0.128732
C4    C     C_R   0.849064 0.139016 0.236979 -0.108321
H1    H     H_    0.280605 0.398059 0.172133 0.083321
H2    H     H_    0.293681 0.642694 0.199007 0.080769
H3    H     H_    0.785786 0.874458 0.184319 0.089105
H4    H     H_    0.799499 0.150761 0.216898 0.083532
N1    N     N_R   0.389430 0.421450 0.294590 -0.048057
N2    N     N_R   0.389430 0.578550 0.294590 -0.042282
N3    N     N_R   0.889430 0.921450 0.294590 -0.045229
N4    N     N_R   0.889430 0.078550 0.294590 -0.044898
C5    C     C_R   0.668776 0.405118 0.808291 -0.016400
C6    C     C_R   0.666567 0.608948 0.797729 -0.124601
C7    C     C_R   0.168344 0.902076 0.806560 -0.078598
C8    C     C_R   0.151629 0.137521 0.761341 -0.137291
H5    H     H_    0.721601 0.414832 0.839814 0.115235
H6    H     H_    0.718435 0.609327 0.823254 0.153492
H7    H     H_    0.221232 0.910657 0.838257 0.130789
H8    H     H_    0.199336 0.152299 0.776958 0.163826
N5    N     N_R   0.612200 0.424040 0.705410 -0.042685
N6    N     N_R   0.612200 0.575960 0.705410 -0.044821
N7    N     N_R   0.112200 0.924040 0.705410 -0.046612
N8    N     N_R   0.112200 0.075960 0.705410 -0.044636
C9    C     C_R   0.588291 0.355963 0.408640 0.519039
C10   C     C_R   0.616596 0.604793 0.410646 0.508857
C11   C     C_R   0.098656 0.864738 0.408428 0.522592
C12   C     C_R   0.116011 0.105235 0.409726 0.504477
N9    N     N_R   0.581780 0.422390 0.443390 -0.135989
N10   N     N_R   0.581780 0.577610 0.443390 -0.124880
N11   N     N_R   0.081780 0.922390 0.443390 -0.131407
N12   N     N_R   0.081780 0.077610 0.443390 -0.123696
C13   C     C_R   0.414493 0.358049 0.594190 -0.141838
C14   C     C_R   0.412351 0.639836 0.594757 -0.138444
C15   C     C_R   0.913216 0.859534 0.594969 -0.144796
C16   C     C_R   0.897678 0.124276 0.593664 -0.150843
H9    H     H_    0.443210 0.345743 0.680825 0.095336
H10   H     H_    0.438473 0.649652 0.681136 0.090622
H11   H     H_    0.941956 0.847522 0.681725 0.095985
H12   H     H_    0.917446 0.125611 0.678134 0.085682
N13   N     N_R   0.419850 0.423100 0.556610 -0.037832
N14   N     N_R   0.419850 0.576900 0.556610 -0.037300
N15   N     N_R   0.919850 0.923100 0.556610 -0.036629
N16   N     N_R   0.919850 0.076900 0.556610 -0.032310
C17   C     C_R   0.661109 0.355998 0.591537 0.511135
C18   C     C_R   0.688953 0.603470 0.593517 0.523289
C19   C     C_R   0.171964 0.864979 0.592796 0.505914
C20   C     C_R   0.189063 0.103327 0.592240 0.491218
N17   N     N_R   0.627410 0.423100 0.556610 -0.137014
N18   N     N_R   0.627410 0.576900 0.556610 -0.121183
N19   N     N_R   0.127410 0.923100 0.556610 -0.133285
N20   N     N_R   0.127410 0.076900 0.556610 -0.122020
C21   C     C_R   0.339564 0.356341 0.408749 -0.149114
C22   C     C_R   0.335089 0.639876 0.409630 -0.144204
C23   C     C_R   0.836898 0.858263 0.409457 -0.145031
C24   C     C_R   0.822329 0.124925 0.408117 -0.152575
N21   N     N_R   0.374220 0.422390 0.443390 -0.037886
N22   N     N_R   0.374220 0.577610 0.443390 -0.036900
N23   N     N_R   0.874220 0.922390 0.443390 -0.035711
N24   N     N_R   0.874220 0.077610 0.443390 -0.032709
C25   C     C_R   0.578167 0.398018 0.804855 -0.163779
C26   C     C_R   0.577403 0.608230 0.800884 -0.146991
C27   C     C_R   0.077825 0.896551 0.803941 -0.159622
C28   C     C_R   0.062356 0.136528 0.764786 -0.132439
H13   H     H_    0.548415 0.399539 0.833676 0.096711
H14   H     H_    0.549269 0.607161 0.832529 0.090302
H15   H     H_    0.048368 0.898115 0.833276 0.094630
H16   H     H_    0.029271 0.150585 0.784879 0.091448
N25   N     N_R   0.555000 0.424040 0.705410 -0.044280
N26   N     N_R   0.555000 0.575960 0.705410 -0.038974
N27   N     N_R   0.055000 0.924040 0.705410 -0.043453
N28   N     N_R   0.055000 0.075960 0.705410 -0.040191
C29   C     C_R   0.419467 0.400392 0.191194 -0.071696
C30   C     C_R   0.439142 0.638829 0.234109 -0.170449
C31   C     C_R   0.924632 0.883570 0.202931 -0.104551
C32   C     C_R   0.940596 0.141418 0.238930 -0.167685
H17   H     H_    0.444977 0.408395 0.155813 0.132620
H18   H     H_    0.474688 0.655361 0.219654 0.167041
H19   H     H_    0.947781 0.886991 0.163582 0.149173
H20   H     H_    0.975855 0.158445 0.224165 0.169303
N29   N     N_R   0.446630 0.421450 0.294590 -0.041489
N30   N     N_R   0.446630 0.578550 0.294590 -0.045569
N31   N     N_R   0.946630 0.921450 0.294590 -0.043488
N32   N     N_R   0.946630 0.078550 0.294590 -0.045701
C33   C     C_R   0.349773 0.381531 0.130752 0.096088
C34   C     C_R   0.377826 0.676238 0.194896 0.138708
C35   C     C_R   0.860752 0.850477 0.156993 0.104884
C36   C     C_R   0.881127 0.181089 0.204857 0.132890
C37   C     C_R   0.649239 0.385302 0.870567 0.093181
C38   C     C_R   0.646725 0.629170 0.859646 0.132475
C39   C     C_R   0.148554 0.882047 0.868494 0.113459
C40   C     C_R   0.120587 0.177447 0.796688 0.130870
C41   C     C_R   0.644128 0.315726 0.500603 -0.344576
C42   C     C_R   0.684288 0.622662 0.503413 -0.339440
C43   C     C_R   0.160375 0.831310 0.501737 -0.346504
C44   C     C_R   0.183906 0.123105 0.501720 -0.324790
C45   C     C_R   0.363249 0.314719 0.502660 0.002781
C46   C     C_R   0.358364 0.681084 0.503535 0.007042
C47   C     C_R   0.860351 0.817683 0.503745 0.004264
C48   C     C_R   0.838454 0.158751 0.501511 0.013620
Ni1   Ni    Ni4+2 0.382890 0.500000 0.370170 0.198632
Ni2   Ni    Ni4+2 0.882890 0.000000 0.370170 0.203053
Ni3   Ni    Ni4+2 0.618740 0.500000 0.629830 0.204059
Ni4   Ni    Ni4+2 0.118740 0.000000 0.629830 0.203191
Ni5   Ni    Ni4+2 0.514090 0.500000 0.370170 0.198600
Ni6   Ni    Ni4+2 0.014090 0.000000 0.370170 0.201956
Ni7   Ni    Ni4+2 0.487550 0.500000 0.629830 0.199179
Ni8   Ni    Ni4+2 0.987550 0.000000 0.629830 0.202852
C49   C     C_3   0.358731 0.220363 0.618708 -0.489525
C50   C     C_3   0.347112 0.776742 0.611041 -0.476349
C51   C     C_3   0.855454 0.728539 0.623396 -0.491139
C52   C     C_3   0.827185 0.247406 0.611922 -0.460012
H21   H     H_    0.381564 0.263121 0.686147 0.155390
H22   H     H_    0.384851 0.743831 0.688686 0.151302
H23   H     H_    0.872190 0.774769 0.684589 0.157339
H24   H     H_    0.853091 0.207524 0.683781 0.153561
H25   H     H_    0.402254 0.184341 0.637759 0.167427
H26   H     H_    0.376973 0.823408 0.608822 0.169226
H27   H     H_    0.902919 0.696303 0.651080 0.166553
H28   H     H_    0.868235 0.285546 0.625712 0.163866
C53   C     C_3   0.806156 0.676342 0.623453 -0.322132
C54   C     C_3   0.774068 0.294843 0.607915 -0.371814
C55   C     C_3   0.307930 0.171624 0.619722 -0.320874
C56   C     C_3   0.291714 0.810912 0.615126 -0.337124
H29   H     H_    0.830726 0.618858 0.655169 0.175151
H30   H     H_    0.784418 0.357037 0.608059 0.143048
H31   H     H_    0.329592 0.112760 0.648910 0.170950
H32   H     H_    0.300868 0.873595 0.630896 0.146992
H33   H     H_    0.303986 0.198999 0.679695 0.204204
H34   H     H_    0.300323 0.783723 0.686848 0.205589
H35   H     H_    0.799342 0.702284 0.680946 0.200828
H36   H     H_    0.784237 0.282074 0.686034 0.211115
H37   H     H_    0.274570 0.348923 0.540879 0.160512
H38   H     H_    0.293579 0.632569 0.582598 0.158576
H39   H     H_    0.765478 0.852806 0.527625 0.160049
H40   H     H_    0.764225 0.099186 0.553473 0.154113
H41   H     H_    0.690056 0.773304 0.519345 0.149476
H42   H     H_    0.697522 0.168047 0.577185 0.153617
H43   H     H_    0.194428 0.272839 0.524734 0.149756
H44   H     H_    0.200475 0.684057 0.555761 0.146259
C57   C     C_3   0.255821 0.304835 0.475922 -0.406911
C58   C     C_3   0.262077 0.666823 0.504475 -0.408596
C59   C     C_3   0.750544 0.805148 0.468919 -0.409144
C60   C     C_3   0.736188 0.145085 0.489237 -0.416089
C61   C     C_3   0.292153 0.194653 0.416771 -0.436242
C62   C     C_3   0.265324 0.779877 0.404229 -0.452452
C63   C     C_3   0.795735 0.694120 0.425538 -0.437334
C64   C     C_3   0.750506 0.261307 0.406529 -0.463104
C65   C     C_3   0.319014 0.259069 0.503620 0.420649
C66   C     C_3   0.309812 0.726081 0.506129 0.429112
C67   C     C_3   0.816981 0.761810 0.505522 0.422660
C68   C     C_3   0.789094 0.202343 0.502323 0.430357
H45   H     H_    0.337067 0.162809 0.434090 0.159462
H46   H     H_    0.299569 0.819085 0.401029 0.162403
H47   H     H_    0.843223 0.663365 0.450738 0.161640
H48   H     H_    0.787847 0.305658 0.420530 0.169355
C69   C     C_3   0.734268 0.669851 0.504888 0.433815
C70   C     C_3   0.697606 0.274618 0.502211 0.441650
C71   C     C_3   0.234579 0.169111 0.502586 0.434518
C72   C     C_3   0.215925 0.794613 0.504495 0.455488
C73   C     C_3   0.701240 0.750609 0.465502 -0.408209
C74   C     C_3   0.686691 0.187114 0.499962 -0.400058
C75   C     C_3   0.204583 0.251289 0.469116 -0.409133
C76   C     C_3   0.203594 0.707082 0.493018 -0.411966
C77   C     C_3   0.747970 0.638287 0.427266 -0.368919
C78   C     C_3   0.692819 0.298850 0.400827 -0.356257
C79   C     C_3   0.244914 0.138942 0.420197 -0.373403
C80   C     C_3   0.215768 0.826458 0.410458 -0.388144
H49   H     H_    0.773035 0.580823 0.456776 0.140850
H50   H     H_    0.696593 0.362307 0.397870 0.141580
H51   H     H_    0.269001 0.080884 0.446367 0.140678
H52   H     H_    0.232283 0.887721 0.427179 0.142003
H53   H     H_    0.698888 0.631536 0.340912 0.213428
H54   H     H_    0.643118 0.280287 0.321469 0.207669
H55   H     H_    0.194779 0.133921 0.334710 0.214321
H56   H     H_    0.164778 0.824894 0.326887 0.213185
H57   H     H_    0.227432 0.335577 0.395295 0.154511
H58   H     H_    0.238396 0.625592 0.434622 0.154390
H59   H     H_    0.721950 0.831054 0.385096 0.154036
H60   H     H_    0.705049 0.116787 0.406638 0.155967
H61   H     H_    0.650588 0.748333 0.379236 0.190639
H62   H     H_    0.632118 0.169959 0.431231 0.148009
H63   H     H_    0.153753 0.251863 0.382939 0.188495
H64   H     H_    0.153860 0.691188 0.412440 0.156595
H65   H     H_    0.285520 0.772324 0.170534 0.126077
H66   H     H_    0.210483 0.367241 0.995729 0.123261
H67   H     H_    0.784758 0.275913 0.172724 0.125858
H68   H     H_    0.789784 0.740321 0.161523 0.128851
H69   H     H_    0.788959 0.372240 0.008202 0.128268
H70   H     H_    0.785573 0.643861 0.993440 0.130186
H71   H     H_    0.288383 0.871819 0.007481 0.128003
H72   H     H_    0.213744 0.276846 0.826460 0.130783
C81   C     C_2   0.695725 0.357431 0.985501 -0.223702
C82   C     C_2   0.692423 0.662128 0.970381 -0.209173
C83   C     C_2   0.194796 0.853426 0.982817 -0.220577
C84   C     C_2   0.145877 0.248636 0.860254 -0.220253
C85   C     C_2   0.764473 0.349040 0.040542 -0.112926
C86   C     C_2   0.760609 0.670167 0.023006 -0.123765
C87   C     C_2   0.263652 0.846581 0.038320 -0.122628
C88   C     C_2   0.195041 0.290977 0.871216 -0.117182
H73   H     H_    0.368612 0.764330 0.085268 0.133089
H74   H     H_    0.326010 0.333473 0.980521 0.131351
H75   H     H_    0.873994 0.270360 0.098473 0.134421
H76   H     H_    0.839417 0.774043 0.026724 0.131847
C89   C     C_2   0.351281 0.747558 0.131427 -0.226086
C90   C     C_2   0.302695 0.355466 0.015437 -0.225378
C91   C     C_2   0.855057 0.253020 0.142133 -0.221177
C92   C     C_2   0.831461 0.783184 0.086776 -0.219321
C93   C     C_2   0.303036 0.788648 0.124545 -0.111105
C94   C     C_2   0.234322 0.346197 0.961437 -0.102332
C95   C     C_2   0.804104 0.292628 0.129563 -0.112858
C96   C     C_2   0.797602 0.731841 0.101191 -0.109947
H77   H     H_    0.671898 0.332817 0.018470 0.132888
H78   H     H_    0.668580 0.690084 0.001165 0.130728
H79   H     H_    0.170896 0.826925 0.014622 0.131366
H80   H     H_    0.127707 0.263282 0.905741 0.128584
H81   H     H_    0.767370 0.715437 0.339430 0.152144
H82   H     H_    0.726328 0.234461 0.324972 0.147371
H83   H     H_    0.261557 0.219402 0.331971 0.155945
H84   H     H_    0.233073 0.746677 0.325724 0.151253
O1    O     O_3   0.548879 0.336020 0.298161 -0.645241
C97   C     C_3   0.519092 0.262008 0.279063 -0.279543
H85   H     H_    0.515276 0.242520 0.343174 0.131890
H86   H     H_    0.547478 0.219316 0.268723 0.137524
H87   H     H_    0.465139 0.262188 0.198617 0.168010
O2    O     O_3   0.591179 0.607510 0.302360 -0.653744
C98   C     C_3   0.574050 0.532836 0.258296 -0.262354
H88   H     H_    0.525422 0.512707 0.240632 0.162651
H89   H     H_    0.617817 0.491787 0.313655 0.137965
H90   H     H_    0.563972 0.534215 0.178274 0.162444
O3    O     O_3   0.064347 0.850518 0.297549 -0.653215
C99   C     C_3   0.043814 0.772437 0.271080 -0.302571
H91   H     H_    0.044202 0.740676 0.333575 0.137414
H92   H     H_    0.075436 0.742939 0.253750 0.146033
H93   H     H_    0.989729 0.768517 0.191563 0.161835
O4    O     O_3   0.089352 0.109173 0.300854 -0.658513
C100  C     C_3   0.073373 0.034717 0.256216 -0.251656
H94   H     H_    0.026410 0.011685 0.241817 0.170269
H95   H     H_    0.118846 0.995265 0.309435 0.147694
H96   H     H_    0.060880 0.037683 0.174403 0.161988
O5    O     O_3   0.705819 0.332867 0.701247 -0.650617
C101  C     C_3   0.687337 0.258894 0.713460 -0.278151
H97   H     H_    0.727032 0.216399 0.733427 0.140071
H98   H     H_    0.633840 0.239134 0.641103 0.129609
H99   H     H_    0.689122 0.259072 0.786105 0.175330
O6    O     O_3   0.749271 0.597551 0.702518 -0.651037
C102  C     C_3   0.772961 0.521155 0.724860 -0.308716
H100  H     H_    0.772732 0.496331 0.658992 0.127072
H101  H     H_    0.741414 0.485593 0.737176 0.180210
H102  H     H_    0.827777 0.519835 0.803504 0.168669
O7    O     O_3   0.223929 0.847724 0.703423 -0.652352
C103  C     C_3   0.208875 0.776089 0.727174 -0.300216
H103  H     H_    0.227670 0.727829 0.707091 0.135419
H104  H     H_    0.152223 0.768455 0.685278 0.147783
H105  H     H_    0.238130 0.772333 0.817861 0.174029
O8    O     O_3   0.249557 0.101674 0.701548 -0.664989
C104  C     C_3   0.270972 0.025370 0.734675 -0.241988
H106  H     H_    0.272131 0.993231 0.674434 0.128648
H107  H     H_    0.236997 0.996767 0.747861 0.178743
H108  H     H_    0.324952 0.025356 0.815252 0.162084
H109  H     H_    0.296664 0.342353 0.323366 0.093200
H110  H     H_    0.286747 0.647658 0.326815 0.081379
H111  H     H_    0.791822 0.845361 0.325253 0.083982
H112  H     H_    0.773277 0.126627 0.324464 0.082710

loop_
_geom_bond_atom_site_label_1
_geom_bond_atom_site_label_2
_geom_bond_distance
_ccdc_geom_bond_type
C10   C42   1.383885 A    
C102  H101  1.104303 S    
C57   H57   1.113245 S    
C9    C41   1.392365 A    
C23   N23   1.326612 A    
C51   C53   1.520927 S    
C7    C39   1.378364 A    
C64   C78   1.523360 S    
C6    H6    1.075398 S    
C11   C43   1.401515 A    
C14   N14   1.319771 A    
C52   H24   1.111989 S    
C4    H4    1.075922 S    
C17   C41   1.391106 A    
C30   N30   1.343059 A    
C32   N32   1.345239 A    
C77   H49   1.112741 S    
N25   Ni7   1.852084 S    
C49   H25   1.113165 S    
O7    C103  1.416753 S    
N9    N17   1.364984 A    
H44   C76   1.105614 S    
C48   C68   1.448385 S    
C7    H7    1.075311 S    
N4    N32   1.416474 A    
C31   H19   1.076511 S    
C55   C71   1.555519 S    
C76   H64   1.097987 S    
C72   C76   1.544277 S    
C103  H104  1.115575 S    
C24   H112  1.078864 S    
H71   C87   1.083391 S    
O5    C101  1.419737 S    
C3    H3    1.079247 S    
N26   Ni7   1.850875 S    
C28   H16   1.076783 S    
C58   C76   1.515819 S    
C84   H80   1.087516 S    
C15   C47   1.380186 A    
C61   C79   1.545116 S    
H69   C85   1.083568 S    
C18   C42   1.377938 A    
C23   H111  1.076645 S    
C56   C72   1.569038 S    
C21   H109  1.079372 S    
O4    C100  1.407603 S    
C26   N26   1.342376 A    
C51   H27   1.113377 S    
C104  H106  1.113604 S    
N30   Ni5   1.884797 S    
C54   H36   1.100445 S    
C29   H17   1.080791 S    
C6    C38   1.382648 A    
C16   H12   1.077438 S    
C62   C80   1.527857 S    
C63   C77   1.543059 S    
C50   C56   1.535622 S    
C53   H29   1.112185 S    
C62   C66   1.546669 S    
C55   H31   1.112669 S    
C31   N31   1.340564 A    
N12   N20   1.364929 A    
H76   C92   1.087296 S    
C57   C65   1.554323 S    
C62   H46   1.113197 S    
N32   Ni6   1.884797 S    
C32   H20   1.076204 S    
C52   C68   1.546067 S    
C9    O1    1.382892 S    
C59   H59   1.112964 S    
C4    N4    1.332474 A    
C15   N15   1.317055 A    
N14   Ni7   1.865129 S    
C50   H22   1.109025 S    
C19   O7    1.379227 S    
C10   O2    1.380853 S    
C49   H21   1.109664 S    
C56   H32   1.111931 S    
C61   H45   1.112718 S    
C28   N28   1.342070 A    
N10   N18   1.364929 A    
N18   Ni3   1.858501 S    
C8    N8    1.335597 A    
N1    Ni1   1.885618 S    
N12   Ni6   1.872487 S    
C100  H94   1.108572 S    
C55   H33   1.111994 S    
C91   C95   1.340375 D    
N14   N22   1.364929 A    
C2    H2    1.076253 S    
C53   H35   1.112413 S    
N24   Ni2   1.874605 S    
C80   H52   1.113652 S    
C34   C89   1.459076 S    
C29   N29   1.348451 A    
C92   C96   1.337814 D    
C25   C37   1.378736 A    
C33   C90   1.463645 S    
C83   C87   1.338446 D    
N16   Ni8   1.865129 S    
N8    N28   1.416474 A    
C9    N9    1.334297 A    
C27   H15   1.081294 S    
C78   H54   1.102315 S    
C101  H99   1.107970 S    
C26   H14   1.081230 S    
C11   N11   1.334786 A    
C43   C72   1.494508 S    
C22   H110  1.074248 S    
C60   H60   1.113556 S    
C12   N12   1.338290 A    
C1    N1    1.332145 A    
C13   N13   1.320172 A    
N9    Ni5   1.873934 S    
C16   C48   1.377222 A    
C69   C77   1.555870 S    
C84   C88   1.336579 D    
C52   H28   1.113566 S    
C21   N21   1.327837 A    
C49   C55   1.524394 S    
H72   C88   1.085946 S    
C79   H51   1.112771 S    
C97   H87   1.107851 S    
C21   C45   1.387224 A    
N19   Ni4   1.865651 S    
C3    C35   1.373002 A    
N2    N30   1.416474 A    
C99   H93   1.106360 S    
C88   C94   1.456070 S    
N6    Ni3   1.852944 S    
C24   N24   1.318047 A    
N5    N25   1.416474 A    
C104  H107  1.102967 S    
C8    C40   1.388520 A    
C54   H30   1.113352 S    
C15   H11   1.076812 S    
N4    Ni2   1.878433 S    
O1    C97   1.419721 S    
C85   C95   1.457550 S    
N7    N27   1.416474 A    
H39   C59   1.114141 S    
H38   C58   1.114130 S    
C39   C83   1.464761 S    
C82   H78   1.087716 S    
C90   C94   1.336066 D    
C101  H98   1.115985 S    
C98   H88   1.106482 S    
C61   H83   1.111989 S    
C89   C93   1.339240 D    
C49   C65   1.549763 S    
C8    H8    1.073807 S    
C37   C81   1.467324 S    
O8    C104  1.403445 S    
C44   C71   1.480040 S    
C99   H92   1.106732 S    
C101  H97   1.106841 S    
C54   C70   1.567384 S    
C56   H34   1.104336 S    
H42   C74   1.106798 S    
N22   Ni1   1.874605 S    
C30   C34   1.387497 A    
C97   H86   1.106045 S    
C50   H26   1.113058 S    
C18   O6    1.379970 S    
C27   N27   1.345120 A    
C12   O4    1.380510 S    
C103  H105  1.109399 S    
H75   C91   1.087261 S    
C51   H23   1.111596 S    
C31   C35   1.379208 A    
C98   H89   1.114506 S    
H67   C95   1.085725 S    
C57   C75   1.521404 S    
C42   C69   1.472067 S    
H43   C75   1.114322 S    
C100  H95   1.114164 S    
N10   Ni5   1.872487 S    
C30   H18   1.077092 S    
C22   N22   1.322062 A    
N11   Ni6   1.873934 S    
H65   C93   1.086574 S    
C16   N16   1.315627 A    
C1    C33   1.376545 A    
C20   O8    1.380412 S    
C24   C48   1.378953 A    
C36   C91   1.463426 S    
C27   C39   1.378650 A    
C41   C70   1.493902 S    
C2    N2    1.332553 A    
C17   O5    1.381965 S    
C1    H1    1.079549 S    
C86   C96   1.437992 S    
C63   H81   1.112436 S    
H70   C86   1.083216 S    
C79   H55   1.105759 S    
C46   C66   1.459873 S    
C102  H102  1.108979 S    
C25   N25   1.346271 A    
C38   C82   1.454872 S    
C80   H56   1.096191 S    
N29   Ni5   1.883569 S    
C32   C36   1.391415 A    
O6    C102  1.407706 S    
N20   Ni4   1.858501 S    
N6    N26   1.416474 A    
H73   C89   1.087296 S    
C59   C67   1.552858 S    
C20   C44   1.379861 A    
C60   C74   1.528364 S    
C14   H10   1.076996 S    
N23   Ni2   1.867426 S    
C83   H79   1.087295 S    
N2    Ni1   1.878433 S    
C45   C65   1.468351 S    
C64   C68   1.544542 S    
N11   N19   1.364984 A    
C69   C73   1.546299 S    
C40   C84   1.460412 S    
C51   C67   1.549153 S    
N17   Ni3   1.865651 S    
C19   N19   1.331444 A    
C102  H100  1.115097 S    
N31   Ni6   1.883569 S    
C81   H77   1.087151 S    
C4    C36   1.386366 A    
N8    Ni4   1.852944 S    
N15   N23   1.364984 A    
C63   H47   1.112808 S    
C5    C37   1.377390 A    
N21   Ni1   1.867426 S    
C52   C54   1.523165 S    
C18   N18   1.322229 A    
H37   C57   1.114036 S    
C19   C43   1.392238 A    
C74   H62   1.105182 S    
C5    H5    1.077642 S    
C12   C44   1.383362 A    
C104  H108  1.108933 S    
N3    N31   1.416474 A    
C58   C66   1.555444 S    
H66   C94   1.084559 S    
C58   H58   1.114059 S    
C62   H84   1.110677 S    
C29   C33   1.379198 A    
H40   C60   1.113951 S    
C5    N5    1.337312 A    
H41   C73   1.114318 S    
H68   C96   1.087411 S    
C6    N6    1.324308 A    
C82   C86   1.333581 D    
C47   C67   1.461097 S    
C50   C66   1.549277 S    
N16   N24   1.364929 A    
C81   C85   1.340050 D    
C63   C67   1.550171 S    
C26   C38   1.383817 A    
C7    N7    1.334074 A    
C99   H91   1.115903 S    
C14   C46   1.381790 A    
C78   H50   1.113523 S    
C71   C79   1.557741 S    
C17   N17   1.336081 A    
C2    C34   1.385256 A    
N3    Ni2   1.885618 S    
C71   C75   1.544505 S    
N15   Ni8   1.863689 S    
C72   C80   1.567083 S    
N7    Ni4   1.845876 S    
N28   Ni8   1.850875 S    
C97   H85   1.116501 S    
C75   H63   1.113687 S    
C13   H9    1.076298 S    
C35   C92   1.448664 S    
C3    N3    1.325882 A    
C70   C74   1.545482 S    
N13   N21   1.364984 A    
C11   O3    1.383643 S    
N5    Ni3   1.845876 S    
C70   C78   1.568550 S    
N13   Ni7   1.863689 S    
C20   N20   1.329830 A    
C98   H90   1.108998 S    
C60   C68   1.551588 S    
O2    C98   1.407621 S    
H74   C90   1.087425 S    
C100  H96   1.108960 S    
C23   C47   1.383965 A    
O3    C99   1.419791 S    
C28   C40   1.384883 A    
C22   C46   1.389758 A    
C53   C69   1.554536 S    
C64   H48   1.113659 S    
C13   C45   1.385223 A    
C87   C93   1.452910 S    
N27   Ni8   1.852084 S    
C77   H53   1.106671 S    
C64   H82   1.110778 S    
C59   C73   1.519264 S    
C73   H61   1.113511 S    
C61   C65   1.550610 S    
N1    N29   1.416474 A    
C103  H103  1.101790 S    
C25   H13   1.081343 S    
C10   N10   1.336963 A    
