data_mof_unit_13168.cif
_audit_creation_date              2013-03-05T16:09:24-0500
_audit_creation_method            fapswitch 2.2
_symmetry_space_group_name_H-M    P1
_symmetry_Int_Tables_number       1
_space_group_crystal_system       triclinic
_cell_length_a                    10.742691
_cell_length_b                    9.941375
_cell_length_c                    10.699251
_cell_angle_alpha                 89.279367
_cell_angle_beta                  93.395533
_cell_angle_gamma                 90.705035
_cell_volume                      1140.47650165

loop_
_atom_site_label
_atom_site_type_symbol
_atom_site_description
_atom_site_fract_x
_atom_site_fract_y
_atom_site_fract_z
_atom_type_partial_charge
O1    O     O_R   0.316770 0.614620 0.499990 -0.615018
O2    O     O_R   0.683230 0.614620 0.500010 -0.618702
O3    O     O_R   0.316800 0.385290 0.500000 -0.576257
O4    O     O_R   0.683200 0.385290 0.500000 -0.579048
C1    C     C_R   0.261234 0.499260 0.509150 0.889093
C2    C     C_R   0.740027 0.501413 0.496098 0.880053
O5    O     O_R   0.500000 0.614630 0.319080 -0.630366
O6    O     O_R   0.500000 0.614630 0.680920 -0.627626
O7    O     O_R   0.500030 0.385300 0.319080 -0.560218
O8    O     O_R   0.499970 0.385300 0.680920 -0.537039
C3    C     C_R   0.495274 0.501172 0.262382 0.963061
C4    C     C_R   0.499899 0.499490 0.737140 0.931067
Zn1   Zn    Zn3+2 0.500000 0.653120 0.500000 0.970612
Zn2   Zn    Zn3+2 0.500000 0.346880 0.500000 1.054652
C5    C     C_2   0.443563 0.402443 0.929751 -0.103856
C6    C     C_2   0.458712 0.394287 0.064065 -0.103469
C7    C     C_2   0.503750 0.498640 0.869385 -0.329808
C8    C     C_2   0.472990 0.506385 0.130014 -0.378875
H1    H     H_    0.388789 0.325152 0.880207 0.196329
H2    H     H_    0.462108 0.295778 0.107708 0.252578
H3    H     H_    0.560095 0.576199 0.916689 0.151753
H4    H     H_    0.462568 0.605390 0.086622 0.163157
C9    C     C_R   0.062601 0.380356 0.497184 -0.184929
C10   C     C_R   0.935240 0.382694 0.490205 -0.172435
H5    H     H_    0.108287 0.285870 0.481974 0.207415
H6    H     H_    0.885034 0.289139 0.474232 0.169657
C11   C     C_R   0.873896 0.505121 0.497069 -0.092451
C12   C     C_R   0.129467 0.498903 0.522387 -0.103040
C13   C     C_R   0.941401 0.627399 0.515061 -0.041180
C14   C     C_R   0.068813 0.619927 0.546650 -0.034218
C15   C     C_R   0.565275 0.067940 0.593610 0.387975
C16   C     C_R   0.430349 0.068472 0.409442 0.389883
C17   C     C_R   0.563183 0.925467 0.591894 -0.136770
C18   C     C_R   0.435611 0.926336 0.408947 -0.135212
H7    H     H_    0.611120 0.867324 0.665542 0.202422
H8    H     H_    0.382801 0.869427 0.337821 0.199704
N1    N     N_R   0.500000 0.857200 0.500000 -0.140021
N2    N     N_R   0.500000 0.142810 0.500000 -0.210199
C19   C     C_R   0.887844 0.759536 0.474965 0.122679
C20   C     C_R   0.851446 0.780565 0.347797 -0.110311
C21   C     C_R   0.810044 0.906573 0.305094 -0.085538
C22   C     C_R   0.808105 0.013555 0.388079 -0.132807
C23   C     C_R   0.845316 0.993793 0.514255 -0.139015
C24   C     C_R   0.880288 0.866200 0.558842 -0.126703
H9    H     H_    0.856442 0.699515 0.281612 0.119329
H10   H     H_    0.781644 0.921863 0.207250 0.155988
H11   H     H_    0.777838 0.111634 0.354496 0.141270
H12   H     H_    0.846648 0.077323 0.577771 0.201923
H13   H     H_    0.906735 0.852085 0.657321 0.165231
C25   C     C_R   0.135794 0.731324 0.615503 0.110375
C26   C     C_R   0.179598 0.710059 0.740500 -0.158836
C27   C     C_R   0.243444 0.812535 0.806815 -0.089515
C28   C     C_R   0.263192 0.937267 0.749256 -0.092777
C29   C     C_R   0.220836 0.958936 0.624769 -0.154109
C30   C     C_R   0.159918 0.855434 0.557123 -0.085827
H14   H     H_    0.164165 0.614090 0.786455 0.124394
H15   H     H_    0.276986 0.795443 0.903035 0.151220
H16   H     H_    0.311445 0.017032 0.801001 0.177773
H17   H     H_    0.235828 0.055803 0.580662 0.160397
H18   H     H_    0.129579 0.871944 0.460122 0.183719
S1    S     S_3+6 0.641408 0.134386 0.732389 0.004617
O9    O     O_2   0.544080 0.156950 0.824404 -0.326832
O10   O     O_2   0.730898 0.032418 0.789406 -0.354870
O11   O     O_3   0.723194 0.276679 0.711628 -0.544059
H19   H     H_    0.755686 0.302630 0.796708 0.370697
S2    S     S_3+6 0.317502 0.129428 0.293316 -0.009172
O12   O     O_2   0.359072 0.086585 0.168333 -0.342231
O13   O     O_2   0.196875 0.056850 0.314097 -0.364686
O14   O     O_3   0.284680 0.293393 0.284933 -0.538240
H20   H     H_    0.219411 0.302163 0.216031 0.367239

loop_
_geom_bond_atom_site_label_1
_geom_bond_atom_site_label_2
_geom_bond_distance
_ccdc_geom_bond_type
C4    C7    1.412989 S    
C24   H13   1.082765 S    
S1    O11   1.675397 S    
S2    O13   1.502128 D    
O7    Zn2   1.968330 S    
C10   C11   1.395966 A    
C3    C8    1.422688 S    
C20   C21   1.396807 A    
C19   C24   1.403945 A    
C28   H16   1.082108 S    
C16   N2    1.401179 A    
C11   C13   1.417147 A    
C18   N1    1.347201 A    
C21   C22   1.395127 A    
C15   S1    1.782558 S    
Zn1   N1    2.028836 S    
C2    C11   1.437558 S    
C15   N2    1.399904 A    
O6    C4    1.286378 A    
C23   C24   1.397486 A    
C20   H9    1.083269 S    
O11   H19   0.991504 S    
C13   C19   1.488571 S    
C12   C14   1.409505 A    
S2    O12   1.502916 D    
C14   C25   1.491639 S    
C26   C27   1.398221 A    
C8    H4    1.087134 S    
C30   H18   1.080386 S    
O5    C3    1.286446 A    
O7    C3    1.295277 A    
O2    C2    1.289091 A    
O3    Zn2   2.009369 S    
O8    C4    1.291423 A    
O1    C1    1.291529 A    
C5    C6    1.438011 S    
C9    C12   1.393488 A    
C16   S2    1.789213 S    
C6    H2    1.079715 S    
C17   H7    1.080751 S    
C10   H6    1.079744 S    
C5    H1    1.086188 S    
C18   H8    1.082979 S    
C29   H17   1.081547 S    
C9    H5    1.083666 S    
O4    Zn2   2.000144 S    
S1    O9    1.498670 D    
O14   H20   0.990631 S    
S2    O14   1.672156 S    
O1    Zn1   2.000615 S    
C27   H15   1.082459 S    
C9    C10   1.366283 A    
C13   C14   1.392944 A    
Zn2   N2    2.028737 S    
C1    C12   1.430883 S    
O6    Zn1   1.968438 S    
O5    Zn1   1.977881 S    
C22   H11   1.081980 S    
C27   C28   1.397031 A    
C6    C8    1.328940 D    
C26   H14   1.083255 S    
C23   H12   1.079052 S    
C19   C20   1.407009 A    
C5    C7    1.329842 D    
O2    Zn1   2.009860 S    
C29   C30   1.398899 A    
C21   H10   1.082303 S    
C15   C17   1.416613 A    
C25   C26   1.405520 A    
C16   C18   1.414939 A    
C28   C29   1.396724 A    
O4    C2    1.300607 A    
S1    O10   1.504299 D    
C17   N1    1.346982 A    
C25   C30   1.404118 A    
C22   C23   1.397212 A    
O8    Zn2   1.977757 S    
O3    C1    1.294601 A    
C7    H3    1.085863 S    
