data_mof_unit_59937.cif
_audit_creation_date              2012-12-10T18:58:14-0500
_audit_creation_method            fapswitch 2.2
_symmetry_space_group_name_H-M    P1
_symmetry_Int_Tables_number       1
_space_group_crystal_system       triclinic
_cell_length_a                    10.573626
_cell_length_b                    9.968359
_cell_length_c                    15.777316
_cell_angle_alpha                 90.134518
_cell_angle_beta                  91.219204
_cell_angle_gamma                 89.665704
_cell_volume                      1662.5470352

loop_
_atom_site_label
_atom_site_type_symbol
_atom_type_description
_atom_site_fract_x
_atom_site_fract_y
_atom_site_fract_z
_atom_type_partial_charge
C1    C     C_R   0.871780 0.497698 0.501103 -0.390499
C2    C     C_R   0.468996 0.381981 0.955293 0.351967
C3    C     C_R   0.494187 0.502028 0.912643 -0.265204
C4    C     C_R   0.495043 0.500878 0.087309 -0.262882
C5    C     C_1   0.495844 0.501566 0.823502 0.077441
C6    C     C_1   0.496823 0.499987 0.176483 0.070686
C7    C     C_1   0.498321 0.499641 0.251408 -0.147227
C8    C     C_1   0.497845 0.500790 0.748605 -0.141112
C9    C     C_R   0.539394 0.071541 0.570290 0.375882
C10   C     C_R   0.460625 0.928480 0.429687 0.386256
C11   C     C_R   0.461600 0.071608 0.429473 0.344490
C12   C     C_R   0.128235 0.501999 0.499049 -0.389553
C13   C     C_R   0.538843 0.928424 0.570397 0.354007
C14   C     C_R   0.062577 0.471271 0.423725 0.341327
C15   C     C_R   0.937448 0.527905 0.576529 0.345288
C16   C     C_R   0.931506 0.462943 0.425876 0.369853
C17   C     C_R   0.068517 0.536511 0.574304 0.367301
C18   C     C_3   0.703986 0.166965 0.644766 -0.199956
C19   C     C_3   0.296205 0.832881 0.355174 -0.256154
C20   C     C_3   0.303945 0.167802 0.348519 -0.143124
C21   C     C_3   0.698445 0.831662 0.649165 -0.171677
C22   C     C_3   0.405865 0.788970 0.119903 0.124741
C23   C     C_R   0.260781 0.500499 0.498974 1.045014
C24   C     C_3   0.324751 0.858564 0.051177 -0.330837
C25   C     C_3   0.202227 0.913172 0.087927 -1.010489
C26   C     C_3   0.316718 0.263337 0.881608 0.133891
C27   C     C_3   0.224343 0.235748 0.953159 -0.344216
C28   C     C_3   0.091107 0.208685 0.918377 -1.005388
C29   C     C_3   0.669642 0.742756 0.887072 0.131101
C30   C     C_3   0.765111 0.761105 0.960807 -0.352262
C31   C     C_3   0.897264 0.790144 0.928621 -0.999655
C32   C     C_3   0.588532 0.213119 0.117159 0.120555
C33   C     C_3   0.665594 0.143849 0.048202 -0.326940
C34   C     C_R   0.739224 0.499461 0.501096 1.046935
C35   C     C_3   0.792537 0.093785 0.084079 -1.007839
C36   C     C_3   0.099267 0.539308 0.287178 -0.295088
C37   C     C_3   0.902177 0.461149 0.713661 -0.317550
C38   C     C_3   0.864320 0.289989 0.342415 -0.271392
C39   C     C_3   0.134959 0.710048 0.657445 -0.265867
C40   C     C_R   0.499721 0.499859 0.339711 0.910755
C41   C     C_R   0.499921 0.500181 0.660310 0.906573
C42   C     C_R   0.519123 0.621789 0.956849 0.357591
C43   C     C_R   0.482046 0.378955 0.043215 0.352336
C44   C     C_R   0.507177 0.623538 0.044557 0.356053
H1    H     H_    0.759577 0.114887 0.594899 0.082050
H2    H     H_    0.744703 0.824207 0.586443 0.140508
H3    H     H_    0.748466 0.906713 0.689047 0.122495
H4    H     H_    0.710809 0.734203 0.681835 0.212721
H5    H     H_    0.427286 0.863030 0.170862 0.206780
H6    H     H_    0.350547 0.707661 0.149696 0.116627
H7    H     H_    0.379047 0.942146 0.023340 0.259235
H8    H     H_    0.300275 0.785944 0.999974 0.226214
H9    H     H_    0.148884 0.831439 0.118574 0.258279
H10   H     H_    0.141671 0.956275 0.036420 0.280190
H11   H     H_    0.223357 0.992870 0.135410 0.278969
H12   H     H_    0.717320 0.276300 0.638687 0.196007
H13   H     H_    0.308190 0.181657 0.833827 0.183169
H14   H     H_    0.289294 0.357785 0.848276 0.130208
H15   H     H_    0.258195 0.147797 0.990120 0.266492
H16   H     H_    0.220642 0.323691 0.996462 0.215575
H17   H     H_    0.055920 0.295611 0.880559 0.264260
H18   H     H_    0.026364 0.192606 0.971831 0.277068
H19   H     H_    0.090618 0.117333 0.877907 0.266936
H20   H     H_    0.677737 0.829372 0.843407 0.185500
H21   H     H_    0.694696 0.651945 0.849793 0.117852
H22   H     H_    0.733879 0.845052 0.001631 0.269154
H23   H     H_    0.745234 0.138946 0.707528 0.148133
H24   H     H_    0.769581 0.668439 0.999796 0.214888
H25   H     H_    0.929707 0.707207 0.887067 0.269833
H26   H     H_    0.964483 0.799292 0.983300 0.278147
H27   H     H_    0.897213 0.885725 0.892539 0.264932
H28   H     H_    0.570831 0.139176 0.168093 0.192325
H29   H     H_    0.645380 0.294852 0.147082 0.129753
H30   H     H_    0.611161 0.057994 0.021490 0.258855
H31   H     H_    0.684095 0.215613 0.996226 0.228701
H32   H     H_    0.847033 0.178165 0.112572 0.264496
H33   H     H_    0.849011 0.049525 0.032433 0.278225
H34   H     H_    0.283049 0.723681 0.361858 0.203583
H35   H     H_    0.777575 0.016004 0.133109 0.281010
H36   H     H_    0.076116 0.640684 0.312813 0.136488
H37   H     H_    0.020107 0.502975 0.246098 0.223678
H38   H     H_    0.182829 0.550580 0.246459 0.155912
H39   H     H_    0.926420 0.359687 0.688596 0.141667
H40   H     H_    0.818927 0.449436 0.754617 0.161436
H41   H     H_    0.980944 0.499243 0.754443 0.219225
H42   H     H_    0.799184 0.263474 0.288985 0.179701
H43   H     H_    0.831853 0.235627 0.399496 0.159686
H44   H     H_    0.960658 0.255235 0.325481 0.179413
H45   H     H_    0.240396 0.885711 0.404598 0.100516
H46   H     H_    0.166774 0.764462 0.600203 0.158178
H47   H     H_    0.200245 0.737113 0.710670 0.195414
H48   H     H_    0.038526 0.744219 0.674604 0.175766
H49   H     H_    0.255029 0.859809 0.292225 0.141680
H50   H     H_    0.256040 0.176080 0.410632 0.134364
H51   H     H_    0.292081 0.264826 0.315184 0.222247
H52   H     H_    0.255328 0.092067 0.308384 0.128361
N1    N     N_R   0.500000 0.857200 0.500000 -0.215223
N2    N     N_R   0.500000 0.142800 0.500000 -0.215651
O1    O     O_R   0.316770 0.614620 0.499990 -0.637559
O2    O     O_3   0.426951 0.862181 0.355798 -0.552975
O3    O     O_3   0.434566 0.138263 0.354672 -0.564240
O4    O     O_3   0.567813 0.861723 0.644857 -0.547083
O5    O     O_3   0.522957 0.743788 0.087894 -0.616914
O6    O     O_3   0.444031 0.263781 0.911751 -0.605545
O7    O     O_3   0.543059 0.740899 0.915040 -0.603712
O8    O     O_3   0.469231 0.257768 0.085192 -0.617934
O9    O     O_3   0.128948 0.443769 0.350698 -0.640280
O10   O     O_3   0.871014 0.555240 0.649572 -0.642164
O11   O     O_3   0.860399 0.430334 0.354044 -0.603950
O12   O     O_R   0.683230 0.385380 0.500010 -0.639074
O13   O     O_3   0.139658 0.569698 0.645996 -0.609003
O14   O     O_R   0.683230 0.614620 0.500010 -0.620933
O15   O     O_R   0.316770 0.385380 0.499990 -0.622031
O16   O     O_R   0.499980 0.614630 0.378020 -0.571383
O17   O     O_R   0.500020 0.385370 0.621980 -0.573338
O18   O     O_R   0.500020 0.614630 0.621980 -0.559063
O19   O     O_R   0.499980 0.385370 0.378020 -0.563327
O20   O     O_3   0.573191 0.137883 0.644144 -0.535625
Zn1   Zn    Zn3+2 0.500000 0.653120 0.500000 1.001510
Zn2   Zn    Zn3+2 0.500000 0.346880 0.500000 0.997461

loop_
_geom_bond_atom_site_label_1
_geom_bond_atom_site_label_2
_ccdc_geom_bond_type
C24   H8    S    
C23   O1    A    
C3    C42   A    
C9    N2    A    
C10   N1    A    
C34   O14   A    
C32   H28   S    
C12   C23   S    
C26   C27   S    
C38   H42   S    
C11   N2    A    
C37   H41   S    
C25   H9    S    
C27   H16   S    
C30   C31   S    
C9    C13   A    
C26   O6    S    
C33   H31   S    
C31   H26   S    
C40   O16   A    
C36   H38   S    
C12   C17   A    
C1    C34   S    
C7    C40   S    
C37   H40   S    
C1    C15   A    
C2    C43   A    
C18   O20   S    
C39   H46   S    
O16   Zn1   S    
C19   H49   S    
C18   H12   S    
C22   H6    S    
C21   H4    S    
C28   H17   S    
C24   H7    S    
C39   O13   S    
C40   O19   A    
C20   H52   S    
C29   H20   S    
C32   O8    S    
C36   O9    S    
C9    O20   S    
C29   O7    S    
C42   C44   A    
C41   O17   A    
C17   O13   S    
C39   H47   S    
C42   O7    S    
C44   O5    S    
C16   O11   S    
C35   H32   S    
C8    C41   S    
C37   O10   S    
C4    C6    S    
C36   H36   S    
O19   Zn2   S    
O12   Zn2   S    
C32   H29   S    
C20   O3    S    
C4    C44   A    
C18   H23   S    
C35   H33   S    
C22   O5    S    
C38   H44   S    
C43   O8    S    
C15   O10   S    
N1    Zn1   S    
C19   H34   S    
C29   C30   S    
C19   H45   S    
C23   O15   A    
O15   Zn2   S    
C2    O6    S    
C36   H37   S    
C11   O3    S    
C1    C16   A    
C24   C25   S    
C38   O11   S    
C10   O2    S    
C26   H14   S    
C30   H22   S    
C25   H10   S    
C22   H5    S    
C29   H21   S    
C21   O4    S    
C14   O9    S    
C20   H51   S    
C12   C14   A    
C34   O12   A    
C14   C16   A    
C5    C8    T    
C41   O18   A    
C18   H1    S    
C39   H48   S    
C21   H2    S    
C15   C17   A    
C20   H50   S    
C25   H11   S    
C3    C5    S    
O14   Zn1   S    
C19   O2    S    
N2    Zn2   S    
C6    C7    T    
C4    C43   A    
O18   Zn1   S    
C38   H43   S    
C32   C33   S    
C2    C3    A    
C27   H15   S    
C35   H35   S    
C33   C35   S    
C22   C24   S    
C13   N1    A    
C26   H13   S    
C10   C11   A    
O1    Zn1   S    
C28   H19   S    
C33   H30   S    
C31   H25   S    
O17   Zn2   S    
C27   C28   S    
C37   H39   S    
C13   O4    S    
C30   H24   S    
C31   H27   S    
C21   H3    S    
C28   H18   S    
