data_mof_unit_28024.cif
_audit_creation_date              2012-10-26T18:56:27-0400
_audit_creation_method            fapswitch 2.2
_symmetry_space_group_name_H-M    P1
_symmetry_Int_Tables_number       1
_space_group_crystal_system       triclinic
_cell_length_a                    10.602583
_cell_length_b                    10.605231
_cell_length_c                    9.422478
_cell_angle_alpha                 89.957871
_cell_angle_beta                  89.282827
_cell_angle_gamma                 89.852943
_cell_volume                      1059.40345547

loop_
_atom_site_label
_atom_site_type_symbol
_atom_type_description
_atom_site_fract_x
_atom_site_fract_y
_atom_site_fract_z
_atom_type_partial_charge
C1    C     C_R   0.500445 0.259608 0.500130 0.544145
C2    C     C_3   0.398453 0.448499 0.051934 -0.008329
C3    C     C_R   0.259620 0.497315 0.500964 0.542367
C4    C     C_R   0.740380 0.502684 0.499037 0.542369
C5    C     C_3   0.035876 0.449742 0.622463 0.012481
C6    C     C_3   0.964124 0.550256 0.377543 0.012478
C7    C     C_3   0.955020 0.381672 0.511585 -0.129476
C8    C     C_3   0.044979 0.618327 0.488421 -0.129478
C9    C     C_3   0.877094 0.503169 0.496986 0.034853
C10   C     C_3   0.122906 0.496829 0.503018 0.034850
C11   C     C_3   0.956324 0.570851 0.609030 -0.124777
C12   C     C_R   0.499557 0.740392 0.499869 0.544143
C13   C     C_3   0.043675 0.429147 0.390976 -0.124786
C14   C     C_3   0.513100 0.041029 0.634612 -0.116885
C15   C     C_3   0.486907 0.958970 0.365384 -0.116891
C16   C     C_3   0.608371 0.958295 0.551797 0.001177
C17   C     C_3   0.391635 0.041705 0.448198 0.001180
C18   C     C_3   0.499647 0.877088 0.499391 0.035085
C19   C     C_3   0.500358 0.122912 0.500605 0.035089
C20   C     C_3   0.077583 0.390469 0.762083 -0.239762
C21   C     C_3   0.963593 0.349500 0.852422 -0.296946
C22   C     C_3   0.005524 0.282764 0.987162 -0.469470
C23   C     C_3   0.403103 0.958148 0.581485 -0.126003
C24   C     C_3   0.922424 0.609524 0.237917 -0.239760
C25   C     C_3   0.036422 0.650480 0.147583 -0.296934
C26   C     C_3   0.994502 0.717228 0.012847 -0.469494
C27   C     C_3   0.731810 0.906612 0.610844 -0.246932
C28   C     C_3   0.823639 0.013774 0.643269 -0.299149
C29   C     C_3   0.945476 0.963523 0.706600 -0.463311
C30   C     C_3   0.268193 0.093370 0.389139 -0.246948
C31   C     C_3   0.176331 0.986208 0.356852 -0.299205
C32   C     C_3   0.054502 0.036414 0.293475 -0.463354
C33   C     C_3   0.596903 0.041852 0.418510 -0.126014
C34   C     C_3   0.505861 0.613741 0.050183 -0.007078
C35   C     C_3   0.494138 0.386259 0.949817 -0.007078
C36   C     C_3   0.404408 0.562192 0.950635 -0.009306
C37   C     C_3   0.595592 0.437808 0.049365 -0.009305
C38   C     C_3   0.601547 0.551501 0.948066 -0.008330
Cu1   Cu    Cu3+1 0.500030 0.499990 0.643150 0.899579
Cu2   Cu    Cu3+1 0.499970 0.500010 0.356850 0.899581
H1    H     H_    0.915128 0.285439 0.521138 0.086304
H2    H     H_    0.676041 0.385362 0.095583 0.092406
H3    H     H_    0.510949 0.709790 0.096389 0.095613
H4    H     H_    0.489051 0.290210 0.903611 0.095611
H5    H     H_    0.687017 0.595082 0.899819 0.089015
H6    H     H_    0.312983 0.404918 0.100181 0.089018
H7    H     H_    0.056473 0.194310 0.959575 0.143452
H8    H     H_    0.068723 0.344554 0.048945 0.139852
H9    H     H_    0.921767 0.259043 0.053822 0.137235
H10   H     H_    0.905929 0.433294 0.881986 0.158431
H11   H     H_    0.903466 0.284043 0.791061 0.163675
H12   H     H_    0.084868 0.714562 0.478872 0.086314
H13   H     H_    0.138169 0.307398 0.737557 0.141715
H14   H     H_    0.133902 0.460396 0.821846 0.151730
H15   H     H_    0.931300 0.655450 0.951057 0.139852
H16   H     H_    0.943564 0.805684 0.040442 0.143467
H17   H     H_    0.078263 0.740945 0.946193 0.137233
H18   H     H_    0.096556 0.715924 0.208948 0.163682
H19   H     H_    0.094075 0.566681 0.118016 0.158425
H20   H     H_    0.866105 0.539596 0.178154 0.151727
H21   H     H_    0.861839 0.692600 0.262434 0.141707
H22   H     H_    0.925611 0.919593 0.811349 0.146539
H23   H     H_    0.917493 0.629258 0.696948 0.098800
H24   H     H_    0.989436 0.892339 0.635109 0.146758
H25   H     H_    0.012812 0.042384 0.721228 0.140661
H26   H     H_    0.846717 0.065337 0.543799 0.152095
H27   H     H_    0.779266 0.081077 0.719413 0.157095
H28   H     H_    0.710633 0.852300 0.709187 0.147686
H29   H     H_    0.775062 0.841679 0.531319 0.136106
H30   H     H_    0.010621 0.107763 0.364807 0.146788
H31   H     H_    0.074357 0.080119 0.188612 0.146549
H32   H     H_    0.987107 0.957578 0.279069 0.140665
H33   H     H_    0.220675 0.918815 0.280804 0.157125
H34   H     H_    0.082507 0.370744 0.303056 0.098799
H35   H     H_    0.153247 0.934764 0.456386 0.152092
H36   H     H_    0.224977 0.158365 0.468612 0.136124
H37   H     H_    0.289356 0.147605 0.290745 0.147682
H38   H     H_    0.524790 0.076716 0.744394 0.102434
H39   H     H_    0.475216 0.923283 0.255602 0.102440
H40   H     H_    0.323881 0.921104 0.647325 0.097059
H41   H     H_    0.676128 0.078894 0.352674 0.097064
H42   H     H_    0.323959 0.614637 0.904416 0.092408
N1    N     N_3   0.500090 0.499970 0.858290 -0.224062
N2    N     N_3   0.499910 0.500030 0.141710 -0.224062
O1    O     O_R   0.500060 0.316850 0.620870 -0.511281
O2    O     O_R   0.499940 0.683150 0.379130 -0.511281
O3    O     O_R   0.500000 0.316860 0.379090 -0.504058
O4    O     O_R   0.500000 0.683140 0.620910 -0.504064
O5    O     O_R   0.316880 0.499960 0.620870 -0.510098
O6    O     O_R   0.683120 0.500040 0.379130 -0.510099
O7    O     O_R   0.316830 0.499970 0.379090 -0.507399
O8    O     O_R   0.683170 0.500030 0.620910 -0.507401

loop_
_geom_bond_atom_site_label_1
_geom_bond_atom_site_label_2
_ccdc_geom_bond_type
C2    C35   S    
C1    O3    A    
C15   C18   S    
C22   H8    S    
C24   H21   S    
C38   N1    S    
Cu2   N2    S    
C2    N2    S    
C26   H15   S    
C6    C9    S    
C32   H32   S    
C5    C20   S    
C2    H6    S    
C17   C23   S    
Cu2   O3    S    
C28   C29   S    
C35   C37   S    
C5    C11   S    
C11   H23   S    
C30   C31   S    
C31   H33   S    
C36   N1    S    
C3    O7    A    
Cu2   O2    S    
C37   H2    S    
C38   H5    S    
C27   H28   S    
C30   H37   S    
C15   H39   S    
C36   H42   S    
C37   N2    S    
C23   H40   S    
C8    H12   S    
C27   H29   S    
C16   C27   S    
C7    H1    S    
C22   H7    S    
C29   H24   S    
C21   C22   S    
C17   C30   S    
C34   N2    S    
Cu1   O4    S    
C21   H10   S    
C32   H31   S    
C4    O6    A    
C1    O1    A    
C1    C19   S    
C12   O4    A    
C18   C23   S    
C28   H27   S    
C24   C25   S    
C20   H14   S    
C19   C33   S    
Cu1   Cu2   S    
C5    C7    S    
C35   N1    S    
C32   H30   S    
C25   C26   S    
C14   C23   S    
C28   H26   S    
C37   C38   S    
C16   C33   S    
C30   H36   S    
C31   H35   S    
C31   C32   S    
C24   H20   S    
C6    C24   S    
C13   H34   S    
C35   H4    S    
C9    C11   S    
C22   H9    S    
C29   H25   S    
C8    C10   S    
C14   C16   S    
C25   H18   S    
Cu1   O1    S    
Cu1   O8    S    
C21   H11   S    
C2    C36   S    
C15   C17   S    
C29   H22   S    
C34   C38   S    
C14   C19   S    
C34   H3    S    
C20   H13   S    
C10   C13   S    
C26   H16   S    
C6    C8    S    
C12   O2    A    
C3    O5    A    
Cu1   N1    S    
C5    C10   S    
C3    C10   S    
C6    C13   S    
C8    C11   S    
C17   C19   S    
Cu1   O5    S    
C34   C36   S    
C14   H38   S    
Cu2   O7    S    
C26   H17   S    
C7    C9    S    
C7    C13   S    
C20   C21   S    
C16   C18   S    
C12   C18   S    
C27   C28   S    
C25   H19   S    
Cu2   O6    S    
C4    C9    S    
C33   H41   S    
C15   C33   S    
C4    O8    A    
