data_mof_unit_35565.cif
_audit_creation_date              2012-12-11T15:15:45-0500
_audit_creation_method            fapswitch 2.2
_symmetry_space_group_name_H-M    P1
_symmetry_Int_Tables_number       1
_space_group_crystal_system       triclinic
_cell_length_a                    20.659615
_cell_length_b                    22.782443
_cell_length_c                    6.934936
_cell_angle_alpha                 89.999855
_cell_angle_beta                  86.739299
_cell_angle_gamma                 90.000603
_cell_volume                      3258.82702693

loop_
_atom_site_label
_atom_site_type_symbol
_atom_type_description
_atom_site_fract_x
_atom_site_fract_y
_atom_site_fract_z
_atom_type_partial_charge
O1    O     O_R   0.387100 0.552640 0.378490 -0.537986
O2    O     O_R   0.612900 0.052640 0.621510 -0.537970
O3    O     O_R   0.249610 0.559600 0.072250 -0.520884
O4    O     O_R   0.750390 0.059600 0.927750 -0.520848
O5    O     O_R   0.249120 0.447360 0.902040 -0.546088
O6    O     O_R   0.750880 0.947360 0.097960 -0.546092
C1    C     C_R   0.228472 0.574735 0.245358 0.695118
C2    C     C_R   0.771529 0.074732 0.754650 0.695068
O7    O     O_R   0.386610 0.559560 0.048860 -0.539412
O8    O     O_R   0.613390 0.059560 0.951140 -0.539427
O9    O     O_R   0.387100 0.447320 0.878470 -0.537806
O10   O     O_R   0.612900 0.947320 0.121530 -0.537786
C3    C     C_R   0.407674 0.574985 0.214495 0.687515
C4    C     C_R   0.592326 0.074986 0.785502 0.687550
O11   O     O_R   0.249120 0.552680 0.402050 -0.529126
O12   O     O_R   0.750880 0.052680 0.597950 -0.529320
O13   O     O_3   0.318110 0.463180 0.223790 -0.379149
O14   O     O_3   0.681890 0.963180 0.776210 -0.379120
V1    V     V_3+5 0.318110 0.506830 0.948930 1.488826
V2    V     V_3+5 0.681890 0.006830 0.051070 1.488727
O15   O     O_R   0.386610 0.440400 0.548840 -0.543253
O16   O     O_R   0.613390 0.940400 0.451160 -0.543241
C5    C     C_R   0.407964 0.425176 0.714708 0.686702
C6    C     C_R   0.592036 0.925176 0.285296 0.686741
O17   O     O_R   0.249610 0.440440 0.572240 -0.548565
O18   O     O_R   0.750390 0.940440 0.427760 -0.548570
C7    C     C_R   0.227197 0.426514 0.745015 0.695682
C8    C     C_R   0.772799 0.926511 0.254982 0.695628
V3    V     V_3+5 0.318110 0.493170 0.448930 1.458416
V4    V     V_3+5 0.681890 0.993170 0.551070 1.458267
O19   O     O_3   0.318110 0.536820 0.723940 -0.342925
O20   O     O_3   0.681890 0.036820 0.276060 -0.343090
C9    C     C_R   0.173838 0.383513 0.765399 -0.048841
C10   C     C_R   0.826142 0.883498 0.234578 -0.048814
C11   C     C_R   0.151980 0.354419 0.602913 -0.180735
C12   C     C_R   0.847906 0.854307 0.397001 -0.180795
C13   C     C_R   0.101357 0.314009 0.622980 -0.122180
C14   C     C_R   0.898509 0.813875 0.376926 -0.122165
C15   C     C_R   0.070991 0.302507 0.806043 0.166769
C16   C     C_R   0.928961 0.802461 0.193923 0.166776
C17   C     C_R   0.093580 0.330785 0.968491 -0.144566
C18   C     C_R   0.906457 0.830832 0.031530 -0.144601
C19   C     C_R   0.144329 0.371011 0.948618 -0.165362
C20   C     C_R   0.855719 0.871070 0.051409 -0.165369
C21   C     C_R   0.919452 0.162019 0.866979 -0.122269
C22   C     C_R   0.080512 0.661971 0.132964 -0.122313
C23   C     C_R   0.869369 0.121049 0.877422 -0.134929
C24   C     C_R   0.130633 0.621037 0.122511 -0.135250
C25   C     C_R   0.828612 0.160121 0.581151 -0.011666
C26   C     C_R   0.171298 0.660078 0.418974 -0.011581
C27   C     C_R   0.878379 0.201815 0.574516 -0.183415
C28   C     C_R   0.121493 0.701731 0.425601 -0.183448
C29   C     C_R   0.924249 0.203061 0.715537 0.135442
C30   C     C_R   0.075648 0.702967 0.284518 0.135427
C31   C     C_2   0.016924 0.260241 0.834037 -0.195437
C32   C     C_2   0.983052 0.760216 0.165921 -0.195393
C33   C     C_2   0.977901 0.246056 0.692622 -0.176764
C34   C     C_2   0.021943 0.745896 0.307508 -0.176802
C35   C     C_R   0.823600 0.119145 0.735566 -0.106529
C36   C     C_R   0.176374 0.619128 0.264464 -0.106492
H1    H     H_    0.174264 0.362468 0.460202 0.122551
H2    H     H_    0.825562 0.862293 0.539669 0.122593
H3    H     H_    0.867372 0.089652 0.994930 0.152933
H4    H     H_    0.132678 0.589669 0.004920 0.152966
H5    H     H_    0.984012 0.268113 0.554095 0.123290
H6    H     H_    0.015702 0.767801 0.446239 0.123221
H7    H     H_    0.071475 0.322148 0.111146 0.100894
H8    H     H_    0.928622 0.822262 0.888919 0.100948
H9    H     H_    0.954794 0.160097 0.975763 0.108572
H10   H     H_    0.045186 0.660057 0.024123 0.108589
H11   H     H_    0.160127 0.392505 0.077062 0.122675
H12   H     H_    0.839988 0.892637 0.923018 0.122706
H13   H     H_    0.007642 0.242705 0.978265 0.122250
H14   H     H_    0.992492 0.742825 0.021572 0.122271
H15   H     H_    0.087126 0.291355 0.495088 0.099679
H16   H     H_    0.912653 0.791142 0.504775 0.099681
H17   H     H_    0.881905 0.233093 0.456394 0.125403
H18   H     H_    0.117911 0.732985 0.543790 0.125589
C37   C     C_R   0.575092 0.364515 0.773526 -0.118325
C38   C     C_R   0.424880 0.864510 0.226947 -0.118285
H19   H     H_    0.532335 0.450107 0.768983 0.110052
H20   H     H_    0.467635 0.950105 0.231430 0.110065
H21   H     H_    0.621595 0.383499 0.800623 0.152281
H22   H     H_    0.378360 0.883492 0.200065 0.152297
C39   C     C_R   0.462236 0.382656 0.720275 -0.061294
C40   C     C_R   0.537766 0.882653 0.279766 -0.061279
C41   C     C_R   0.475255 0.094178 0.794797 -0.199114
C42   C     C_R   0.524747 0.594186 0.204878 -0.199140
C43   C     C_R   0.421605 0.130821 0.806170 -0.164491
C44   C     C_R   0.578392 0.630835 0.193372 -0.164498
C45   C     C_R   0.428359 0.192034 0.801529 0.204060
C46   C     C_R   0.571631 0.692047 0.198141 0.204049
C47   C     C_R   0.491137 0.218081 0.771765 0.077011
C48   C     C_R   0.508859 0.718083 0.228198 0.077000
C49   C     C_R   0.546156 0.179605 0.775258 -0.004109
C50   C     C_R   0.453838 0.679603 0.224883 -0.003943
C51   C     C_R   0.501872 0.280508 0.750039 0.082496
C52   C     C_R   0.498125 0.780506 0.250044 0.082499
C53   C     C_R   0.565986 0.303102 0.763596 0.041176
C54   C     C_R   0.433998 0.803096 0.236785 0.041279
C55   C     C_R   0.619292 0.264038 0.771492 -0.036661
C56   C     C_R   0.380687 0.764029 0.229099 -0.036887
C57   C     C_R   0.608638 0.203531 0.773391 -0.211802
C58   C     C_R   0.391348 0.703523 0.227077 -0.212036
C59   C     C_R   0.451734 0.321662 0.712773 -0.166046
C60   C     C_R   0.548279 0.821660 0.287153 -0.166030
C61   C     C_R   0.523779 0.403373 0.756041 -0.168034
C62   C     C_R   0.476202 0.903370 0.244267 -0.168082
C63   C     C_R   0.537689 0.117454 0.784677 -0.069868
C64   C     C_R   0.462309 0.617455 0.215296 -0.069842
H23   H     H_    0.404422 0.308015 0.673550 0.146873
H24   H     H_    0.595612 0.808013 0.326189 0.146841
H25   H     H_    0.467966 0.047085 0.801383 0.119563
H26   H     H_    0.532038 0.547094 0.198152 0.119542
H27   H     H_    0.373815 0.111406 0.825731 0.128959
H28   H     H_    0.626178 0.611427 0.173585 0.128954
H29   H     H_    0.650351 0.174714 0.775102 0.136662
H30   H     H_    0.349633 0.674703 0.225529 0.136373
C65   C     C_2   0.687909 0.283836 0.770540 0.805287
O21   O     O_2   0.707448 0.323481 0.663532 -0.547574
O22   O     O_R   0.731219 0.254485 0.884886 -0.663478
H31   H     H_    0.776926 0.270656 0.868643 0.308655
C66   C     C_2   0.312064 0.783822 0.230388 0.805154
O23   O     O_2   0.292576 0.823456 0.337511 -0.547435
O24   O     O_R   0.268694 0.754482 0.116208 -0.663620
H32   H     H_    0.222992 0.770657 0.132647 0.308713
N1    N     N_3   0.371503 0.226319 0.847680 -0.704946
H33   H     H_    0.352692 0.214124 0.985060 0.236671
H34   H     H_    0.336935 0.216121 0.748394 0.223892
N2    N     N_3   0.628468 0.726343 0.151822 -0.704914
H35   H     H_    0.647230 0.714159 0.014377 0.236669
H36   H     H_    0.663077 0.716143 0.250982 0.223879
C67   C     C_2   0.782947 0.161856 0.425219 0.751946
O25   O     O_2   0.784984 0.123700 0.301301 -0.547358
O26   O     O_R   0.740153 0.209003 0.413776 -0.650921
H37   H     H_    0.711855 0.205738 0.299502 0.314185
C68   C     C_2   0.216917 0.661856 0.575039 0.751400
O27   O     O_2   0.215135 0.623526 0.698351 -0.547253
O28   O     O_R   0.259280 0.709278 0.587522 -0.650689
H38   H     H_    0.287541 0.706041 0.701893 0.314385

loop_
_geom_bond_atom_site_label_1
_geom_bond_atom_site_label_2
_ccdc_geom_bond_type
C4    C63   S    
C37   H21   S    
H19   C61   S    
O13   V3    S    
N2    H36   S    
O4    C2    A    
V1    O19   S    
C43   H27   S    
C26   C68   S    
O26   H37   S    
C17   H7    S    
C60   H24   S    
C7    C9    S    
C68   O28   S    
O9    V1    S    
C45   N1    S    
C37   C53   A    
C11   C13   A    
O7    V1    S    
O3    C1    A    
C2    C35   S    
C23   H3    S    
C28   H18   S    
C24   H4    S    
C48   C52   A    
O12   V4    S    
O10   C6    A    
C21   C23   A    
O7    C3    A    
C47   C49   A    
C9    C11   A    
O5    C7    A    
C34   H6    S    
O6    C8    A    
O8    V2    S    
C25   C27   A    
C26   C28   A    
O3    V1    S    
O14   V4    S    
H20   C62   S    
C43   C45   A    
C10   C12   A    
C38   H22   S    
C48   C50   A    
C24   C36   A    
C42   C64   A    
C1    O11   A    
C59   H23   S    
C8    C10   S    
C2    O12   A    
C38   C54   A    
C18   H8    S    
C17   C19   A    
O10   V2    S    
C57   H29   S    
C18   C20   A    
N1    H34   S    
C39   C59   A    
O1    V3    S    
C51   C53   A    
C28   C30   A    
O11   V3    S    
C58   H30   S    
C65   O22   S    
O15   C5    A    
O17   V3    S    
C22   C24   A    
C23   C35   A    
C32   H14   S    
C49   C57   A    
C21   H9    S    
C55   C65   S    
C66   O23   D    
C10   C20   A    
C15   C17   A    
C49   C63   A    
C29   C33   S    
C14   H16   S    
C13   H15   S    
C16   C32   S    
C50   C64   A    
C12   H2    S    
C9    C19   A    
C46   N2    S    
C27   H17   S    
C3    C64   S    
V4    O20   S    
C45   C47   A    
C44   C46   A    
C65   O21   D    
C31   H13   S    
C22   C30   A    
C46   C48   A    
C37   C61   A    
C11   H1    S    
C56   C58   A    
O22   H31   S    
C41   C63   A    
C53   C55   A    
C42   C44   A    
O18   V4    S    
C44   H28   S    
C31   C33   D    
O8    C4    A    
O24   H32   S    
C30   C34   S    
O16   C6    A    
O1    C3    A    
C56   C66   S    
C47   C51   A    
C1    C36   S    
C54   C56   A    
V2    O20   S    
C25   C67   S    
C19   H11   S    
O16   V4    S    
V3    O19   S    
O18   C8    A    
C40   C62   A    
C33   H5    S    
C16   C18   A    
C52   C60   A    
O28   H38   S    
O5    V1    S    
C15   C31   S    
O6    V2    S    
C68   O27   D    
C38   C62   A    
C52   C54   A    
C25   C35   A    
O2    V4    S    
C41   H25   S    
C26   C36   A    
C50   C58   A    
N2    H35   S    
C51   C59   A    
C13   C15   A    
C12   C14   A    
C14   C16   A    
C67   O25   D    
O15   V3    S    
O9    C5    A    
O13   V1    S    
C32   C34   D    
C20   H12   S    
O14   V2    S    
C42   H26   S    
O2    C4    A    
C22   H10   S    
C66   O24   S    
C21   C29   A    
O4    V2    S    
C55   C57   A    
C5    C39   S    
C67   O26   S    
C41   C43   A    
C27   C29   A    
C39   C61   A    
C40   C60   A    
C6    C40   S    
N1    H33   S    
O17   C7    A    
