data_mof_unit_49469.cif
_audit_creation_date              2012-12-10T18:57:11-0500
_audit_creation_method            fapswitch 2.2
_symmetry_space_group_name_H-M    P1
_symmetry_Int_Tables_number       1
_space_group_crystal_system       triclinic
_cell_length_a                    10.640988
_cell_length_b                    9.852517
_cell_length_c                    10.678718
_cell_angle_alpha                 89.910263
_cell_angle_beta                  90.133384
_cell_angle_gamma                 89.991064
_cell_volume                      1119.55787529

loop_
_atom_site_label
_atom_site_type_symbol
_atom_type_description
_atom_site_fract_x
_atom_site_fract_y
_atom_site_fract_z
_atom_type_partial_charge
C1    C     C_R   0.260345 0.500035 0.497903 0.988356
C2    C     C_R   0.524294 0.623130 0.936010 -0.047521
C3    C     C_R   0.525052 0.500861 0.128795 -0.107235
C4    C     C_R   0.523834 0.500468 0.871442 -0.078947
C5    C     C_R   0.548269 0.378983 0.065111 -0.140567
C6    C     C_R   0.547888 0.378840 0.935581 -0.145630
C7    C     C_3   0.437779 0.743675 0.929114 0.210742
C8    C     C_3   0.440277 0.744168 0.072082 0.199597
C9    C     C_R   0.064680 0.430600 0.395014 0.406966
C10   C     C_R   0.934839 0.430455 0.395062 0.403848
C11   C     C_R   0.871830 0.500766 0.491408 -0.482527
C12   C     C_R   0.739635 0.499995 0.497929 0.985826
C13   C     C_R   0.128085 0.500911 0.491356 -0.510941
C14   C     C_R   0.935846 0.572927 0.583855 0.544232
C15   C     C_R   0.064412 0.573023 0.583799 0.555535
C16   C     C_R   0.576778 0.071674 0.579303 0.598426
C17   C     C_R   0.423165 0.071955 0.420764 0.619139
C18   C     C_R   0.576688 0.927857 0.579261 -0.174392
C19   C     C_R   0.423103 0.928157 0.420970 -0.102772
C20   C     C_R   0.504164 0.500147 0.259951 0.820473
C21   C     C_R   0.503822 0.499966 0.740077 0.952923
C22   C     C_R   0.526314 0.623512 0.063972 -0.012572
F1    F     F_    0.873377 0.639522 0.676184 -0.598430
F2    F     F_    0.127206 0.639802 0.676002 -0.565923
F3    F     F_    0.653926 0.139238 0.658772 -0.626129
F4    F     F_    0.346149 0.139763 0.341149 -0.601233
H1    H     H_    0.557761 0.283218 0.114241 0.203142
H2    H     H_    0.786443 0.397437 0.290820 0.321963
H3    H     H_    0.557433 0.283050 0.886848 0.211746
H4    H     H_    0.481919 0.833583 0.884076 0.168143
H5    H     H_    0.348862 0.721523 0.117927 0.153824
H6    H     H_    0.637964 0.873137 0.642647 0.208018
H7    H     H_    0.361531 0.873679 0.357883 0.196998
H8    H     H_    0.286245 0.629618 0.919267 0.350649
H9    H     H_    0.583901 0.869324 0.084434 0.350787
H10   H     H_    0.212406 0.398637 0.290344 0.340227
N1    N     N_R   0.500000 0.857200 0.500000 -0.147896
N2    N     N_R   0.500000 0.142810 0.500000 -0.198284
O1    O     O_R   0.316770 0.614620 0.499990 -0.578175
O2    O     O_3   0.499406 0.859599 0.122843 -0.724893
O3    O     O_3   0.125126 0.365123 0.297677 -0.620315
O4    O     O_3   0.874032 0.364679 0.297821 -0.654785
O5    O     O_R   0.683230 0.614620 0.500010 -0.586506
O6    O     O_R   0.316800 0.385290 0.500000 -0.576195
O7    O     O_R   0.683200 0.385290 0.500000 -0.574817
O8    O     O_R   0.500000 0.614690 0.316780 -0.612196
O9    O     O_R   0.500000 0.614690 0.683220 -0.585834
O10   O     O_R   0.500020 0.385360 0.316780 -0.599061
O11   O     O_R   0.499980 0.385360 0.683220 -0.600919
O12   O     O_3   0.318530 0.713461 0.878734 -0.652076
Zn1   Zn    Zn3+2 0.500000 0.653120 0.500000 1.036600
Zn2   Zn    Zn3+2 0.500000 0.346880 0.500000 1.078610

loop_
_geom_bond_atom_site_label_1
_geom_bond_atom_site_label_2
_ccdc_geom_bond_type
C14   F1    S    
C2    C22   A    
C1    C13   S    
C8    C22   S    
C11   C12   S    
C10   O4    S    
C19   N1    A    
C9    C10   A    
C1    O6    A    
O1    Zn1   S    
C2    C7    S    
O10   Zn2   S    
O11   Zn2   S    
O6    Zn2   S    
C21   O11   A    
H9    O2    S    
C3    C20   S    
C7    H4    S    
C4    C21   S    
O5    Zn1   S    
H10   O3    S    
C20   O10   A    
C2    C4    A    
H2    O4    S    
C15   F2    S    
C17   C19   A    
C18   N1    A    
C12   O5    A    
C17   N2    A    
C13   C15   A    
C5    C6    A    
N1    Zn1   S    
C11   C14   A    
H8    O12   S    
N2    Zn2   S    
C10   C11   A    
C17   F4    S    
C7    C8    S    
C6    H3    S    
C18   H6    S    
C4    C6    A    
C19   H7    S    
C16   N2    A    
C16   F3    S    
C9    C13   A    
C14   C15   A    
C3    C22   A    
O9    Zn1   S    
C8    O2    S    
O7    Zn2   S    
C3    C5    A    
C5    H1    S    
C8    H5    S    
C9    O3    S    
O8    Zn1   S    
C16   C18   A    
C20   O8    A    
C7    O12   S    
C1    O1    A    
C12   O7    A    
C21   O9    A    
