data_mof_unit_62227.cif
_audit_creation_date              2013-03-05T16:20:58-0500
_audit_creation_method            fapswitch 2.2
_symmetry_space_group_name_H-M    P1
_symmetry_Int_Tables_number       1
_space_group_crystal_system       triclinic
_cell_length_a                    21.734264
_cell_length_b                    21.71909
_cell_length_c                    22.145662
_cell_angle_alpha                 119.209396
_cell_angle_beta                  119.393421
_cell_angle_gamma                 89.777593
_cell_volume                      7558.69650895

loop_
_atom_site_label
_atom_site_type_symbol
_atom_site_description
_atom_site_fract_x
_atom_site_fract_y
_atom_site_fract_z
_atom_type_partial_charge
O1    O     O_R   0.447800 0.090170 0.500010 -0.585586
O2    O     O_R   0.552190 0.090170 0.499980 -0.589882
C1    C     C_R   0.500007 0.119064 0.500075 0.796057
O3    O     O_R   0.508090 0.060280 0.620580 -0.581396
O4    O     O_R   0.612480 0.060280 0.620550 -0.580382
C2    C     C_R   0.579902 0.079972 0.659926 0.825417
Cu1   Cu    Cu3+1 0.438190 1.000000 0.500020 0.939184
Cu2   Cu    Cu3+1 0.561810 0.000000 0.499980 0.949587
O5    O     O_R   0.447810 0.909830 0.500020 -0.587813
O6    O     O_R   0.552200 0.909830 0.499990 -0.585882
O7    O     O_R   0.387520 0.939720 0.379450 -0.583387
O8    O     O_R   0.491910 0.939720 0.379420 -0.579592
C3    C     C_R   0.500466 0.881487 0.500531 0.793407
C4    C     C_R   0.420094 0.919999 0.340072 0.825140
C5    C     C_3   0.666974 0.258584 0.951428 -0.371630
C6    C     C_3   0.782369 0.260213 0.950922 -0.370290
C7    C     C_3   0.830913 0.308816 0.047920 -0.373896
H1    H     H_    0.724831 0.366850 0.071153 0.163189
H2    H     H_    0.653076 0.295007 0.927772 0.163133
H3    H     H_    0.813595 0.226108 0.927786 0.164233
H4    H     H_    0.770643 0.296667 0.927257 0.165010
H5    H     H_    0.842389 0.368503 0.070621 0.164560
H6    H     H_    0.885339 0.297940 0.071145 0.161442
C8    C     C_1   0.875120 0.375610 0.250255 -0.171161
C9    C     C_3   0.708449 0.209068 0.917412 0.319558
C10   C     C_3   0.715522 0.307193 0.048438 -0.375671
C11   C     C_3   0.791114 0.291835 0.082590 0.321773
C12   C     C_3   0.775722 0.208261 0.049154 -0.371847
C13   C     C_3   0.727182 0.159659 0.952160 -0.375784
C14   C     C_1   0.837303 0.338000 0.174825 -0.115270
C15   C     C_1   0.662323 0.162828 0.825171 -0.111693
C16   C     C_1   0.624669 0.124995 0.749737 -0.169507
H7    H     H_    0.675053 0.122496 0.929407 0.162265
H8    H     H_    0.757366 0.123657 0.929046 0.162069
H9    H     H_    0.746794 0.194329 0.072763 0.162644
H10   H     H_    0.613712 0.223284 0.928662 0.163090
H11   H     H_    0.685468 0.295129 0.072044 0.160511
H12   H     H_    0.829106 0.195485 0.072399 0.161750
C17   C     C_R   0.457705 0.230103 0.521933 0.119425
C18   C     C_R   0.502703 0.188209 0.504379 -0.097570
C19   C     C_R   0.553756 0.216330 0.495305 -0.196859
H13   H     H_    0.592160 0.187601 0.485658 0.169582
C20   C     C_R   0.552785 0.280043 0.493995 -0.199067
H14   H     H_    0.590485 0.299728 0.484056 0.143730
C21   C     C_R   0.501272 0.316219 0.502358 -0.080034
C22   C     C_R   0.457627 0.293711 0.521899 0.047807
C23   C     C_3   0.375401 0.277419 0.481710 -0.231731
C24   C     C_3   0.375790 0.207375 0.482261 -0.472884
H15   H     H_    0.345357 0.265469 0.417656 0.152320
H16   H     H_    0.362604 0.207377 0.524862 0.201503
H17   H     H_    0.345529 0.155414 0.418588 0.185839
C25   C     C_3   0.217518 0.739982 0.048863 -0.384994
C26   C     C_3   0.333112 0.741028 0.048727 -0.367924
C27   C     C_3   0.284733 0.692443 0.951719 -0.384001
H18   H     H_    0.157370 0.631705 0.929130 0.175055
H19   H     H_    0.228875 0.703518 0.072510 0.164741
H20   H     H_    0.386567 0.776113 0.071638 0.162766
H21   H     H_    0.346640 0.704580 0.072368 0.162356
H22   H     H_    0.275136 0.632773 0.928988 0.164944
H23   H     H_    0.315061 0.704309 0.928262 0.158944
C28   C     C_1   0.125613 0.624391 0.749735 -0.125678
C29   C     C_3   0.291710 0.790839 0.082572 0.320569
C30   C     C_3   0.169139 0.691395 0.951856 -0.344027
C31   C     C_3   0.209330 0.708108 0.917391 0.307075
C32   C     C_3   0.225115 0.791690 0.950851 -0.374997
C33   C     C_3   0.273489 0.840269 0.047844 -0.373979
C34   C     C_1   0.163314 0.661975 0.825161 -0.100522
C35   C     C_1   0.337714 0.837077 0.174819 -0.112155
C36   C     C_1   0.375327 0.874933 0.250257 -0.172970
H24   H     H_    0.243365 0.876481 0.070833 0.162345
H25   H     H_    0.325819 0.877227 0.070736 0.162180
H26   H     H_    0.171869 0.804681 0.927479 0.167666
H27   H     H_    0.186338 0.774302 0.071869 0.166397
H28   H     H_    0.114832 0.702485 0.928491 0.178775
H29   H     H_    0.254322 0.805428 0.927382 0.160835
C37   C     C_R   0.437905 0.752304 0.439922 0.102936
C38   C     C_R   0.501242 0.814226 0.499179 -0.078225
C39   C     C_R   0.567907 0.807914 0.551955 -0.208288
H30   H     H_    0.618913 0.853806 0.595421 0.152060
C40   C     C_R   0.567828 0.743698 0.552448 -0.214059
H31   H     H_    0.618757 0.740707 0.596060 0.155983
C41   C     C_R   0.501603 0.684630 0.498047 -0.086729
C42   C     C_R   0.438368 0.688064 0.438577 0.134427
C43   C     C_3   0.361119 0.674002 0.417701 -0.489245
C44   C     C_3   0.360766 0.744819 0.419452 -0.455236
H32   H     H_    0.321731 0.623202 0.354379 0.203152
H33   H     H_    0.358741 0.677671 0.468348 0.186971
H34   H     H_    0.321104 0.734825 0.357150 0.194716
H35   H     H_    0.358335 0.789667 0.471276 0.210714
O9    O     O_R   0.910020 0.552220 0.500020 -0.587232
O10   O     O_R   0.909990 0.447840 0.500030 -0.559528
C45   C     C_R   0.882360 0.500829 0.501480 0.881803
O11   O     O_R   0.939920 0.491910 0.379430 -0.584608
O12   O     O_R   0.939890 0.387530 0.379440 -0.587811
C46   C     C_R   0.920152 0.420187 0.340057 0.813157
Cu3   Cu    Cu3+1 0.000200 0.561800 0.500000 0.951472
Cu4   Cu    Cu3+1 0.000170 0.438200 0.500000 0.978175
O13   O     O_R   0.090380 0.552160 0.499970 -0.589249
O14   O     O_R   0.090350 0.447780 0.499980 -0.600746
O15   O     O_R   0.060480 0.612470 0.620560 -0.590682
O16   O     O_R   0.060450 0.508090 0.620570 -0.558607
C47   C     C_R   0.118604 0.499457 0.499361 0.778498
C48   C     C_R   0.080607 0.579815 0.659936 0.874965
O17   O     O_R   0.625130 0.534920 0.569820 -0.585992
O18   O     O_R   0.555400 0.465140 0.430260 -0.586661
C49   C     C_R   0.619028 0.499605 0.500069 0.834514
O19   O     O_R   0.534920 0.444720 0.569790 -0.591199
O20   O     O_R   0.465190 0.374940 0.430230 -0.587410
C50   C     C_R   0.499509 0.381364 0.500355 0.798113
Cu5   Cu    Cu3+1 0.541330 0.541310 0.582630 0.942307
Cu6   Cu    Cu3+1 0.458770 0.458690 0.417370 0.937846
O21   O     O_R   0.444700 0.534860 0.569740 -0.588571
O22   O     O_R   0.374970 0.465080 0.430180 -0.591787
O23   O     O_R   0.534910 0.625060 0.569770 -0.586988
O24   O     O_R   0.465180 0.555280 0.430210 -0.585203
C51   C     C_R   0.380978 0.499868 0.500106 0.795947
C52   C     C_R   0.499795 0.618896 0.499679 0.800956
C53   C     C_R   0.753949 0.502032 0.444213 0.065198
C54   C     C_R   0.818312 0.502891 0.505728 -0.205621
C55   C     C_R   0.816654 0.501916 0.568750 0.320475
C56   C     C_R   0.750099 0.500132 0.565838 -0.276258
H36   H     H_    0.748686 0.500566 0.614271 0.198136
C57   C     C_R   0.685877 0.498516 0.501161 -0.161745
C58   C     C_R   0.690511 0.498532 0.441082 0.132177
C59   C     C_3   0.648302 0.498141 0.363787 -0.445983
C60   C     C_3   0.720630 0.501094 0.366713 -0.467457
H37   H     H_    0.602889 0.445117 0.309970 0.200447
H38   H     H_    0.632100 0.549370 0.375195 0.193705
H39   H     H_    0.717180 0.449525 0.315009 0.189947
H40   H     H_    0.745838 0.553759 0.379080 0.207098
C61   C     C_R   0.250578 0.557364 0.565710 0.088714
C62   C     C_R   0.185339 0.498309 0.499964 -0.067438
C63   C     C_R   0.187553 0.434223 0.439578 -0.204933
H41   H     H_    0.138803 0.385731 0.390822 0.141113
C64   C     C_R   0.251918 0.434158 0.439425 -0.189651
H42   H     H_    0.252057 0.385533 0.390598 0.149229
C65   C     C_R   0.314924 0.497435 0.501225 -0.079169
C66   C     C_R   0.314609 0.556618 0.566796 0.143137
C67   C     C_3   0.335775 0.637549 0.601756 -0.482109
C68   C     C_3   0.265141 0.638241 0.600319 -0.470408
H43   H     H_    0.387195 0.669705 0.665962 0.200555
H44   H     H_    0.335196 0.648865 0.557657 0.187178
H45   H     H_    0.275877 0.670855 0.663695 0.190619
H46   H     H_    0.223462 0.649838 0.555235 0.213699
C69   C     C_R   0.351049 0.331749 0.534653 0.151762
C70   C     C_R   0.399340 0.402449 0.607045 -0.129101
C71   C     C_R   0.373844 0.451203 0.652831 -0.148655
C72   C     C_R   0.300166 0.430272 0.626962 -0.099808
C73   C     C_R   0.251705 0.360598 0.555043 -0.116856
C74   C     C_R   0.276833 0.311732 0.508870 -0.160471
H47   H     H_    0.456523 0.420425 0.628303 0.142665
H48   H     H_    0.411163 0.505491 0.708169 0.129503
H49   H     H_    0.280454 0.468284 0.662230 0.122066
H50   H     H_    0.194436 0.344687 0.534618 0.137490
H51   H     H_    0.238391 0.258141 0.452820 0.126429
N1    N     N_R   0.881346 0.504989 0.636635 0.129608
O25   O     O_R   0.946970 0.545117 0.669733 -0.385823
O26   O     O_R   0.874026 0.475641 0.672732 -0.362931

loop_
_geom_bond_atom_site_label_1
_geom_bond_atom_site_label_2
_geom_bond_distance
_ccdc_geom_bond_type
C9    C15   1.477071 S    
C2    C16   1.438154 S    
C23   C69   1.516970 S    
C6    H4    1.113019 S    
C19   C20   1.398030 A    
C19   H13   1.082844 S    
C71   C72   1.396455 A    
H1    C10   1.113007 S    
C43   H33   1.112055 S    
C20   H14   1.083600 S    
O17   C49   1.278774 A    
C69   C70   1.409891 A    
C64   H42   1.083131 S    
C23   H15   1.112975 S    
C27   H23   1.113028 S    
C26   C27   1.553403 S    
Cu1   O7    1.941441 S    
C10   C11   1.550719 S    
C7    H6    1.113025 S    
C12   C13   1.553185 S    
C28   C48   1.437945 S    
C45   C54   1.439633 S    
C43   H32   1.111531 S    
C51   C65   1.449582 S    
O4    C2    1.297832 A    
Cu2   O6    1.970443 S    
O7    C4    1.297803 A    
C21   C50   1.436849 S    
C5    C9    1.550795 S    
C60   H40   1.111482 S    
C13   H7    1.113019 S    
C55   N1    1.438516 S    
O20   C50   1.280551 A    
C64   C65   1.405779 A    
O5    C3    1.295162 A    
C53   C54   1.384865 A    
C4    C36   1.438233 S    
C61   C68   1.491758 S    
Cu5   Cu6   2.646303 S    
C43   C44   1.519620 S    
C24   H17   1.112103 S    
C42   C43   1.493367 S    
C12   H9    1.113017 S    
C6    C7    1.553257 S    
O24   C52   1.280298 A    
H18   C30   1.113015 S    
C49   C57   1.441499 S    
C59   H38   1.111659 S    
C68   H45   1.111540 S    
Cu5   O23   1.968213 S    
C69   C74   1.405684 A    
O10   C45   1.289833 A    
Cu2   O8    1.942335 S    
O22   C51   1.283071 A    
C24   H16   1.112455 S    
O18   Cu6   1.971458 S    
O11   C46   1.297404 A    
C11   C14   1.476958 S    
O19   C50   1.277371 A    
O12   Cu4   1.940552 S    
O3    Cu1   1.942336 S    
C37   C42   1.381042 A    
Cu4   O14   1.972052 S    
Cu5   O21   1.971456 S    
C27   H22   1.113006 S    
C9    C13   1.550650 S    
C67   C68   1.519978 S    
C3    C38   1.446682 S    
C29   C33   1.550648 S    
C7    C11   1.550662 S    
C31   C34   1.476875 S    
C57   C58   1.382862 A    
C72   C73   1.396192 A    
C40   C41   1.404508 A    
C25   H27   1.113001 S    
C8    C46   1.437984 S    
C17   C18   1.398770 A    
C26   H20   1.113005 S    
C39   H30   1.083360 S    
C62   C63   1.404987 A    
C5    C10   1.553438 S    
C60   H39   1.111689 S    
C38   C39   1.405954 A    
C13   H8    1.113018 S    
O6    C3    1.291952 A    
O15   C48   1.296737 A    
C70   H47   1.081082 S    
Cu3   O13   1.970630 S    
O1    C1    1.297829 A    
C5    H2    1.113007 S    
C73   H50   1.082307 S    
C33   H25   1.113019 S    
C26   C29   1.550801 S    
C28   C34   1.207781 T    
O9    C45   1.291425 A    
C23   C24   1.527245 S    
C12   H12   1.113018 S    
C6    H3    1.113012 S    
Cu3   Cu4   2.684482 S    
Cu6   O22   1.970729 S    
C53   C58   1.346638 A    
O10   Cu4   1.970629 S    
C54   C55   1.424031 A    
C20   C21   1.399948 A    
C56   H36   1.083478 S    
C17   C22   1.381871 A    
O3    C2    1.297968 A    
C18   C19   1.410167 A    
O8    C4    1.298027 A    
C1    C18   1.457168 S    
C41   C42   1.395442 A    
O11   Cu3   1.943150 S    
C74   H51   1.083070 S    
C63   H41   1.083281 S    
O19   Cu5   1.970380 S    
C72   H49   1.082368 S    
C61   C62   1.393005 A    
C5    H10   1.113004 S    
O21   C51   1.281247 A    
C55   C56   1.415816 A    
C63   C64   1.400577 A    
C70   C71   1.398402 A    
O18   C49   1.281694 A    
C44   H34   1.111533 S    
C6    C9    1.550720 S    
Cu1   O5    1.968733 S    
C22   C23   1.499115 S    
N1    O25   1.300421 A    
C44   H35   1.112117 S    
O1    Cu1   1.970440 S    
C35   C36   1.207998 T    
C15   C16   1.207949 T    
O2    Cu2   1.968732 S    
C68   H46   1.112092 S    
C47   C62   1.444152 S    
C40   H31   1.083285 S    
C25   C30   1.553388 S    
O4    Cu2   1.941442 S    
Cu6   O24   1.970381 S    
C26   H21   1.113007 S    
C10   H11   1.113026 S    
O9    Cu3   1.972050 S    
C30   H28   1.113038 S    
C32   H26   1.113018 S    
C65   C66   1.396008 A    
C33   H24   1.113015 S    
C7    H5    1.113010 S    
C32   H29   1.113022 S    
O20   Cu6   1.968214 S    
C29   C35   1.477162 S    
C31   C32   1.550683 S    
N1    O26   1.301393 A    
O2    C1    1.294477 A    
C61   C66   1.380199 A    
O13   C47   1.293965 A    
C73   C74   1.398127 A    
O17   Cu5   1.970730 S    
C37   C38   1.394415 A    
C67   H43   1.111526 S    
C59   C60   1.541487 S    
C27   C31   1.550673 S    
Cu3   O15   1.940551 S    
C67   H44   1.111989 S    
C71   H48   1.082303 S    
C39   C40   1.400106 A    
O12   C46   1.296881 A    
C8    C14   1.207868 T    
C56   C57   1.410641 A    
O23   C52   1.282534 A    
Cu1   Cu2   2.687225 S    
C66   C67   1.493033 S    
C30   C31   1.550700 S    
C21   C22   1.392504 A    
O14   C47   1.290587 A    
O16   C48   1.297540 A    
C32   C33   1.553159 S    
C11   C12   1.550721 S    
C59   H37   1.111492 S    
C17   C24   1.494469 S    
C25   C29   1.550781 S    
C53   C60   1.488775 S    
C41   C52   1.446824 S    
C37   C44   1.492289 S    
Cu4   O16   1.943149 S    
C25   H19   1.113011 S    
C58   C59   1.488682 S    
