data_mof_unit_31596.cif
_audit_creation_date              2012-12-11T20:50:57-0500
_audit_creation_method            fapswitch 2.2
_symmetry_space_group_name_H-M    P1
_symmetry_Int_Tables_number       1
_space_group_crystal_system       triclinic
_cell_length_a                    30.509778
_cell_length_b                    33.853883
_cell_length_c                    8.42201
_cell_angle_alpha                 89.99993
_cell_angle_beta                  90.046706
_cell_angle_gamma                 90.000123
_cell_volume                      8698.87609654

loop_
_atom_site_label
_atom_site_type_symbol
_atom_type_description
_atom_site_fract_x
_atom_site_fract_y
_atom_site_fract_z
_atom_type_partial_charge
Ba1   Ba    Ba6+2 0.999930 0.472870 0.844940 1.655494
Ba2   Ba    Ba6+2 0.999930 0.527130 0.344940 1.655493
Ba3   Ba    Ba6+2 0.499930 0.972870 0.844940 1.655488
Ba4   Ba    Ba6+2 0.499930 0.027130 0.344940 1.655474
C1    C     C_3   0.987618 0.279348 0.484155 -0.324000
C2    C     C_3   0.987627 0.720650 0.984150 -0.323986
C3    C     C_3   0.487629 0.779347 0.484170 -0.323983
C4    C     C_3   0.487677 0.220659 0.984205 -0.323757
C5    C     C_R   0.245997 0.696353 0.045163 -0.025801
C6    C     C_R   0.245994 0.303649 0.545216 -0.025803
C7    C     C_R   0.745998 0.196353 0.045150 -0.025799
C8    C     C_R   0.745997 0.803645 0.545147 -0.025804
C9    C     C_R   0.213544 0.668357 0.002432 0.588642
C10   C     C_R   0.213541 0.331645 0.502482 0.588645
C11   C     C_R   0.713545 0.168357 0.002416 0.588634
C12   C     C_R   0.713544 0.831641 0.502414 0.588640
C13   C     C_R   0.158327 0.718929 0.005897 0.593844
C14   C     C_R   0.158330 0.281069 0.505856 0.593842
C15   C     C_R   0.658327 0.218927 0.005911 0.593843
C16   C     C_R   0.658326 0.781071 0.505911 0.593847
C17   C     C_R   0.190000 0.747613 0.047887 -0.026936
C18   C     C_R   0.190003 0.252386 0.547842 -0.026938
C19   C     C_R   0.689999 0.247611 0.047902 -0.026934
C20   C     C_R   0.689998 0.752387 0.547907 -0.026935
C21   C     C_R   0.234055 0.736196 0.067937 -0.051742
C22   C     C_R   0.234055 0.263804 0.567941 -0.051739
C23   C     C_R   0.734055 0.236195 0.067939 -0.051740
C24   C     C_R   0.734054 0.763803 0.567943 -0.051741
C25   C     C_R   0.290183 0.685457 0.065454 -0.072204
C26   C     C_R   0.290177 0.314547 0.565560 -0.072206
C27   C     C_R   0.790184 0.185458 0.065430 -0.072204
C28   C     C_R   0.790184 0.814541 0.565419 -0.072202
C29   C     C_R   0.821807 0.213460 0.107946 -0.075619
C30   C     C_R   0.821807 0.786539 0.607934 -0.075617
C31   C     C_R   0.321806 0.713458 0.107968 -0.075618
C32   C     C_R   0.321801 0.286546 0.608074 -0.075622
C33   C     C_R   0.810329 0.253319 0.131670 -0.021292
C34   C     C_R   0.810328 0.746680 0.631667 -0.021292
C35   C     C_R   0.310329 0.753318 0.131680 -0.021291
C36   C     C_R   0.310326 0.246683 0.631733 -0.021295
C37   C     C_R   0.766276 0.264736 0.111292 -0.051920
C38   C     C_R   0.766274 0.735263 0.611298 -0.051918
C39   C     C_R   0.266276 0.764736 0.111289 -0.051919
C40   C     C_R   0.266276 0.235264 0.611293 -0.051916
C41   C     C_R   0.178533 0.787488 0.071257 -0.074299
C42   C     C_R   0.178539 0.212509 0.571159 -0.074302
C43   C     C_R   0.678531 0.287485 0.071287 -0.074301
C44   C     C_R   0.678530 0.712513 0.571295 -0.074298
C45   C     C_3   0.998659 0.321994 0.050644 0.359992
C46   C     C_3   0.998656 0.678003 0.550641 0.359988
C47   C     C_3   0.498655 0.821997 0.050645 0.359979
C48   C     C_3   0.498652 0.177996 0.550592 0.359949
C49   C     C_R   0.710127 0.315471 0.113912 -0.072247
C50   C     C_R   0.710126 0.684527 0.613925 -0.072249
C51   C     C_R   0.210130 0.815473 0.113881 -0.072249
C52   C     C_R   0.210135 0.184523 0.613782 -0.072253
C53   C     C_R   0.754280 0.304551 0.134579 -0.026450
C54   C     C_R   0.754278 0.695448 0.634591 -0.026450
C55   C     C_R   0.254282 0.804552 0.134563 -0.026449
C56   C     C_R   0.254284 0.195447 0.634515 -0.026448
C57   C     C_R   0.786604 0.332471 0.178988 0.588817
C58   C     C_R   0.786602 0.667528 0.679002 0.588816
C59   C     C_R   0.286606 0.832472 0.178972 0.588816
C60   C     C_R   0.286608 0.167527 0.678927 0.588818
C61   C     C_R   0.841898 0.281966 0.175344 0.588178
C62   C     C_R   0.841897 0.718034 0.675339 0.588177
C63   C     C_R   0.341898 0.781964 0.175352 0.588175
C64   C     C_R   0.341895 0.218038 0.675402 0.588167
C65   C     C_2   0.108544 0.656001 0.811689 -0.061100
C66   C     C_2   0.108546 0.344001 0.311685 -0.061102
C67   C     C_2   0.608544 0.156001 0.811689 -0.061078
C68   C     C_2   0.608542 0.843998 0.311692 -0.061097
C69   C     C_3   0.070180 0.631919 0.788952 -0.050358
C70   C     C_3   0.070181 0.368081 0.288951 -0.050358
C71   C     C_3   0.570180 0.131919 0.788954 -0.050310
C72   C     C_3   0.570179 0.868080 0.288954 -0.050362
C73   C     C_1   0.096906 0.588384 0.003739 0.021085
C74   C     C_1   0.096905 0.411615 0.503742 0.021090
C75   C     C_1   0.596907 0.088383 0.003736 0.021051
C76   C     C_1   0.596906 0.911616 0.503739 0.021089
C77   C     C_2   0.129894 0.614607 0.042504 -0.104158
C78   C     C_2   0.129891 0.385391 0.542514 -0.104156
C79   C     C_2   0.629897 0.114605 0.042496 -0.104121
C80   C     C_2   0.629895 0.885393 0.542501 -0.104164
C81   C     C_2   0.136885 0.650371 0.942398 0.229479
C82   C     C_2   0.136885 0.349629 0.442401 0.229463
C83   C     C_2   0.636886 0.150370 0.942393 0.229521
C84   C     C_2   0.636884 0.849628 0.442397 0.229487
C85   C     C_R   0.885133 0.345308 0.384014 -0.108298
C86   C     C_R   0.885133 0.654691 0.884016 -0.108293
C87   C     C_R   0.385134 0.845308 0.384013 -0.108294
C88   C     C_R   0.385131 0.154689 0.884022 -0.108272
C89   C     C_3   0.990291 0.278631 0.014348 -0.364132
C90   C     C_3   0.990287 0.721366 0.514350 -0.364131
C91   C     C_3   0.490285 0.778634 0.014357 -0.364138
C92   C     C_3   0.490281 0.221359 0.514308 -0.364121
C93   C     C_R   0.918717 0.374511 0.430862 -0.056206
C94   C     C_R   0.918717 0.625488 0.930863 -0.056200
C95   C     C_R   0.418717 0.874512 0.430862 -0.056197
C96   C     C_R   0.418711 0.125484 0.930875 -0.056148
C97   C     C_R   0.903600 0.411884 0.190780 0.037592
C98   C     C_R   0.903599 0.588116 0.690781 0.037590
C99   C     C_R   0.403600 0.911883 0.190778 0.037595
C100  C     C_R   0.403599 0.088116 0.690781 0.037584
C101  C     C_R   0.871184 0.383761 0.150426 -0.090980
C102  C     C_R   0.871183 0.616238 0.650429 -0.090982
C103  C     C_R   0.371185 0.883761 0.150423 -0.090981
C104  C     C_R   0.371186 0.116240 0.650421 -0.090985
C105  C     C_R   0.862855 0.350053 0.246292 0.226938
C106  C     C_R   0.862854 0.649947 0.746295 0.226938
C107  C     C_R   0.362856 0.850052 0.246289 0.226927
C108  C     C_R   0.362855 0.149947 0.746292 0.226909
C109  C     C_2   0.068289 0.596282 0.880581 -0.271468
C110  C     C_2   0.068288 0.403717 0.380582 -0.271472
C111  C     C_2   0.568289 0.096282 0.880581 -0.271461
C112  C     C_2   0.568288 0.903717 0.380583 -0.271467
C113  C     C_3   0.123910 0.474174 0.176101 0.297036
C114  C     C_3   0.123910 0.525825 0.676103 0.297030
C115  C     C_3   0.623908 0.974174 0.176097 0.297024
C116  C     C_3   0.623912 0.025824 0.676113 0.297028
C117  C     C_3   0.164168 0.447690 0.178889 -0.330868
C118  C     C_3   0.164168 0.552310 0.678882 -0.330861
C119  C     C_3   0.664167 0.947689 0.178890 -0.330865
C120  C     C_3   0.664169 0.052310 0.678869 -0.330842
C121  C     C_3   0.874600 0.526095 0.017790 0.295830
C122  C     C_3   0.874601 0.473905 0.517789 0.295831
C123  C     C_3   0.374598 0.026093 0.017786 0.295835
C124  C     C_3   0.374601 0.973905 0.517788 0.295832
C125  C     C_3   0.833731 0.551840 0.019713 -0.347718
C126  C     C_3   0.833731 0.448160 0.519712 -0.347722
C127  C     C_3   0.333727 0.051837 0.019714 -0.347731
C128  C     C_3   0.333731 0.948160 0.519710 -0.347721
C129  C     C_3   0.000700 0.319414 0.552587 0.453209
C130  C     C_3   0.000703 0.680583 0.052588 0.453201
C131  C     C_3   0.500701 0.819416 0.552593 0.453200
C132  C     C_3   0.500709 0.180572 0.052568 0.453201
C133  C     C_R   0.928213 0.406856 0.320823 -0.292082
C134  C     C_R   0.928212 0.593144 0.820824 -0.292084
C135  C     C_R   0.428213 0.906856 0.320823 -0.292086
C136  C     C_R   0.428209 0.093141 0.820834 -0.292097
H1    H     H_    0.189665 0.460637 0.257381 0.136090
H2    H     H_    0.189667 0.539362 0.757363 0.136091
H3    H     H_    0.689662 0.960636 0.257391 0.136093
H4    H     H_    0.689674 0.039361 0.757324 0.136086
H5    H     H_    0.155386 0.418000 0.224120 0.074705
H6    H     H_    0.155388 0.581999 0.724119 0.074713
H7    H     H_    0.655384 0.917999 0.224111 0.074719
H8    H     H_    0.655390 0.081998 0.724126 0.074710
H9    H     H_    0.177574 0.444505 0.056980 0.136880
H10   H     H_    0.177572 0.555496 0.556969 0.136879
H11   H     H_    0.677575 0.944506 0.056983 0.136877
H12   H     H_    0.677565 0.055500 0.556944 0.136883
H13   H     H_    0.885782 0.522707 0.893763 0.013140
H14   H     H_    0.885782 0.477293 0.393761 0.013140
H15   H     H_    0.385777 0.022704 0.893757 0.013151
H16   H     H_    0.385782 0.977293 0.393762 0.013144
H17   H     H_    0.900363 0.540690 0.090290 0.060757
H18   H     H_    0.900364 0.459310 0.590288 0.060757
H19   H     H_    0.400361 0.040689 0.090279 0.060740
H20   H     H_    0.400364 0.959310 0.590289 0.060757
H21   H     H_    0.807535 0.537973 0.946977 0.142981
H22   H     H_    0.807535 0.462026 0.446980 0.142980
H23   H     H_    0.307530 0.037969 0.946993 0.142981
H24   H     H_    0.307536 0.962026 0.446977 0.142982
H25   H     H_    0.841015 0.581408 0.970259 0.073810
H26   H     H_    0.841015 0.418592 0.470255 0.073808
H27   H     H_    0.341009 0.081405 0.970246 0.073799
H28   H     H_    0.341015 0.918592 0.470252 0.073806
H29   H     H_    0.821874 0.555438 0.143538 0.129694
H30   H     H_    0.821875 0.444560 0.643537 0.129694
H31   H     H_    0.321874 0.055439 0.143542 0.129693
H32   H     H_    0.321875 0.944560 0.643534 0.129694
H33   H     H_    0.001472 0.340516 0.451638 -0.037633
H34   H     H_    0.001474 0.659482 0.951641 -0.037627
H35   H     H_    0.501470 0.840515 0.451639 -0.037629
H36   H     H_    0.501454 0.159482 0.951577 -0.037651
H37   H     H_    0.011881 0.269828 0.393613 0.111799
H38   H     H_    0.011891 0.730166 0.893600 0.111793
H39   H     H_    0.511895 0.769830 0.393632 0.111801
H40   H     H_    0.511908 0.230122 0.893438 0.111685
H41   H     H_    0.986081 0.256735 0.579541 0.116698
H42   H     H_    0.986095 0.743265 0.079531 0.116697
H43   H     H_    0.486097 0.756735 0.579561 0.116698
H44   H     H_    0.486264 0.243285 0.079597 0.116625
H45   H     H_    0.959561 0.268937 0.072687 0.138937
H46   H     H_    0.959552 0.731057 0.572661 0.138952
H47   H     H_    0.459551 0.768943 0.072674 0.138951
H48   H     H_    0.459532 0.231041 0.572532 0.138942
H49   H     H_    0.699784 0.345787 0.130874 0.125404
H50   H     H_    0.699783 0.654212 0.630890 0.125404
H51   H     H_    0.199788 0.845790 0.130832 0.125404
H52   H     H_    0.199795 0.154205 0.630692 0.125407
H53   H     H_    0.144948 0.797239 0.056869 0.122437
H54   H     H_    0.144956 0.202756 0.556731 0.122442
H55   H     H_    0.644945 0.297236 0.056909 0.122433
H56   H     H_    0.644944 0.702762 0.556915 0.122437
H57   H     H_    0.855391 0.203716 0.122458 0.120921
H58   H     H_    0.855392 0.796283 0.622437 0.120919
H59   H     H_    0.355390 0.703713 0.122489 0.120921
H60   H     H_    0.355382 0.296292 0.622635 0.120926
H61   H     H_    0.878274 0.320491 0.461168 0.093870
H62   H     H_    0.878274 0.679509 0.961169 0.093868
H63   H     H_    0.378274 0.820491 0.461167 0.093878
H64   H     H_    0.378270 0.179506 0.961180 0.093886
H65   H     H_    0.300507 0.655129 0.048715 0.125450
H66   H     H_    0.300499 0.344877 0.548862 0.125452
H67   H     H_    0.800509 0.155131 0.048680 0.125450
H68   H     H_    0.800509 0.844868 0.548662 0.125449
H69   H     H_    0.149589 0.610016 0.148293 0.111451
H70   H     H_    0.149582 0.389980 0.648316 0.111469
H71   H     H_    0.649593 0.110014 0.148284 0.111436
H72   H     H_    0.649592 0.889985 0.648285 0.111442
H73   H     H_    0.112742 0.681897 0.737199 0.098897
H74   H     H_    0.112746 0.318107 0.237186 0.098914
H75   H     H_    0.612740 0.181898 0.737204 0.098886
H76   H     H_    0.612738 0.818101 0.237206 0.098894
H77   H     H_    0.852078 0.388182 0.043513 0.108298
H78   H     H_    0.852076 0.611817 0.543517 0.108292
H79   H     H_    0.352080 0.888182 0.043509 0.108307
H80   H     H_    0.352083 0.111820 0.543500 0.108330
H81   H     H_    0.952774 0.428428 0.353459 0.074467
H82   H     H_    0.952774 0.571572 0.853459 0.074468
H83   H     H_    0.452774 0.928429 0.353461 0.074469
H84   H     H_    0.452768 0.071567 0.853475 0.074472
H85   H     H_    0.954939 0.281545 0.426738 0.112018
H86   H     H_    0.954946 0.718457 0.926742 0.112015
H87   H     H_    0.454949 0.781537 0.426753 0.112020
H88   H     H_    0.454945 0.218523 0.927087 0.112106
H89   H     H_    0.039378 0.577958 0.866141 0.073634
H90   H     H_    0.039377 0.422041 0.366144 0.073635
H91   H     H_    0.539379 0.077957 0.866142 0.073637
H92   H     H_    0.539378 0.922042 0.366143 0.073635
H93   H     H_    0.971495 0.340055 0.000844 0.085416
H94   H     H_    0.971494 0.659942 0.500833 0.085427
H95   H     H_    0.471493 0.840058 0.000836 0.085423
H96   H     H_    0.471498 0.159933 0.500737 0.085465
H97   H     H_    0.998714 0.325114 0.181886 -0.076390
H98   H     H_    0.998709 0.674882 0.681882 -0.076395
H99   H     H_    0.498707 0.825119 0.181886 -0.076389
H100  H     H_    0.498690 0.174870 0.681833 -0.076372
H101  H     H_    0.987072 0.273895 0.884663 0.139176
H102  H     H_    0.987076 0.726105 0.384666 0.139178
H103  H     H_    0.487073 0.773896 0.884673 0.139180
H104  H     H_    0.487100 0.226102 0.384622 0.139192
H105  H     H_    0.017793 0.260385 0.060111 0.115875
H106  H     H_    0.017783 0.739613 0.560143 0.115863
H107  H     H_    0.517782 0.760387 0.060146 0.115866
H108  H     H_    0.517763 0.239609 0.560190 0.115848
H109  H     H_    0.111713 0.477782 0.298716 0.006457
H110  H     H_    0.111717 0.522216 0.798721 0.006459
H111  H     H_    0.611710 0.977781 0.298710 0.006462
H112  H     H_    0.611725 0.022213 0.798740 0.006469
H113  H     H_    0.098351 0.459963 0.101872 0.080550
H114  H     H_    0.098350 0.540036 0.601881 0.080542
H115  H     H_    0.598351 0.959963 0.101860 0.080559
H116  H     H_    0.598347 0.040036 0.601911 0.080530
N1    N     N_R   0.170168 0.679703 0.983465 -0.427369
N2    N     N_R   0.170168 0.320297 0.483469 -0.427364
N3    N     N_R   0.670169 0.179702 0.983463 -0.427371
N4    N     N_R   0.670167 0.820296 0.483464 -0.427369
N5    N     N_R   0.829950 0.321104 0.198774 -0.425243
N6    N     N_R   0.829949 0.678895 0.698779 -0.425245
N7    N     N_R   0.329951 0.821104 0.198771 -0.425243
N8    N     N_R   0.329951 0.178896 0.698773 -0.425238
O1    O     O_2   0.914200 0.445720 0.903420 -0.457804
O2    O     O_2   0.914200 0.554280 0.403420 -0.457804
O3    O     O_2   0.414200 0.945720 0.903420 -0.457807
O4    O     O_2   0.414200 0.054280 0.403420 -0.457807
O5    O     O_3   0.135716 0.489089 0.613257 -0.625325
O6    O     O_3   0.135715 0.510911 0.113259 -0.625328
O7    O     O_3   0.635715 0.989089 0.613252 -0.625329
O8    O     O_3   0.635715 0.010910 0.113262 -0.625328
O9    O     O_3   0.038769 0.333514 0.982141 -0.589250
O10   O     O_3   0.038768 0.666487 0.482144 -0.589256
O11   O     O_3   0.538766 0.833513 0.982147 -0.589256
O12   O     O_3   0.538772 0.166486 0.482147 -0.589291
O13   O     O_3   0.049930 0.518940 0.045960 -0.496069
O14   O     O_3   0.049930 0.481060 0.545960 -0.496067
O15   O     O_3   0.549930 0.018940 0.045960 -0.496068
O16   O     O_3   0.549930 0.981060 0.545960 -0.496060
O17   O     O_2   0.224024 0.633946 0.980531 -0.592655
O18   O     O_2   0.224020 0.366058 0.480617 -0.592659
O19   O     O_2   0.724027 0.133947 0.980497 -0.592657
O20   O     O_2   0.724026 0.866052 0.480492 -0.592652
O21   O     O_2   0.120051 0.728877 0.991078 -0.593434
O22   O     O_2   0.120055 0.271119 0.491004 -0.593433
O23   O     O_2   0.620050 0.228874 0.991106 -0.593460
O24   O     O_2   0.620049 0.771123 0.491099 -0.593436
O25   O     O_2   0.776038 0.366821 0.201969 -0.592896
O26   O     O_2   0.776036 0.633178 0.701992 -0.592893
O27   O     O_2   0.276040 0.866822 0.201941 -0.592897
O28   O     O_2   0.276044 0.133175 0.701856 -0.592903
O29   O     O_2   0.880137 0.272077 0.191797 -0.622372
O30   O     O_2   0.880137 0.727922 0.691782 -0.622372
O31   O     O_2   0.380137 0.772075 0.191814 -0.622374
O32   O     O_2   0.380132 0.227928 0.691903 -0.622367
O33   O     O_3   0.950020 0.480960 0.143730 -0.493440
O34   O     O_3   0.950020 0.519040 0.643730 -0.493439
O35   O     O_3   0.450020 0.980960 0.143730 -0.493437
O36   O     O_3   0.450020 0.019040 0.643730 -0.493438
O37   O     O_3   0.985090 0.412220 0.642040 -0.475231
O38   O     O_3   0.985090 0.587780 0.142040 -0.475236
O39   O     O_3   0.485090 0.912220 0.642040 -0.475237
O40   O     O_3   0.485090 0.087780 0.142040 -0.475264
O41   O     O_2   0.911486 0.380799 0.760838 -0.480623
O42   O     O_2   0.911486 0.619201 0.260840 -0.480624
O43   O     O_2   0.411486 0.880800 0.760837 -0.480626
O44   O     O_2   0.411488 0.119204 0.260858 -0.480645
O45   O     O_3   0.863842 0.489142 0.080445 -0.625585
O46   O     O_3   0.863842 0.510858 0.580445 -0.625585
O47   O     O_3   0.363841 0.989141 0.080449 -0.625584
O48   O     O_3   0.363842 0.010858 0.580445 -0.625581
O49   O     O_3   0.970921 0.329937 0.673910 -0.597931
O50   O     O_3   0.970920 0.670064 0.173906 -0.597933
O51   O     O_3   0.470918 0.829936 0.673908 -0.597935
O52   O     O_3   0.470916 0.170066 0.173867 -0.597981
O53   O     O_2   0.085560 0.445380 0.786390 -0.450763
O54   O     O_2   0.085560 0.554620 0.286390 -0.450760
O55   O     O_2   0.585560 0.945380 0.786390 -0.450771
O56   O     O_2   0.585560 0.054620 0.286390 -0.450755
O57   O     O_3   0.014550 0.412170 0.047860 -0.479222
O58   O     O_3   0.014550 0.587830 0.547860 -0.479224
O59   O     O_3   0.514550 0.912170 0.047860 -0.479224
O60   O     O_3   0.514550 0.087830 0.547860 -0.479239
O61   O     O_2   0.096862 0.389961 0.979672 -0.487195
O62   O     O_2   0.096861 0.610040 0.479671 -0.487190
O63   O     O_2   0.596861 0.889959 0.979671 -0.487190
O64   O     O_2   0.596863 0.110037 0.479680 -0.487190
P1    P     P_3+3 0.909970 0.458430 0.077330 0.997110
P2    P     P_3+3 0.909970 0.541570 0.577330 0.997109
P3    P     P_3+3 0.409970 0.958430 0.077330 0.997110
P4    P     P_3+3 0.409970 0.041570 0.577330 0.997111
P5    P     P_3+3 0.089830 0.458070 0.612460 0.992553
P6    P     P_3+3 0.089830 0.541930 0.112460 0.992549
P7    P     P_3+3 0.589830 0.958070 0.612460 0.992551
P8    P     P_3+3 0.589830 0.041930 0.112460 0.992536
P9    P     P_3+3 0.056064 0.376929 0.075092 0.946277
P10   P     P_3+3 0.056064 0.623071 0.575093 0.946275
P11   P     P_3+3 0.556063 0.876929 0.075094 0.946274
P12   P     P_3+3 0.556065 0.123070 0.575096 0.946240
P13   P     P_3+3 0.945488 0.625228 0.126979 0.956241
P14   P     P_3+3 0.945488 0.374771 0.626978 0.956245
P15   P     P_3+3 0.445486 0.125227 0.126982 0.956203
P16   P     P_3+3 0.445487 0.874772 0.626978 0.956240
N9    N     N_3   0.044938 0.317171 0.618072 -0.452534
H117  H     H_    0.045600 0.296275 0.709386 0.221114
H118  H     H_    0.052410 0.344547 0.668715 0.199578
N10   N     N_3   0.044940 0.682822 0.118077 -0.452529
H119  H     H_    0.045603 0.703719 0.209387 0.221130
H120  H     H_    0.052408 0.655445 0.168728 0.199582
N11   N     N_3   0.544939 0.817182 0.618083 -0.452531
H121  H     H_    0.545604 0.796287 0.709404 0.221142
H122  H     H_    0.552405 0.844560 0.668719 0.199575
N12   N     N_3   0.544951 0.182764 0.118063 -0.452611
H123  H     H_    0.545643 0.203668 0.209345 0.221156
H124  H     H_    0.552377 0.155383 0.168755 0.199604

loop_
_geom_bond_atom_site_label_1
_geom_bond_atom_site_label_2
_ccdc_geom_bond_type
C77   H69   S    
O48   P4    S    
C51   C55   A    
C74   C78   A    
C131  N11   S    
C38   C54   A    
Ba2   O13   S    
O55   P7    D    
C127  H31   S    
C94   C134  S    
C43   H55   S    
C15   N3    Am   
C60   N8    Am   
C70   C110  A    
C124  C128  S    
O49   P14   S    
C47   H95   S    
C16   O24   D    
C5    C9    A    
C92   H104  S    
O42   P13   D    
C7    C11   A    
C129  N9    S    
C8    C12   A    
Ba1   O53   S    
C66   C70   A    
Ba3   O55   S    
C130  O50   S    
C43   C49   A    
C114  O5    S    
Ba1   P1    S    
C45   O9    S    
C73   C109  A    
C94   P13   S    
O5    P5    S    
O34   P2    S    
C5    C21   A    
O60   P12   S    
C80   C84   S    
Ba1   O34   S    
C45   H97   S    
C114  H110  S    
C83   N3    S    
C97   C133  D    
C13   C17   A    
C100  C136  D    
C115  H115  S    
C28   C30   A    
C12   O20   D    
C15   C19   A    
C27   H67   S    
C4    H40   S    
Ba3   O15   S    
C7    C23   A    
C46   O10   S    
C80   H72   S    
Ba2   O38   S    
C89   H105  S    
C108  N8    S    
C103  H79   S    
C122  H14   S    
C131  O51   S    
C101  H77   S    
Ba4   O16   S    
C99   P3    S    
C71   C111  A    
C121  O45   S    
C48   H96   S    
C135  H83   S    
C130  H34   S    
C55   C59   A    
C46   C90   S    
C116  H112  S    
C63   N7    Am   
C53   C57   A    
C14   O22   D    
C115  C119  S    
C25   C31   A    
C61   N5    Am   
Ba2   P2    S    
C26   C32   A    
C56   C60   A    
O39   P16   S    
C57   N5    Am   
C3    H87   S    
N10   H119  S    
C1    H85   S    
O9    P9    S    
C3    H43   S    
O6    P6    S    
C123  C127  S    
O61   P9    D    
C124  H16   S    
C121  C125  S    
C99   C103  A    
C128  H32   S    
C45   C89   S    
C129  H33   S    
C47   C91   S    
C86   H62   S    
C132  H36   S    
C75   C111  A    
N11   H121  S    
C21   C39   A    
C4    H88   S    
C22   C40   A    
C1    C129  S    
C2    H42   S    
C130  N10   S    
C40   C56   A    
C12   N4    Am   
C134  H82   S    
Ba2   O2    S    
C69   P10   S    
C25   H65   S    
C114  C118  S    
C9    N1    Am   
O51   P16   S    
C91   H107  S    
O46   P2    S    
C113  H113  S    
Ba3   O59   S    
C117  H9    S    
C33   C61   A    
C96   P15   S    
C28   H68   S    
C20   C24   A    
Ba4   O56   S    
C39   C55   A    
C126  H22   S    
C118  H6    S    
C127  H27   S    
C112  H92   S    
C95   C135  S    
O1    P1    D    
C93   C133  S    
O52   P15   S    
C42   H54   S    
C17   C41   A    
C74   P5    S    
C19   C43   A    
C20   C44   A    
C76   C112  A    
C6    C10   A    
C132  N12   S    
C136  H84   S    
Ba2   O54   S    
C115  H111  S    
O58   P10   S    
Ba1   P5    S    
C30   H58   S    
Ba3   P7    S    
O40   P15   S    
C125  H21   S    
O64   P12   D    
C18   C22   A    
C8    C28   A    
Ba2   O33   S    
C13   N1    Am   
Ba3   Ba4   S    
O50   P13   S    
C64   N8    Am   
C65   C81   A    
C101  C105  A    
C50   H50   S    
C14   C18   A    
C103  C107  A    
O44   P15   D    
O45   P1    S    
C90   H46   S    
Ba2   O14   S    
C109  H89   S    
C113  C117  S    
C47   O11   S    
C60   O28   D    
C81   N1    S    
C89   H101  S    
O2    P2    D    
C9    O17   D    
C67   H75   S    
C72   P11   S    
C33   C37   A    
C122  O46   S    
C48   H100  S    
C36   C40   A    
C41   C51   A    
N12   H123  S    
C42   C52   A    
C118  H2    S    
C87   C95   S    
C49   H49   S    
C77   C81   S    
C78   H70   S    
C54   C58   A    
C79   C83   S    
C52   H52   S    
Ba2   P6    S    
C4    C132  S    
C129  O49   S    
C76   C80   A    
C91   H47   S    
C48   O12   S    
C120  H8    S    
C124  H20   S    
C58   O26   D    
C8    C24   A    
C118  H10   S    
C102  C106  A    
C121  H17   S    
C122  C126  S    
C133  H81   S    
C69   C109  A    
Ba4   O40   S    
C46   H94   S    
C82   N2    S    
C17   C21   A    
O7    P7    S    
C65   C69   A    
N9    H118  S    
C88   H64   S    
O47   P3    S    
C2    H38   S    
O35   P3    S    
C74   C110  A    
C1    H41   S    
O63   P11   D    
C41   H53   S    
C119  H11   S    
Ba4   P4    S    
Ba3   O3    S    
C31   H59   S    
C75   P8    S    
C117  H1    S    
C65   H73   S    
C10   N2    Am   
C123  H15   S    
C49   C53   A    
C88   C108  D    
C78   C82   S    
C132  O52   S    
C104  C108  A    
O8    P8    S    
C66   H74   S    
C107  N7    S    
C31   C35   A    
C128  H24   S    
C126  H26   S    
C73   C77   A    
N10   H120  S    
C90   H106  S    
C67   C83   A    
C102  H78   S    
O12   P12   S    
C71   P12   S    
C105  N5    S    
C100  C104  A    
C113  H109  S    
O41   P14   D    
O54   P6    D    
C32   H60   S    
C59   N7    Am   
Ba1   O57   S    
N11   H122  S    
Ba4   O4    S    
Ba3   P3    S    
C125  H25   S    
C37   C53   A    
Ba1   O14   S    
C75   C79   A    
Ba3   O16   S    
C126  H30   S    
C2    H86   S    
O10   P10   S    
O62   P10   D    
C29   C33   A    
Ba3   O36   S    
C14   N2    Am   
C84   N4    S    
O33   P1    S    
C104  H80   S    
C52   C56   A    
C36   C64   A    
C63   O31   D    
Ba4   O15   S    
C62   O30   D    
C47   H99   S    
C62   N6    Am   
C92   H108  S    
C87   H63   S    
C51   H51   S    
C89   H45   S    
C85   H61   S    
O59   P11   S    
C92   H48   S    
C11   O19   D    
C68   H76   S    
C68   C72   A    
C58   N6    Am   
C113  O6    S    
C97   P1    S    
C10   O18   D    
C46   H98   S    
C44   C50   A    
C115  O8    S    
C116  O7    S    
C125  H29   S    
C34   C38   A    
C70   P9    S    
C26   H66   S    
C85   C105  D    
C76   P7    S    
Ba1   Ba2   S    
C98   C134  D    
C87   C107  D    
O36   P4    S    
C6    C26   A    
C45   H93   S    
C96   C136  S    
C16   C20   A    
O53   P5    D    
Ba2   O58   S    
O13   P6    S    
C27   C29   A    
C98   C102  A    
Ba4   O35   S    
C19   C23   A    
O15   P8    S    
C114  H114  S    
C111  H91   S    
C5    C25   A    
O38   P13   S    
C4    H44   S    
C120  H12   S    
C7    C27   A    
C44   H56   S    
C59   O27   D    
O56   P8    D    
Ba1   O37   S    
O11   P11   S    
C100  P4    S    
Ba3   O39   S    
C68   C84   A    
C121  H13   S    
C122  H18   S    
C97   C101  A    
C34   C62   A    
C32   C36   A    
C35   C39   A    
C85   C93   S    
C131  H35   S    
C116  H116  S    
C3    C131  S    
C99   C135  D    
C13   O21   D    
C23   C37   A    
O16   P7    S    
O57   P9    S    
C29   H57   S    
C15   O23   D    
Ba1   O13   S    
C98   P2    S    
C3    H39   S    
C73   P6    S    
C1    H37   S    
C16   N4    Am   
C119  H7    S    
Ba4   P8    S    
N12   H124  S    
O4    P4    D    
C117  H5    S    
C86   C106  D    
C66   C82   A    
C123  H19   S    
C11   N3    Am   
C88   C96   S    
C50   C54   A    
C18   C42   A    
C30   C34   A    
C35   C63   A    
C128  H28   S    
O14   P5    S    
O43   P16   D    
C110  H90   S    
C123  O47   S    
C124  O48   S    
O37   P14   S    
C90   H102  S    
C2    C130  S    
O3    P3    D    
C67   C71   A    
C6    C22   A    
C57   O25   D    
C64   O32   D    
C24   C38   A    
C72   C112  A    
C48   C92   S    
C93   P14   S    
C106  N6    S    
C95   P16   S    
C61   O29   D    
Ba1   O1    S    
C127  H23   S    
C119  H3    S    
Ba4   O60   S    
C120  H4    S    
N9    H117  S    
C86   C94   S    
C79   H71   S    
C116  C120  S    
C91   H103  S    
