data_mof_unit_14609.cif
_audit_creation_date              2012-12-11T15:39:28-0500
_audit_creation_method            fapswitch 2.2
_symmetry_space_group_name_H-M    P1
_symmetry_Int_Tables_number       1
_space_group_crystal_system       triclinic
_cell_length_a                    17.261469
_cell_length_b                    24.230225
_cell_length_c                    14.870489
_cell_angle_alpha                 90.21695
_cell_angle_beta                  125.421029
_cell_angle_gamma                 89.788069
_cell_volume                      5068.37777084

loop_
_atom_site_label
_atom_site_type_symbol
_atom_type_description
_atom_site_fract_x
_atom_site_fract_y
_atom_site_fract_z
_atom_type_partial_charge
C1    C     C_R   0.351274 0.347971 0.908332 -0.148115
C2    C     C_R   0.434116 0.498794 0.630704 0.140810
C3    C     C_R   0.188840 0.863162 0.999863 0.041855
C4    C     C_3   0.258520 0.415463 0.182805 -0.202556
C5    C     C_3   0.450428 0.365999 0.522697 -0.260191
C6    C     C_3   0.758185 0.915717 0.182713 -0.203036
C7    C     C_3   0.947883 0.865485 0.521084 -0.258287
C8    C     C_R   0.944630 0.000883 0.269541 0.117636
C9    C     C_R   0.933908 0.998828 0.630625 0.140959
C10   C     C_R   0.174026 0.501153 0.723265 0.067113
C11   C     C_R   0.802247 0.500931 0.368565 0.081479
C12   C     C_R   0.674026 0.001153 0.723264 0.067037
C13   C     C_R   0.302247 0.000931 0.368564 0.081475
C14   C     C_R   0.021359 0.553025 0.623906 0.165873
C15   C     C_R   0.927398 0.552752 0.534331 0.161129
C16   C     C_R   0.521360 0.053025 0.623905 0.165833
C17   C     C_R   0.690566 0.375908 0.092186 -0.126835
C18   C     C_R   0.427399 0.052752 0.534329 0.161018
C19   C     C_R   0.071171 0.503239 0.667404 0.032968
C20   C     C_R   0.881226 0.502791 0.485366 0.032052
C21   C     C_R   0.571172 0.003239 0.667403 0.032992
C22   C     C_R   0.381227 0.002791 0.485365 0.032085
C23   C     C_R   0.017945 0.454265 0.637903 -0.200841
C24   C     C_R   0.922781 0.453974 0.546267 -0.202669
C25   C     C_R   0.517945 0.954265 0.637902 -0.200801
C26   C     C_R   0.422781 0.953974 0.546266 -0.202600
C27   C     C_3   0.939385 0.603145 0.485613 -0.521862
C28   C     C_R   0.851274 0.847971 0.908334 -0.148146
C29   C     C_3   0.042156 0.603368 0.582941 -0.523175
C30   C     C_3   0.439386 0.103144 0.485610 -0.521617
C31   C     C_3   0.542158 0.103367 0.582939 -0.523086
C32   C     C_R   0.292626 0.769181 0.899946 -0.174939
C33   C     C_R   0.842534 0.685983 0.099973 -0.166952
C34   C     C_R   0.792621 0.269180 0.899940 -0.174918
C35   C     C_R   0.342534 0.185980 0.099965 -0.166843
C36   C     C_R   0.744420 0.314947 0.899914 -0.170382
C37   C     C_R   0.389767 0.231981 0.099948 -0.163978
C38   C     C_R   0.244427 0.814949 0.899921 -0.170390
C39   C     C_R   0.190566 0.875907 0.092188 -0.126867
C40   C     C_R   0.889764 0.731984 0.099955 -0.164091
C41   C     C_R   0.763079 0.334021 0.999786 0.143234
C42   C     C_R   0.357141 0.258246 0.999963 0.139052
C43   C     C_R   0.263082 0.834021 0.999792 0.143199
C44   C     C_R   0.857141 0.758247 0.999969 0.139137
C45   C     C_R   0.444267 0.652614 0.091426 -0.141953
C46   C     C_R   0.598098 0.624133 0.907761 -0.126120
C47   C     C_R   0.944268 0.152615 0.091424 -0.141881
C48   C     C_R   0.098097 0.124129 0.907757 -0.126133
C49   C     C_R   0.844418 0.315335 0.099652 -0.168468
C50   C     C_R   0.383671 0.684910 0.000041 0.052336
C51   C     C_R   0.290152 0.231654 0.900091 -0.174095
C52   C     C_R   0.344421 0.815334 0.099658 -0.168418
C53   C     C_R   0.790157 0.731654 0.900098 -0.174124
C54   C     C_R   0.392652 0.769546 0.099778 -0.169282
C55   C     C_R   0.742967 0.685644 0.900220 -0.170225
C56   C     C_R   0.892649 0.269546 0.099773 -0.169283
C57   C     C_R   0.242960 0.185646 0.900211 -0.170211
C58   C     C_R   0.360120 0.742908 0.999929 0.141515
C59   C     C_R   0.761948 0.666681 0.000106 0.141723
C60   C     C_R   0.860119 0.242908 0.999925 0.141528
C61   C     C_R   0.688444 0.636979 0.000093 0.039474
C62   C     C_R   0.261944 0.166680 0.000099 0.141646
C63   C     C_R   0.398158 0.549851 0.467499 -0.242205
C64   C     C_R   0.397200 0.551488 0.374272 -0.228468
C65   C     C_R   0.898343 0.049930 0.467683 -0.242311
C66   C     C_R   0.897564 0.051552 0.374592 -0.228645
C67   C     C_R   0.396542 0.502266 0.324667 -0.108676
C68   C     C_R   0.400796 0.499007 0.514134 -0.096522
C69   C     C_R   0.896743 0.002323 0.324897 -0.108043
C70   C     C_R   0.900531 0.999091 0.514044 -0.095838
C71   C     C_R   0.370327 0.453072 0.350550 0.446007
C72   C     C_R   0.883671 0.184910 0.000038 0.052324
C73   C     C_R   0.381748 0.449954 0.451809 0.493542
C74   C     C_R   0.870194 0.953170 0.350517 0.445803
C75   C     C_R   0.881136 0.950070 0.451535 0.492938
C76   C     C_R   0.478599 0.454349 0.247240 -0.136780
C77   C     C_R   0.450181 0.453650 0.696013 -0.144493
C78   C     C_R   0.978635 0.954357 0.247300 -0.136209
C79   C     C_R   0.950146 0.953666 0.695976 -0.143884
C80   C     C_R   0.232423 0.546620 0.753353 -0.145675
C81   C     C_R   0.753100 0.546152 0.304322 -0.159868
C82   C     C_R   0.732423 0.046620 0.753353 -0.145646
C83   C     C_R   0.188443 0.136978 0.000088 0.039477
C84   C     C_R   0.253101 0.046152 0.304322 -0.159869
C85   C     C_R   0.477239 0.546527 0.244826 -0.134390
C86   C     C_R   0.450070 0.545006 0.695135 -0.154550
C87   C     C_R   0.977304 0.046538 0.244887 -0.134722
C88   C     C_R   0.949934 0.045021 0.695100 -0.154792
C89   C     C_R   0.230399 0.454394 0.748747 -0.114705
C90   C     C_R   0.755339 0.454702 0.304970 -0.137709
C91   C     C_R   0.730399 0.954394 0.748747 -0.114424
C92   C     C_R   0.255339 0.954702 0.304970 -0.137674
C93   C     C_R   0.352994 0.652562 0.908603 -0.144880
C94   C     C_R   0.444527 0.500862 0.269416 0.117421
C95   C     C_R   0.690441 0.624111 0.092432 -0.122392
C96   C     C_R   0.852993 0.152561 0.908602 -0.144888
C97   C     C_R   0.190441 0.124111 0.092429 -0.122324
C98   C     C_R   0.442989 0.347970 0.091493 -0.125463
C99   C     C_R   0.598354 0.375841 0.907631 -0.126984
C100  C     C_R   0.942985 0.847972 0.091496 -0.125343
C101  C     C_R   0.098355 0.875840 0.907633 -0.127038
C102  C     C_R   0.381268 0.315960 0.999883 0.047591
C103  C     C_R   0.688839 0.363163 0.999860 0.041787
C104  C     C_R   0.881265 0.815962 0.999887 0.047585
H1    H     H_    0.313390 0.334220 0.823729 0.090577
H2    H     H_    0.090744 0.595287 0.558032 0.201864
H3    H     H_    0.398891 0.139077 0.485101 0.191611
H4    H     H_    0.590745 0.095285 0.558029 0.201876
H5    H     H_    0.269647 0.751743 0.821166 0.105196
H6    H     H_    0.863412 0.669789 0.178705 0.109014
H7    H     H_    0.769641 0.251741 0.821160 0.105187
H8    H     H_    0.363415 0.169785 0.178698 0.109098
H9    H     H_    0.686292 0.331022 0.821181 0.103489
H10   H     H_    0.445219 0.249426 0.178740 0.110294
H11   H     H_    0.186303 0.831027 0.821191 0.103603
H12   H     H_    0.748742 0.370976 0.177798 0.093793
H13   H     H_    0.945213 0.749432 0.178747 0.110179
H14   H     H_    0.865108 0.331753 0.178326 0.110147
H15   H     H_    0.267109 0.248854 0.821292 0.108362
H16   H     H_    0.365110 0.831753 0.178332 0.110166
H17   H     H_    0.767117 0.748852 0.821300 0.108343
H18   H     H_    0.448579 0.752377 0.178564 0.109136
H19   H     H_    0.685396 0.669152 0.821545 0.108232
H20   H     H_    0.948574 0.252377 0.178559 0.109141
H21   H     H_    0.185384 0.169156 0.821536 0.108236
H22   H     H_    0.407290 0.588693 0.508262 0.145103
H23   H     H_    0.813390 0.834219 0.823731 0.090569
H24   H     H_    0.407745 0.591090 0.349847 0.145511
H25   H     H_    0.907720 0.088761 0.508590 0.145089
H26   H     H_    0.908388 0.091136 0.350381 0.145496
H27   H     H_    0.491560 0.666463 0.175872 0.086283
H28   H     H_    0.570561 0.629135 0.822100 0.092610
H29   H     H_    0.991564 0.166466 0.175868 0.086291
H30   H     H_    0.070559 0.129123 0.822093 0.092629
H31   H     H_    0.469738 0.411663 0.259369 0.154884
H32   H     H_    0.431129 0.411382 0.671148 0.160667
H33   H     H_    0.969754 0.911675 0.259444 0.154817
H34   H     H_    0.248741 0.870975 0.177800 0.093800
H35   H     H_    0.931274 0.911383 0.671144 0.160011
H36   H     H_    0.214169 0.589336 0.750698 0.110883
H37   H     H_    0.758474 0.588007 0.332555 0.103377
H38   H     H_    0.714169 0.089336 0.750697 0.110882
H39   H     H_    0.258475 0.088007 0.332555 0.103420
H40   H     H_    0.464940 0.589426 0.251858 0.096803
H41   H     H_    0.430896 0.587157 0.667450 0.087627
H42   H     H_    0.965026 0.089441 0.251911 0.096841
H43   H     H_    0.930684 0.087171 0.667435 0.087715
H44   H     H_    0.208611 0.411769 0.737235 0.093749
H45   H     H_    0.930357 0.595071 0.406344 0.200384
H46   H     H_    0.765501 0.412657 0.333815 0.084177
H47   H     H_    0.708612 0.911769 0.737234 0.093728
H48   H     H_    0.265501 0.912657 0.333815 0.084177
H49   H     H_    0.316117 0.666304 0.824216 0.084535
H50   H     H_    0.748596 0.629036 0.178127 0.093322
H51   H     H_    0.816117 0.166304 0.824214 0.084544
H52   H     H_    0.248596 0.129037 0.178124 0.093373
H53   H     H_    0.489890 0.334231 0.175947 0.085438
H54   H     H_    0.571069 0.370781 0.822028 0.087708
H55   H     H_    0.989882 0.834236 0.175953 0.085358
H56   H     H_    0.060892 0.639629 0.637991 0.190483
H57   H     H_    0.071072 0.870780 0.822031 0.087557
H58   H     H_    0.051859 0.415201 0.675229 0.126515
H59   H     H_    0.886993 0.414674 0.516365 0.124242
H60   H     H_    0.551859 0.915201 0.675229 0.126509
H61   H     H_    0.386992 0.914674 0.516365 0.124239
H62   H     H_    0.267034 0.446058 0.133616 0.136837
H63   H     H_    0.201726 0.428945 0.192052 0.137597
H64   H     H_    0.235129 0.376155 0.135715 0.169384
H65   H     H_    0.518513 0.388131 0.581338 0.104306
H66   H     H_    0.449361 0.349453 0.452288 0.194374
H67   H     H_    0.430358 0.095070 0.406342 0.200370
H68   H     H_    0.448345 0.330109 0.567368 0.156455
H69   H     H_    0.766599 0.946426 0.133636 0.136937
H70   H     H_    0.701472 0.929084 0.192157 0.137985
H71   H     H_    0.734749 0.876487 0.135404 0.169331
H72   H     H_    0.016709 0.887272 0.578125 0.103513
H73   H     H_    0.944932 0.847981 0.450121 0.195950
H74   H     H_    0.946095 0.830241 0.567250 0.154949
H75   H     H_    0.560893 0.139629 0.637988 0.190522
H76   H     H_    0.898889 0.639077 0.485104 0.191469
N1    N     N_R   0.394180 0.396910 0.943210 -0.038649
N2    N     N_R   0.474350 0.471570 0.793850 -0.049205
N3    N     N_R   0.025650 0.971570 0.206150 -0.050135
N4    N     N_R   0.974350 0.971570 0.793850 -0.049216
N5    N     N_R   0.319480 0.528420 0.793810 -0.039792
N6    N     N_R   0.680520 0.528420 0.206190 -0.037390
N7    N     N_R   0.819480 0.028420 0.793810 -0.039788
N8    N     N_R   0.180520 0.028420 0.206190 -0.037394
N9    N     N_R   0.525640 0.528390 0.206120 -0.042671
N10   N     N_R   0.474360 0.528390 0.793880 -0.040113
N11   N     N_R   0.025640 0.028390 0.206120 -0.042669
N12   N     N_R   0.605820 0.396910 0.056790 -0.039822
N13   N     N_R   0.974360 0.028390 0.793880 -0.040135
N14   N     N_R   0.319490 0.471590 0.793840 -0.039565
N15   N     N_R   0.680510 0.471590 0.206160 -0.037913
N16   N     N_R   0.819490 0.971590 0.793840 -0.039539
N17   N     N_R   0.180510 0.971590 0.206160 -0.037921
N18   N     N_R   0.394130 0.603080 0.943110 -0.037544
N19   N     N_R   0.605870 0.603080 0.056890 -0.039065
N20   N     N_R   0.894130 0.103080 0.943110 -0.037553
N21   N     N_R   0.105870 0.103080 0.056890 -0.039074
N22   N     N_R   0.450990 0.396900 0.056840 -0.040816
N23   N     N_R   0.894180 0.896910 0.943210 -0.038660
N24   N     N_R   0.549010 0.396900 0.943160 -0.039534
N25   N     N_R   0.950990 0.896900 0.056840 -0.040815
N26   N     N_R   0.049010 0.896900 0.943160 -0.039554
N27   N     N_R   0.105820 0.896910 0.056790 -0.039832
N28   N     N_R   0.450950 0.603070 0.056740 -0.037461
N29   N     N_R   0.549050 0.603070 0.943260 -0.038917
N30   N     N_R   0.950950 0.103070 0.056740 -0.037458
N31   N     N_R   0.049050 0.103070 0.943260 -0.038923
N32   N     N_R   0.525650 0.471570 0.206150 -0.050056
Ni1   Ni    Ni4+2 0.434860 0.434850 0.869700 0.215634
Ni2   Ni    Ni4+2 0.565140 0.434850 0.130300 0.206241
Ni3   Ni    Ni4+2 0.934860 0.934850 0.869700 0.215693
Ni4   Ni    Ni4+2 0.065140 0.934850 0.130300 0.206246
Ni5   Ni    Ni4+2 0.565130 0.565140 0.130240 0.209758
Ni6   Ni    Ni4+2 0.434870 0.565140 0.869760 0.209358
Ni7   Ni    Ni4+2 0.065130 0.065140 0.130240 0.209794
Ni8   Ni    Ni4+2 0.934870 0.065140 0.869760 0.209373
O1    O     O_3   0.345127 0.405987 0.286281 -0.629564
O2    O     O_3   0.370273 0.399689 0.486427 -0.607155
O3    O     O_3   0.844866 0.906150 0.286065 -0.630402
O4    O     O_3   0.868675 0.899925 0.485699 -0.607519

loop_
_geom_bond_atom_site_label_1
_geom_bond_atom_site_label_2
_ccdc_geom_bond_type
N26   Ni3   S    
C47   N30   A    
N13   Ni8   S    
C79   H35   S    
C62   C83   S    
C8    C78   A    
C26   H61   S    
C16   C21   A    
C71   O1    S    
C87   H42   S    
C55   C59   A    
C99   N24   A    
C89   H44   S    
C31   H4    S    
C12   C91   A    
C99   C103  A    
N1    N22   A    
N19   Ni5   S    
C32   C58   A    
N5    N14   A    
C90   H46   S    
N14   Ni1   S    
C44   C104  S    
C57   C62   A    
C11   C81   A    
C16   C31   S    
N31   Ni8   S    
N23   N25   A    
C13   C84   A    
C3    C43   S    
C8    C69   S    
C73   O2    S    
N29   Ni6   S    
C56   H20   S    
C96   H51   S    
C48   H30   S    
C35   C37   A    
C2    C68   S    
C9    C88   A    
C46   H28   S    
C30   C31   S    
N7    N16   A    
C43   C52   A    
C66   C69   A    
C27   C29   S    
C6    H71   S    
C60   C72   S    
C25   H60   S    
C85   N9    A    
N4    N13   A    
C42   C102  S    
C4    H64   S    
C100  C104  A    
C79   N4    A    
C7    H73   S    
C78   N3    A    
C9    C79   A    
C97   H52   S    
N12   Ni2   S    
C37   C42   A    
N15   Ni2   S    
C76   C94   A    
C44   C53   A    
C88   H43   S    
C90   N15   A    
C20   C24   A    
C10   C89   A    
C52   C54   A    
C64   H24   S    
C30   H3    S    
C39   N27   A    
C92   H48   S    
C67   C94   S    
C51   H15   S    
C5    H66   S    
C98   H53   S    
C18   C30   S    
C77   H32   S    
C32   C38   A    
C67   C71   A    
C28   H23   S    
C82   H38   S    
C42   C51   A    
C23   H58   S    
C7    O4    S    
C3    C101  A    
C81   H37   S    
C40   H13   S    
C54   H18   S    
C39   H34   S    
C3    C39   A    
C27   H45   S    
C47   H29   S    
C34   C60   A    
C34   H7    S    
C36   C41   A    
N18   Ni6   S    
C36   H9    S    
N10   Ni6   S    
C85   H40   S    
C41   C49   A    
C76   H31   S    
N9    Ni5   S    
C29   H56   S    
N7    Ni8   S    
C53   C55   A    
C17   N12   A    
C15   C20   A    
C30   H67   S    
N6    Ni5   S    
C55   H19   S    
C11   C20   S    
C86   N10   A    
C33   C40   A    
C59   C61   S    
N5    Ni6   S    
C46   C61   A    
N18   N28   A    
C50   C58   S    
C64   C67   A    
N6    N15   A    
C27   H76   S    
N25   Ni4   S    
C32   H5    S    
N11   Ni7   S    
C71   C73   A    
N16   Ni3   S    
C10   C80   A    
N26   N27   A    
N4    Ni3   S    
C37   H10   S    
C6    H70   S    
C84   H39   S    
C25   C26   A    
C80   H36   S    
N24   Ni1   S    
N20   N30   A    
N30   Ni7   S    
C41   C103  S    
C7    H74   S    
C31   H75   S    
N19   N29   A    
C19   C23   A    
C4    H63   S    
N2    Ni1   S    
C85   C94   A    
C28   C104  A    
C15   C27   S    
C49   H14   S    
C48   N31   A    
C91   H47   S    
C10   C19   S    
C80   N5    A    
C7    H72   S    
C11   C90   A    
C77   N2    A    
N12   N24   A    
C12   C82   A    
C69   C74   A    
C78   H33   S    
C16   C18   A    
C9    C70   S    
N21   Ni7   S    
N17   Ni4   S    
C51   C57   A    
C52   H16   S    
C95   N19   A    
N32   Ni2   S    
C75   O4    S    
C45   H27   S    
C45   N28   A    
C13   C92   A    
C22   C26   A    
N20   Ni8   S    
C29   H2    S    
C84   N8    A    
C24   H59   S    
C14   C29   S    
C92   N17   A    
C46   N29   A    
C86   H41   S    
C81   N6    A    
C88   N13   A    
C87   N11   A    
C6    O3    S    
C54   C58   A    
N8    Ni7   S    
N23   Ni3   S    
N28   Ni5   S    
C96   N20   A    
C5    O2    S    
C21   C25   A    
C63   C68   A    
C1    N1    A    
C18   C22   A    
C28   N23   A    
C14   C19   A    
C98   N22   A    
C97   N21   A    
N9    N32   A    
N3    N11   A    
C65   H25   S    
C100  N25   A    
C61   C95   A    
C50   C93   A    
C33   H6    S    
C6    H69   S    
C38   H11   S    
C49   C56   A    
C48   C83   A    
C82   N7    A    
N1    Ni1   S    
C95   H50   S    
C8    C87   A    
C101  H57   S    
C93   N18   A    
C68   C73   A    
C38   C43   A    
C2    C77   A    
C98   C102  A    
N3    Ni4   S    
C57   H21   S    
C91   N16   A    
C100  H55   S    
C76   N32   A    
C4    O1    S    
N8    N17   A    
C89   N14   A    
C12   C21   S    
C93   H49   S    
N27   Ni4   S    
C5    H68   S    
C4    H62   S    
C13   C22   S    
C2    C86   A    
C35   C62   A    
C34   C36   A    
C17   C103  A    
C47   C72   A    
C63   H22   S    
C101  N26   A    
C23   C24   A    
C63   C64   A    
C72   C96   A    
C56   C60   A    
C40   C44   A    
C74   C75   A    
N22   Ni2   S    
C33   C59   A    
C65   C66   A    
C83   C97   A    
C99   H54   S    
C70   C75   A    
C74   O3    S    
C5    H65   S    
C14   C15   A    
C53   H17   S    
C45   C50   A    
N2    N10   A    
C1    C102  A    
N21   N31   A    
C35   H8    S    
C65   C70   A    
C17   H12   S    
C1    H1    S    
C66   H26   S    
