data_mof_unit_60518.cif
_audit_creation_date              2013-03-05T16:13:16-0500
_audit_creation_method            fapswitch 2.2
_symmetry_space_group_name_H-M    P1
_symmetry_Int_Tables_number       1
_space_group_crystal_system       monoclinic
_cell_length_a                    30.421487
_cell_length_b                    30.421511
_cell_length_c                    18.361425
_cell_angle_alpha                 90.000055
_cell_angle_beta                  90.0
_cell_angle_gamma                 90.0
_cell_volume                      16992.9039532

loop_
_atom_site_label
_atom_site_type_symbol
_atom_site_description
_atom_site_fract_x
_atom_site_fract_y
_atom_site_fract_z
_atom_type_partial_charge
O1    O     O_R   0.435730 0.037210 0.500000 -0.587221
O2    O     O_R   0.962790 0.435730 0.500000 -0.587221
O3    O     O_R   0.564270 0.962790 0.500000 -0.587221
O4    O     O_R   0.037210 0.564270 0.500000 -0.587221
O5    O     O_R   0.564270 0.037210 0.500000 -0.587222
O6    O     O_R   0.037210 0.435730 0.500000 -0.587221
O7    O     O_R   0.435730 0.962790 0.500000 -0.587220
O8    O     O_R   0.962790 0.564270 0.500000 -0.587221
O9    O     O_R   0.935730 0.537210 0.000000 -0.587221
O10   O     O_R   0.462790 0.935730 0.000000 -0.587220
O11   O     O_R   0.064270 0.462790 0.000000 -0.587220
O12   O     O_R   0.537210 0.064270 0.000000 -0.587221
O13   O     O_R   0.064270 0.537210 0.000000 -0.587221
O14   O     O_R   0.537210 0.935730 0.000000 -0.587221
O15   O     O_R   0.935730 0.462790 0.000000 -0.587220
O16   O     O_R   0.462790 0.064270 0.000000 -0.587220
C1    C     C_R   0.225883 1.000000 0.500000 -0.030367
C2    C     C_R   0.000000 0.225884 0.500001 -0.030367
C3    C     C_R   0.774116 1.000000 0.500000 -0.030382
C4    C     C_R   0.000000 0.774116 0.499999 -0.030367
C5    C     C_R   0.725884 0.500000 1.000000 -0.030367
C6    C     C_R   0.500000 0.725884 0.000000 -0.030366
C7    C     C_R   0.274116 0.500000 0.000000 -0.030367
C8    C     C_R   0.500000 0.274116 1.000000 -0.030368
C9    C     C_R   0.414896 0.000000 0.500000 0.785712
C10   C     C_R   1.000000 0.414897 0.500000 0.785713
C11   C     C_R   0.585104 1.000000 0.500000 0.785712
C12   C     C_R   1.000000 0.585103 0.500000 0.785713
C13   C     C_R   0.914896 0.500000 1.000000 0.785712
C14   C     C_R   0.500000 0.914896 0.000000 0.785712
C15   C     C_R   0.085103 0.500000 0.000000 0.785711
C16   C     C_R   0.500000 0.085104 0.000000 0.785712
O17   O     O_R   0.500010 0.037210 0.394200 -0.576292
O18   O     O_R   0.962790 0.500010 0.394200 -0.576290
O19   O     O_R   0.499990 0.962790 0.394200 -0.576287
O20   O     O_R   0.037210 0.499990 0.394200 -0.576290
O21   O     O_R   0.499990 0.037210 0.605800 -0.576287
O22   O     O_R   0.037210 0.500010 0.605800 -0.576290
O23   O     O_R   0.500010 0.962790 0.605800 -0.576292
O24   O     O_R   0.962790 0.499990 0.605800 -0.576290
O25   O     O_R   0.000010 0.537210 0.894200 -0.576290
O26   O     O_R   0.462790 0.000010 0.894200 -0.576290
O27   O     O_R   0.999990 0.462790 0.894200 -0.576290
O28   O     O_R   0.537210 0.999990 0.894200 -0.576290
O29   O     O_R   0.999990 0.537210 0.105800 -0.576290
O30   O     O_R   0.537210 0.000010 0.105800 -0.576291
O31   O     O_R   0.000010 0.462790 0.105800 -0.576289
O32   O     O_R   0.462790 0.999990 0.105800 -0.576289
C17   C     C_R   0.500000 1.000000 0.360223 0.842330
C18   C     C_R   1.000000 0.500000 0.360223 0.842329
C19   C     C_R   0.500000 0.000000 0.639776 0.842330
C20   C     C_R   1.000000 0.500000 0.639776 0.842330
C21   C     C_R   1.000000 0.500000 0.860224 0.842329
C22   C     C_R   0.500000 1.000000 0.860224 0.842330
C23   C     C_R   1.000000 0.500000 0.139776 0.842329
C24   C     C_R   0.500000 1.000000 0.139776 0.842330
Cu1   Cu    Cu3+1 0.500000 0.044060 0.500000 0.994365
Cu2   Cu    Cu3+1 0.955940 0.500000 0.500000 0.994367
Cu3   Cu    Cu3+1 0.500000 0.955940 0.500000 0.994366
Cu4   Cu    Cu3+1 0.044060 0.500000 0.500000 0.994366
Cu5   Cu    Cu3+1 1.000000 0.544060 0.000000 0.994367
Cu6   Cu    Cu3+1 0.455940 0.000000 0.000000 0.994366
Cu7   Cu    Cu3+1 1.000000 0.455940 0.000000 0.994367
Cu8   Cu    Cu3+1 0.544060 0.000000 0.000000 0.994365
O33   O     O_R   0.999990 0.935750 0.438770 -0.547316
O34   O     O_R   0.064250 0.999990 0.438770 -0.547320
O35   O     O_R   0.000010 0.064250 0.438770 -0.547317
O36   O     O_R   0.935750 0.000010 0.438770 -0.547324
O37   O     O_R   0.000010 0.935750 0.561230 -0.547316
O38   O     O_R   0.935750 0.999990 0.561230 -0.547324
O39   O     O_R   0.999990 0.064250 0.561230 -0.547316
O40   O     O_R   0.064250 0.000010 0.561230 -0.547320
O41   O     O_R   0.499990 0.435750 0.938770 -0.547318
O42   O     O_R   0.564250 0.499990 0.938770 -0.547318
O43   O     O_R   0.500010 0.564250 0.938770 -0.547318
O44   O     O_R   0.435750 0.500010 0.938770 -0.547318
O45   O     O_R   0.500010 0.435750 0.061230 -0.547318
O46   O     O_R   0.435750 0.499990 0.061230 -0.547318
O47   O     O_R   0.499990 0.564250 0.061230 -0.547318
O48   O     O_R   0.564250 0.500010 0.061230 -0.547318
C25   C     C_R   1.000000 0.914917 0.500000 0.923176
C26   C     C_R   0.085082 1.000000 0.500000 0.923165
C27   C     C_R   1.000000 0.085083 0.500000 0.923176
C28   C     C_R   0.914918 1.000000 0.500000 0.923180
C29   C     C_R   0.500000 0.414917 1.000000 0.923169
C30   C     C_R   0.585082 0.500000 0.000000 0.923168
C31   C     C_R   0.500000 0.585082 0.000000 0.923167
C32   C     C_R   0.414917 0.500000 0.000000 0.923168
C33   C     C_1   0.500000 1.000000 0.282660 -0.158453
C34   C     C_1   1.000000 0.500000 0.282660 -0.158453
C35   C     C_1   0.500000 0.000000 0.717339 -0.158453
C36   C     C_1   1.000000 0.500000 0.717339 -0.158453
C37   C     C_1   1.000000 0.500000 0.782660 -0.158453
C38   C     C_1   0.500000 1.000000 0.782660 -0.158453
C39   C     C_1   1.000000 0.500000 0.217339 -0.158453
C40   C     C_1   0.500000 1.000000 0.217339 -0.158453
C41   C     C_R   0.297479 0.039759 0.495796 -0.143003
C42   C     C_R   0.039759 0.297479 0.504212 -0.143003
C43   C     C_R   0.702522 0.960239 0.495837 -0.143006
C44   C     C_R   0.960241 0.702521 0.504210 -0.143002
C45   C     C_R   0.702522 0.039761 0.504162 -0.143006
C46   C     C_R   0.960241 0.297479 0.495789 -0.143002
C47   C     C_R   0.297479 0.960241 0.504204 -0.143004
C48   C     C_R   0.039759 0.702521 0.495787 -0.143003
C49   C     C_R   0.797479 0.460241 0.004206 -0.143004
C50   C     C_R   0.460241 0.797479 0.995791 -0.143003
C51   C     C_R   0.202521 0.539759 0.004206 -0.143003
C52   C     C_R   0.539759 0.202521 0.995795 -0.143003
C53   C     C_R   0.202521 0.460241 0.995794 -0.143004
C54   C     C_R   0.539759 0.797479 0.004209 -0.143003
C55   C     C_R   0.797479 0.539759 0.995794 -0.143003
C56   C     C_R   0.460241 0.202521 0.004205 -0.143003
H1    H     H_    0.280176 0.070841 0.493284 0.150071
H2    H     H_    0.070840 0.280177 0.506730 0.150072
H3    H     H_    0.719825 0.929156 0.493357 0.150079
H4    H     H_    0.929160 0.719824 0.506729 0.150072
H5    H     H_    0.719825 0.070844 0.506642 0.150079
H6    H     H_    0.929160 0.280176 0.493271 0.150072
H7    H     H_    0.280176 0.929159 0.506716 0.150071
H8    H     H_    0.070840 0.719823 0.493269 0.150072
H9    H     H_    0.780176 0.429159 0.006720 0.150072
H10   H     H_    0.429159 0.780176 0.993275 0.150071
H11   H     H_    0.219824 0.570841 0.006720 0.150071
H12   H     H_    0.570841 0.219824 0.993281 0.150072
H13   H     H_    0.219824 0.429159 0.993280 0.150072
H14   H     H_    0.570840 0.780176 0.006725 0.150071
H15   H     H_    0.780176 0.570841 0.993280 0.150071
H16   H     H_    0.429159 0.219824 0.006718 0.150072
C57   C     C_R   0.343262 0.039780 0.495914 -0.171579
C58   C     C_R   0.039780 0.343262 0.504094 -0.171579
C59   C     C_R   0.656739 0.960218 0.495956 -0.171579
C60   C     C_R   0.960221 0.656738 0.504092 -0.171579
C61   C     C_R   0.656739 0.039782 0.504043 -0.171579
C62   C     C_R   0.960221 0.343262 0.495908 -0.171579
C63   C     C_R   0.343262 0.960220 0.504085 -0.171578
C64   C     C_R   0.039780 0.656738 0.495906 -0.171579
C65   C     C_R   0.843262 0.460220 0.004088 -0.171579
C66   C     C_R   0.460220 0.843262 0.995910 -0.171579
C67   C     C_R   0.156738 0.539780 0.004088 -0.171579
C68   C     C_R   0.539780 0.156738 0.995913 -0.171579
C69   C     C_R   0.156738 0.460220 0.995912 -0.171579
C70   C     C_R   0.539779 0.843262 0.004091 -0.171579
C71   C     C_R   0.843262 0.539780 0.995912 -0.171579
C72   C     C_R   0.460220 0.156738 0.004087 -0.171579
C73   C     C_R   0.366560 1.000000 0.500000 -0.037985
C74   C     C_R   1.000000 0.366560 0.500000 -0.037983
C75   C     C_R   0.633440 1.000000 0.500000 -0.037985
C76   C     C_R   1.000000 0.633440 0.500000 -0.037983
C77   C     C_R   0.866560 0.500000 1.000000 -0.037984
C78   C     C_R   0.500000 0.866560 0.000000 -0.037984
C79   C     C_R   0.133440 0.500000 0.000000 -0.037984
C80   C     C_R   0.500000 0.133440 1.000000 -0.037984
Cu9   Cu    Cu3+1 1.000000 1.000000 0.427490 1.199704
Cu10  Cu    Cu3+1 1.000000 1.000000 0.572510 1.199703
Cu11  Cu    Cu3+1 0.500000 0.500000 0.927490 1.199708
Cu12  Cu    Cu3+1 0.500000 0.500000 0.072510 1.199707
C81   C     C_R   0.274269 1.000000 0.500000 0.143709
C82   C     C_R   0.000000 0.274269 0.500001 0.143708
C83   C     C_R   0.725732 1.000000 0.500000 0.143701
C84   C     C_R   0.000000 0.725731 0.499999 0.143708
C85   C     C_R   0.774269 0.500000 1.000000 0.143709
C86   C     C_R   0.500000 0.774269 0.000000 0.143709
C87   C     C_R   0.225731 0.500000 0.000000 0.143709
C88   C     C_R   0.500000 0.225731 1.000000 0.143708
C89   C     C_R   0.202809 0.025850 0.450008 -0.198534
C90   C     C_R   0.974155 0.202809 0.450001 -0.198534
C91   C     C_R   0.797191 0.974142 0.450018 -0.198529
C92   C     C_R   0.025846 0.797191 0.450001 -0.198532
C93   C     C_R   0.797191 0.025858 0.549982 -0.198529
C94   C     C_R   0.025846 0.202809 0.549999 -0.198532
C95   C     C_R   0.202809 0.974150 0.549992 -0.198534
C96   C     C_R   0.974155 0.797191 0.549998 -0.198534
C97   C     C_R   0.702809 0.525849 0.950005 -0.198533
C98   C     C_R   0.474152 0.702809 0.950005 -0.198533
C99   C     C_R   0.297191 0.474151 0.950005 -0.198533
C100  C     C_R   0.525849 0.297191 0.950005 -0.198533
C101  C     C_R   0.297191 0.525849 0.049995 -0.198533
C102  C     C_R   0.525848 0.702809 0.049995 -0.198533
C103  C     C_R   0.702809 0.474151 0.049995 -0.198533
C104  C     C_R   0.474151 0.297191 0.049994 -0.198533
C105  C     C_R   0.156870 0.026712 0.449945 0.313175
C106  C     C_R   0.973293 0.156870 0.449938 0.313185
C107  C     C_R   0.843130 0.973281 0.449954 0.313169
C108  C     C_R   0.026708 0.843130 0.449939 0.313178
C109  C     C_R   0.843130 0.026719 0.550046 0.313168
C110  C     C_R   0.026708 0.156870 0.550061 0.313178
C111  C     C_R   0.156870 0.973288 0.550055 0.313175
C112  C     C_R   0.973293 0.843130 0.550062 0.313185
C113  C     C_R   0.656870 0.526711 0.949943 0.313176
C114  C     C_R   0.473290 0.656870 0.949942 0.313178
C115  C     C_R   0.343130 0.473289 0.949943 0.313177
C116  C     C_R   0.526711 0.343130 0.949943 0.313176
C117  C     C_R   0.343130 0.526711 0.050057 0.313176
C118  C     C_R   0.526710 0.656870 0.050058 0.313177
C119  C     C_R   0.656870 0.473289 0.050057 0.313177
C120  C     C_R   0.473289 0.343130 0.050057 0.313177
C121  C     C_R   0.133426 1.000000 0.500000 -0.231279
C122  C     C_R   0.000000 0.133427 0.500000 -0.231271
C123  C     C_R   0.866574 1.000000 0.500000 -0.231284
C124  C     C_R   0.000000 0.866573 0.500000 -0.231271
C125  C     C_R   0.633426 0.500000 0.000000 -0.231276
C126  C     C_R   0.500000 0.633426 0.000000 -0.231276
C127  C     C_R   0.366574 0.500000 1.000000 -0.231276
C128  C     C_R   0.500000 0.366574 1.000000 -0.231276
H17   H     H_    0.360350 0.070950 0.492799 0.166904
H18   H     H_    0.070949 0.360350 0.507215 0.166903
H19   H     H_    0.639651 0.929047 0.492876 0.166905
H20   H     H_    0.929051 0.639650 0.507213 0.166903
H21   H     H_    0.639651 0.070953 0.507124 0.166905
H22   H     H_    0.929051 0.360350 0.492786 0.166904
H23   H     H_    0.360350 0.929050 0.507201 0.166904
H24   H     H_    0.070949 0.639650 0.492785 0.166903
H25   H     H_    0.860350 0.429051 0.007205 0.166904
H26   H     H_    0.429051 0.860350 0.992790 0.166904
H27   H     H_    0.139650 0.570949 0.007205 0.166904
H28   H     H_    0.570949 0.139650 0.992797 0.166903
H29   H     H_    0.139650 0.429051 0.992795 0.166904
H30   H     H_    0.570949 0.860350 0.007210 0.166903
H31   H     H_    0.860350 0.570949 0.992795 0.166904
H32   H     H_    0.429050 0.139650 0.007203 0.166904
H33   H     H_    0.220687 0.045962 0.411349 0.181487
H34   H     H_    0.954046 0.220688 0.411337 0.181486
H35   H     H_    0.779312 0.954024 0.411368 0.181496
H36   H     H_    0.045955 0.779312 0.411337 0.181486
H37   H     H_    0.779312 0.045976 0.588631 0.181496
H38   H     H_    0.045955 0.220688 0.588663 0.181486
H39   H     H_    0.220687 0.954038 0.588651 0.181487
H40   H     H_    0.954046 0.779312 0.588663 0.181486
H41   H     H_    0.720687 0.545959 0.911344 0.181487
H42   H     H_    0.454041 0.720688 0.911343 0.181486
H43   H     H_    0.279312 0.454041 0.911344 0.181486
H44   H     H_    0.545960 0.279312 0.911345 0.181487
H45   H     H_    0.279312 0.545959 0.088655 0.181487
H46   H     H_    0.545958 0.720688 0.088657 0.181486
H47   H     H_    0.720688 0.454041 0.088655 0.181486
H48   H     H_    0.454040 0.279312 0.088655 0.181487
N1    N     N_R   0.134834 0.055920 0.400326 0.143466
O49   O     O_R   0.103521 0.081502 0.423404 -0.330737
O50   O     O_R   0.150637 0.062167 0.335283 -0.315961
N2    N     N_R   0.944090 0.134834 0.400309 0.143468
O51   O     O_R   0.918504 0.103524 0.423381 -0.330712
O52   O     O_R   0.937853 0.150637 0.335264 -0.315963
N3    N     N_R   0.865166 0.944068 0.400342 0.143464
O53   O     O_R   0.896483 0.918494 0.423425 -0.330746
O54   O     O_R   0.849359 0.937812 0.335304 -0.315966
N4    N     N_R   0.055912 0.865166 0.400313 0.143466
O55   O     O_R   0.081498 0.896476 0.423387 -0.330724
O56   O     O_R   0.062151 0.849364 0.335267 -0.315960
N5    N     N_R   0.865166 0.055932 0.599658 0.143464
O57   O     O_R   0.896483 0.081506 0.576575 -0.330746
O58   O     O_R   0.849359 0.062189 0.664695 -0.315966
N6    N     N_R   0.055912 0.134834 0.599687 0.143466
O59   O     O_R   0.081498 0.103524 0.576613 -0.330725
O60   O     O_R   0.062151 0.150636 0.664732 -0.315960
N7    N     N_R   0.134834 0.944080 0.599674 0.143465
O61   O     O_R   0.103521 0.918498 0.576596 -0.330737
O62   O     O_R   0.150637 0.937833 0.664717 -0.315961
N8    N     N_R   0.944090 0.865165 0.599690 0.143468
O63   O     O_R   0.918504 0.896476 0.576619 -0.330712
O64   O     O_R   0.937853 0.849363 0.664736 -0.315963
N9    N     N_R   0.634834 0.555917 0.900321 0.143466
O65   O     O_R   0.603522 0.581500 0.923397 -0.330731
O66   O     O_R   0.650637 0.562160 0.835277 -0.315961
N10   N     N_R   0.444084 0.634834 0.900319 0.143466
O67   O     O_R   0.418500 0.603523 0.923396 -0.330729
O68   O     O_R   0.437841 0.650636 0.835275 -0.315960
N11   N     N_R   0.365166 0.444083 0.900320 0.143466
O69   O     O_R   0.396477 0.418500 0.923397 -0.330729
O70   O     O_R   0.349363 0.437840 0.835276 -0.315960
N12   N     N_R   0.555917 0.365166 0.900321 0.143466
O71   O     O_R   0.581500 0.396478 0.923397 -0.330730
O72   O     O_R   0.562161 0.349363 0.835277 -0.315960
N13   N     N_R   0.365166 0.555917 0.099679 0.143466
O73   O     O_R   0.396477 0.581500 0.076603 -0.330731
O74   O     O_R   0.349363 0.562161 0.164723 -0.315961
N14   N     N_R   0.555916 0.634834 0.099681 0.143466
O75   O     O_R   0.581500 0.603523 0.076604 -0.330729
O76   O     O_R   0.562159 0.650637 0.164725 -0.315960
N15   N     N_R   0.634834 0.444083 0.099679 0.143466
O77   O     O_R   0.603522 0.418500 0.076603 -0.330730
O78   O     O_R   0.650637 0.437840 0.164723 -0.315961
N16   N     N_R   0.444083 0.365166 0.099679 0.143466
O79   O     O_R   0.418500 0.396478 0.076602 -0.330730
O80   O     O_R   0.437839 0.349363 0.164722 -0.315961

loop_
_geom_bond_atom_site_label_1
_geom_bond_atom_site_label_2
_geom_bond_distance
_ccdc_geom_bond_type
C63   H23   1.082894 S    
O27   Cu7   1.953785 S    
N7    O62   1.301359 A    
O35   C27   1.290594 A    
C62   H22   1.082894 S    
C43   C83   1.402678 A    
C58   C74   1.404446 A    
C61   H21   1.082904 S    
O23   C19   1.292513 A    
C55   C85   1.402669 A    
O25   Cu5   1.953785 S    
C6    C102  1.397779 A    
C59   H19   1.082903 S    
C46   C82   1.402671 A    
C25   C124  1.470698 S    
O47   C31   1.290595 A    
C54   C86   1.402670 A    
C106  N2    1.438396 S    
C34   C39   1.199388 T    
C8    C88   1.471951 S    
O28   Cu8   1.953785 S    
C58   H18   1.082893 S    
C52   C88   1.402670 A    
N5    O57   1.300992 A    
C116  N12   1.438396 S    
C111  C121  1.419052 A    
C56   H16   1.083165 S    
O9    Cu5   1.966262 S    
C47   H7    1.083167 S    
C96   C112  1.397783 A    
N6    O60   1.301359 A    
C49   C65   1.392789 A    
C54   H14   1.083164 S    
O14   C14   1.297334 A    
C115  N11   1.438396 S    
C72   H32   1.082894 S    
C120  N16   1.438395 S    
O45   Cu12  1.965525 S    
C43   H3    1.083173 S    
N9    O65   1.300990 A    
O12   Cu8   1.966261 S    
O38   C28   1.290593 A    
C42   H2    1.083164 S    
C7    C99   1.397780 A    
C112  C124  1.419054 A    
Cu2   Cu4   2.680738 S    
N3    O53   1.300990 A    
C118  C126  1.419054 A    
C7    C87   1.471950 S    
C57   H17   1.082895 S    
N16   O80   1.301359 A    
O3    Cu3   1.966259 S    
O19   Cu3   1.953785 S    
N6    O59   1.300992 A    
C114  N10   1.438395 S    
Cu5   Cu7   2.680741 S    
C47   C63   1.392786 A    
C70   H30   1.082892 S    
Cu6   Cu8   2.680738 S    
C29   C128  1.470691 S    
O8    Cu2   1.966261 S    
O47   Cu12  1.965522 S    
O5    C11   1.297336 A    
O33   C25   1.290597 A    
C18   C34   1.424167 S    
C91   C107  1.397785 A    
C42   C82   1.402669 A    
C111  N7    1.438395 S    
C67   H27   1.082893 S    
N10   O67   1.300991 A    
N3    O54   1.301366 A    
C44   H4    1.083167 S    
O15   Cu7   1.966262 S    
O19   C17   1.292511 A    
C65   H25   1.082893 S    
N15   O77   1.300990 A    
C119  N15   1.438396 S    
C59   C75   1.404463 A    
C61   C75   1.404461 A    
C51   H11   1.083166 S    
C90   C106  1.397783 A    
C120  C128  1.419052 A    
C1    C81   1.471950 S    
N1    O50   1.301358 A    
C68   C80   1.404444 A    
C31   C126  1.470691 S    
C57   C73   1.404448 A    
C104  C120  1.397783 A    
O28   C22   1.292510 A    
C55   C71   1.392789 A    
O26   Cu6   1.953785 S    
C19   C35   1.424167 S    
O1    C9    1.297335 A    
C41   C57   1.392786 A    
C116  C128  1.419055 A    
N15   O78   1.301359 A    
O35   Cu9   1.965522 S    
O25   C21   1.292513 A    
C72   C80   1.404447 A    
C105  C121  1.419051 A    
C32   C127  1.470690 S    
C64   H24   1.082893 S    
N1    O49   1.300990 A    
O12   C16   1.297334 A    
C69   H29   1.082893 S    
C94   C110  1.397783 A    
O13   Cu5   1.966259 S    
O41   Cu11  1.965525 S    
O10   Cu6   1.966264 S    
C3    C91   1.397778 A    
C52   H12   1.083165 S    
C6    C86   1.471951 S    
C56   C88   1.402668 A    
O7    Cu3   1.966262 S    
O4    C12   1.297333 A    
O27   C21   1.292511 A    
O15   C13   1.297337 A    
O39   C27   1.290597 A    
O3    C11   1.297339 A    
C2    C94   1.397779 A    
C28   C123  1.470693 S    
C2    C90   1.397778 A    
C117  C127  1.419053 A    
C4    C92   1.397779 A    
N4    O56   1.301359 A    
C90   H34   1.083527 S    
O18   C18   1.292513 A    
C99   H43   1.083528 S    
C89   H33   1.083527 S    
O36   C28   1.290594 A    
O6    Cu4   1.966264 S    
O24   Cu2   1.953783 S    
C26   C121  1.470693 S    
C103  H47   1.083527 S    
O36   Cu9   1.965523 S    
C6    C98   1.397778 A    
C17   C33   1.424167 S    
N9    O66   1.301360 A    
C53   C87   1.402672 A    
C47   C81   1.402674 A    
C101  H45   1.083527 S    
C89   C105  1.397782 A    
C92   C108  1.397783 A    
O24   C20   1.292513 A    
O39   Cu10  1.965522 S    
C71   H31   1.082893 S    
C10   C74   1.470466 S    
C48   C84   1.402669 A    
C107  C123  1.419060 A    
N2    O51   1.300990 A    
O30   Cu8   1.953783 S    
C107  N3    1.438401 S    
C60   C76   1.404447 A    
C102  C118  1.397780 A    
N8    O64   1.301359 A    
C50   H10   1.083164 S    
C46   C62   1.392787 A    
C8    C104  1.397780 A    
C2    C82   1.471948 S    
C22   C38   1.424167 S    
O1    Cu1   1.966262 S    
O34   C26   1.290594 A    
C15   C79   1.470462 S    
C44   C84   1.402671 A    
O32   Cu6   1.953783 S    
C16   C80   1.470463 S    
C5    C103  1.397781 A    
C91   H35   1.083532 S    
O23   Cu3   1.953783 S    
C45   C61   1.392792 A    
O4    Cu4   1.966261 S    
N2    O52   1.301359 A    
N13   O73   1.300988 A    
N16   O79   1.300992 A    
C49   H9    1.083163 S    
O11   C15   1.297337 A    
C109  C123  1.419057 A    
C27   C122  1.470698 S    
O18   Cu2   1.953785 S    
C98   H42   1.083528 S    
C30   C125  1.470690 S    
C104  H48   1.083526 S    
C64   C76   1.404446 A    
C105  N1    1.438397 S    
C97   H41   1.083526 S    
C98   C114  1.397783 A    
O22   Cu4   1.953783 S    
O14   Cu8   1.966264 S    
C53   H13   1.083163 S    
C65   C77   1.404448 A    
C100  C116  1.397780 A    
C51   C87   1.402669 A    
C101  C117  1.397782 A    
N5    O58   1.301363 A    
C5    C97   1.397780 A    
C115  C127  1.419054 A    
C55   H15   1.083166 S    
O8    C12   1.297335 A    
N12   O72   1.301358 A    
O10   C14   1.297337 A    
C20   C36   1.424167 S    
Cu1   Cu3   2.680741 S    
O16   C16   1.297337 A    
C41   H1    1.083167 S    
C42   C58   1.392790 A    
C8    C100  1.397781 A    
C1    C95   1.397781 A    
O48   Cu12  1.965520 S    
O20   C18   1.292510 A    
C69   C79   1.404448 A    
O31   C23   1.292513 A    
O41   C29   1.290595 A    
O46   C32   1.290594 A    
C52   C68   1.392790 A    
C24   C40   1.424167 S    
C94   H38   1.083526 S    
O44   C32   1.290596 A    
N4    O55   1.300992 A    
C66   H26   1.082892 S    
O17   Cu1   1.953785 S    
C48   C64   1.392790 A    
C14   C78   1.470463 S    
C4    C96   1.397778 A    
O38   Cu10  1.965523 S    
C12   C76   1.470466 S    
C110  N6    1.438395 S    
O13   C15   1.297335 A    
C114  C126  1.419054 A    
C3    C93   1.397776 A    
N14   O76   1.301359 A    
C102  H46   1.083528 S    
C97   C113  1.397782 A    
C46   H6    1.083165 S    
C66   C78   1.404448 A    
O34   Cu9   1.965520 S    
C53   C69   1.392789 A    
N11   O69   1.300990 A    
O2    Cu2   1.966264 S    
C60   H20   1.082894 S    
C108  C124  1.419054 A    
C119  C125  1.419055 A    
O32   C24   1.292513 A    
O42   C30   1.290596 A    
O40   Cu10  1.965520 S    
C92   H36   1.083526 S    
C95   H39   1.083527 S    
O44   Cu11  1.965523 S    
O11   Cu7   1.966259 S    
O37   Cu10  1.965525 S    
O7    C9    1.297337 A    
O5    Cu1   1.966259 S    
C103  C119  1.397779 A    
C62   C74   1.404447 A    
C3    C83   1.471941 S    
C45   H5    1.083173 S    
C56   C72   1.392790 A    
C33   C40   1.199388 T    
O2    C10   1.297335 A    
N8    O63   1.300990 A    
C93   C109  1.397788 A    
C63   C73   1.404450 A    
C11   C75   1.470474 S    
C1    C89   1.397778 A    
C44   C60   1.392787 A    
O26   C22   1.292513 A    
C35   C38   1.199388 T    
O31   Cu7   1.953783 S    
O9    C13   1.297335 A    
N11   O70   1.301359 A    
C70   C78   1.404445 A    
O6    C10   1.297333 A    
C113  C125  1.419052 A    
C108  N4    1.438395 S    
O45   C29   1.290595 A    
O29   Cu5   1.953784 S    
O21   C19   1.292511 A    
C23   C39   1.424167 S    
C96   H40   1.083527 S    
C67   C79   1.404446 A    
C36   C37   1.199388 T    
N13   O74   1.301360 A    
O42   Cu11  1.965520 S    
C54   C70   1.392787 A    
C93   H37   1.083530 S    
C50   C86   1.402673 A    
O33   Cu9   1.965525 S    
C51   C67   1.392789 A    
C50   C66   1.392787 A    
C113  N9    1.438398 S    
C99   C115  1.397779 A    
O40   C26   1.290593 A    
C7    C101  1.397779 A    
C13   C77   1.470462 S    
O37   C25   1.290594 A    
C68   H28   1.082894 S    
C109  N5    1.438401 S    
O43   Cu11  1.965522 S    
O48   C30   1.290594 A    
C71   C77   1.404446 A    
C45   C83   1.402676 A    
O22   C20   1.292510 A    
N14   O75   1.300994 A    
O29   C23   1.292511 A    
N10   O68   1.301358 A    
C4    C84   1.471948 S    
O17   C17   1.292513 A    
C112  N8    1.438396 S    
Cu11  Cu12  2.662772 S    
O46   Cu12  1.965523 S    
O20   Cu4   1.953785 S    
N12   O71   1.300991 A    
C110  C122  1.419054 A    
C49   C85   1.402672 A    
C9    C73   1.470462 S    
C106  C122  1.419054 A    
C43   C59   1.392792 A    
O30   C24   1.292510 A    
Cu9   Cu10  2.662772 S    
C117  N13   1.438397 S    
C95   C111  1.397782 A    
O16   Cu6   1.966261 S    
C21   C37   1.424167 S    
O21   Cu1   1.953784 S    
O43   C31   1.290595 A    
N7    O61   1.300991 A    
C41   C81   1.402671 A    
C118  N14   1.438395 S    
C48   H8    1.083164 S    
C5    C85   1.471950 S    
C100  H44   1.083526 S    
