data_mof_unit_23094.cif
_audit_creation_date              2012-12-11T15:45:21-0500
_audit_creation_method            fapswitch 2.2
_symmetry_space_group_name_H-M    P1
_symmetry_Int_Tables_number       1
_space_group_crystal_system       triclinic
_cell_length_a                    8.28003
_cell_length_b                    18.940872
_cell_length_c                    22.908357
_cell_angle_alpha                 94.949823
_cell_angle_beta                  89.840198
_cell_angle_gamma                 94.238598
_cell_volume                      3569.52857126

loop_
_atom_site_label
_atom_site_type_symbol
_atom_type_description
_atom_site_fract_x
_atom_site_fract_y
_atom_site_fract_z
_atom_type_partial_charge
Ba1   Ba    Ba6+2 0.850680 0.532880 0.472010 1.679944
Ba2   Ba    Ba6+2 0.339140 0.467180 0.527990 1.681434
C1    C     C_3   0.487066 0.749279 0.272357 -0.343452
C2    C     C_3   0.566684 0.715831 0.322292 0.533064
C3    C     C_3   0.441373 0.264229 0.354066 0.504028
C4    C     C_3   0.519004 0.197917 0.327505 -0.403863
C5    C     C_3   0.027991 0.286328 0.690853 0.545881
C6    C     C_3   0.927144 0.221185 0.709736 -0.352691
C7    C     C_3   0.539626 0.277151 0.657253 0.394640
C8    C     C_3   0.504915 0.202683 0.676691 -0.384871
C9    C     C_R   0.338900 0.517804 0.330897 -0.258295
C10   C     C_R   0.087182 0.555346 0.938898 -0.023054
C11   C     C_R   0.040107 0.551567 0.879086 0.585077
C12   C     C_3   0.083029 0.679869 0.311074 0.332333
C13   C     C_R   0.985973 0.425180 0.877986 0.582441
C14   C     C_R   0.036195 0.427028 0.937130 -0.025790
C15   C     C_R   0.085537 0.492579 0.967897 -0.052155
C16   C     C_R   0.135448 0.620571 0.970564 -0.077982
C17   C     C_R   0.180130 0.623378 0.029690 -0.078412
C18   C     C_R   0.179178 0.561021 0.059178 -0.018343
C19   C     C_R   0.132809 0.495352 0.027975 -0.053236
C20   C     C_R   0.038305 0.364499 0.966230 -0.084644
C21   C     C_R   0.087913 0.367081 0.024738 -0.071354
C22   C     C_R   0.134693 0.432370 0.056489 -0.019854
C23   C     C_3   0.049359 0.697883 0.249016 -0.330026
C24   C     C_R   0.183132 0.435953 0.116025 0.587236
C25   C     C_R   0.222494 0.563029 0.119165 0.578156
C26   C     C_2   0.800172 0.448150 0.768058 -0.084439
C27   C     C_3   0.770034 0.432790 0.702916 -0.060163
C28   C     C_1   0.999762 0.516521 0.686260 0.035719
C29   C     C_2   0.049832 0.516445 0.741726 -0.122691
C30   C     C_2   0.941903 0.483370 0.787016 0.214323
C31   C     C_R   0.410167 0.537145 0.230655 -0.098859
C32   C     C_R   0.449023 0.543331 0.290513 -0.028774
C33   C     C_R   0.190741 0.483680 0.312936 0.007426
C34   C     C_3   0.200215 0.683535 0.595324 0.319369
C35   C     C_R   0.149369 0.476666 0.252300 -0.142732
C36   C     C_R   0.259308 0.504662 0.210382 0.193215
C37   C     C_2   0.855786 0.488315 0.668462 -0.233611
C38   C     C_R   0.392413 0.701407 0.474969 -0.266365
C39   C     C_R   0.532628 0.724436 0.506542 0.016730
C40   C     C_R   0.584593 0.796602 0.512408 -0.141805
C41   C     C_R   0.492776 0.846768 0.488555 0.011717
C42   C     C_R   0.346652 0.823044 0.458898 -0.113989
C43   C     C_R   0.295882 0.750378 0.453171 0.025488
C44   C     C_R   0.537414 0.966236 0.449367 -0.083441
C45   C     C_3   0.207989 0.763924 0.609666 -0.405016
C46   C     C_R   0.592164 0.038060 0.455985 -0.082072
C47   C     C_R   0.658435 0.069138 0.509527 0.061605
C48   C     C_R   0.671349 0.026191 0.556019 -0.079889
C49   C     C_R   0.616871 0.954165 0.549350 -0.081005
C50   C     C_R   0.548622 0.923450 0.495983 0.060069
C51   C     C_R   0.852888 0.172835 0.546609 -0.142599
C52   C     C_R   0.898454 0.246131 0.551487 -0.003904
C53   C     C_R   0.660532 0.267014 0.496190 0.004482
C54   C     C_R   0.612739 0.194633 0.492022 -0.132581
C55   C     C_R   0.708023 0.146524 0.517076 0.005303
C56   C     C_3   0.993875 0.317605 0.407157 0.320649
C57   C     C_R   0.798112 0.292843 0.528378 -0.262928
C58   C     C_3   0.962929 0.237925 0.391737 -0.412243
C59   C     C_3   0.736884 0.726779 0.645276 0.506256
C60   C     C_3   0.624299 0.783330 0.669252 -0.417950
H1    H     H_    0.279907 0.779317 0.650544 0.121583
H2    H     H_    0.264540 0.791246 0.573165 0.065598
H3    H     H_    0.084345 0.782483 0.616958 0.104487
H4    H     H_    0.880537 0.339916 0.422761 0.010946
H5    H     H_    0.087015 0.326841 0.442149 0.069992
H6    H     H_    0.860020 0.227531 0.360489 0.126734
H7    H     H_    0.934289 0.210353 0.431505 0.070717
H8    H     H_    0.071699 0.215596 0.371092 0.106920
H9    H     H_    0.817555 0.752183 0.612861 -0.002319
H10   H     H_    0.579221 0.777307 0.245675 0.110814
H11   H     H_    0.561261 0.804160 0.632644 0.063000
H12   H     H_    0.695762 0.828672 0.693459 0.083199
H13   H     H_    0.531836 0.760488 0.699083 0.129822
H14   H     H_    0.466658 0.686710 0.344888 -0.069422
H15   H     H_    0.399207 0.787083 0.290143 0.087276
H16   H     H_    0.352822 0.245954 0.387394 0.006259
H17   H     H_    0.577723 0.171859 0.362417 0.068183
H18   H     H_    0.425147 0.159531 0.306175 0.080404
H19   H     H_    0.612567 0.211864 0.294659 0.130023
H20   H     H_    0.422310 0.706927 0.243070 0.121068
H21   H     H_    0.042157 0.648452 0.219172 0.126088
H22   H     H_    0.942700 0.320851 0.671947 -0.066565
H23   H     H_    0.006155 0.182206 0.725948 0.099760
H24   H     H_    0.841052 0.237618 0.744698 0.110272
H25   H     H_    0.857882 0.194253 0.671886 0.062792
H26   H     H_    0.672602 0.286435 0.652357 -0.096384
H27   H     H_    0.481297 0.279030 0.613904 0.093141
H28   H     H_    0.563326 0.163753 0.646035 0.070440
H29   H     H_    0.373095 0.187772 0.676397 0.146398
H30   H     H_    0.992585 0.637131 0.321603 0.118079
H31   H     H_    0.553233 0.199874 0.721472 0.107553
H32   H     H_    0.087911 0.317601 0.045233 0.120956
H33   H     H_    0.002167 0.313057 0.943713 0.113580
H34   H     H_    0.215365 0.674826 0.052317 0.118404
H35   H     H_    0.497318 0.557547 0.199803 0.104448
H36   H     H_    0.138099 0.669938 0.949776 0.119622
H37   H     H_    0.167876 0.541404 0.754803 0.120584
H38   H     H_    0.717158 0.424002 0.798631 0.105763
H39   H     H_    0.371529 0.522504 0.376852 0.084098
H40   H     H_    0.205409 0.660042 0.312713 -0.056982
H41   H     H_    0.796642 0.506450 0.630687 0.084523
H42   H     H_    0.502550 0.175925 0.468425 0.057118
H43   H     H_    0.583634 0.069178 0.418854 0.056445
H44   H     H_    0.488475 0.943868 0.407436 0.066872
H45   H     H_    0.696585 0.813491 0.535535 0.061677
H46   H     H_    0.720151 0.048668 0.597933 0.059314
H47   H     H_    0.625701 0.922763 0.586359 0.056264
H48   H     H_    0.932449 0.136605 0.563663 0.069358
H49   H     H_    0.270557 0.860774 0.442050 0.067471
H50   H     H_    0.834213 0.349124 0.531282 0.059664
H51   H     H_    0.932486 0.722391 0.246715 0.140137
H52   H     H_    0.352871 0.645458 0.470632 0.062773
H53   H     H_    0.146330 0.735688 0.234157 0.119433
H54   H     H_    0.324038 0.667029 0.586697 0.004088
H55   H     H_    0.121596 0.669303 0.556106 0.060307
N1    N     N_R   0.990100 0.486872 0.848935 -0.421690
N2    N     N_R   0.219699 0.501055 0.147736 -0.425593
O1    O     O_2   0.896730 0.461690 0.361000 -0.446049
O2    O     O_3   0.644056 0.665477 0.620767 -0.610274
O3    O     O_3   0.071052 0.740355 0.350350 -0.611530
O4    O     O_2   0.292960 0.538340 0.639040 -0.443547
O5    O     O_3   0.052540 0.537650 0.567960 -0.488952
O6    O     O_3   0.532200 0.411510 0.604930 -0.469365
O7    O     O_3   0.137758 0.651486 0.643926 -0.614860
O8    O     O_3   0.629030 0.416090 0.471500 -0.443146
O9    O     O_3   0.120120 0.375640 0.576470 -0.476692
O10   O     O_2   0.232616 0.250623 0.541238 -0.494373
O11   O     O_3   0.147356 0.264062 0.650708 -0.600218
O12   O     O_3   0.137170 0.462400 0.432040 -0.488814
O13   O     O_3   0.560670 0.583970 0.528500 -0.450580
O14   O     O_2   0.373560 0.329680 0.473470 -0.468973
O15   O     O_3   0.563613 0.314453 0.377434 -0.627318
O16   O     O_2   0.438154 0.465233 0.709845 -0.490634
O17   O     O_3   0.478340 0.327949 0.698502 -0.593861
O18   O     O_2   0.041374 0.606148 0.854237 -0.611460
O19   O     O_2   0.938852 0.368258 0.852332 -0.609716
O20   O     O_2   0.194235 0.380930 0.139415 -0.608045
O21   O     O_2   0.262530 0.620199 0.145921 -0.625017
O22   O     O_3   0.657500 0.588540 0.395070 -0.471757
O23   O     O_2   0.785089 0.543678 0.292492 -0.501457
O24   O     O_3   0.046866 0.348561 0.356746 -0.618754
O25   O     O_3   0.685216 0.671631 0.298699 -0.613824
O26   O     O_2   0.816140 0.670340 0.526560 -0.473272
O27   O     O_3   0.069580 0.624410 0.423530 -0.501369
O28   O     O_2   0.960737 0.750706 0.457588 -0.492949
P1    P     P_3+3 0.067040 0.441110 0.370020 1.022484
P2    P     P_3+3 0.640420 0.660110 0.543790 0.999763
P3    P     P_3+3 0.098388 0.716927 0.421815 0.932237
P4    P     P_3+3 0.122660 0.558950 0.629980 1.030059
P5    P     P_3+3 0.098340 0.283050 0.579608 0.940275
P6    P     P_3+3 0.643975 0.584882 0.318571 0.953280
P7    P     P_3+3 0.555617 0.327831 0.454108 0.959629
P8    P     P_3+3 0.553516 0.412116 0.680590 0.968425
N3    N     N_2   0.640480 0.768818 0.365705 -0.429365
H56   H     H_    0.692571 0.746099 0.399482 0.226541
C61   C     C_3   0.740117 0.828246 0.346092 -0.190289
H57   H     H_    0.802111 0.858596 0.384230 0.120147
H58   H     H_    0.663668 0.864786 0.325397 0.082460
H59   H     H_    0.832763 0.809623 0.314661 0.149348
N4    N     N_2   0.839903 0.706640 0.691862 -0.409537
H60   H     H_    0.924272 0.746605 0.707966 0.179141
C62   C     C_3   0.762985 0.666520 0.737120 -0.178642
H61   H     H_    0.858097 0.646790 0.764417 0.142430
H62   H     H_    0.686771 0.619506 0.717652 0.128389
H63   H     H_    0.687497 0.700910 0.765865 0.093529
N5    N     N_2   0.351267 0.295508 0.309612 -0.422008
H64   H     H_    0.255614 0.262964 0.291677 0.185667
C63   C     C_3   0.443061 0.333646 0.266709 -0.161071
H65   H     H_    0.358507 0.357699 0.237995 0.132519
H66   H     H_    0.515740 0.297139 0.238811 0.107146
H67   H     H_    0.523729 0.377302 0.288625 0.134020
N6    N     N_2   0.105466 0.328176 0.740653 -0.394343
H68   H     H_    0.166602 0.374252 0.729135 0.213255
C64   C     C_3   0.194022 0.291942 0.782159 -0.102560
H69   H     H_    0.264791 0.331568 0.812240 0.105735
H70   H     H_    0.277997 0.256120 0.759434 0.122546
H71   H     H_    0.108849 0.260463 0.808966 0.111735
C65   C     C_1   0.996256 0.440736 0.233257 0.400989
N7    N     N_1   0.873766 0.411736 0.217923 -0.284127

loop_
_geom_bond_atom_site_label_1
_geom_bond_atom_site_label_2
_ccdc_geom_bond_type
C51   H48   S    
C53   P7    S    
C61   H58   S    
C53   C54   A    
C12   O3    S    
C53   C57   A    
C20   H33   S    
Ba1   O26   S    
C17   C18   A    
Ba1   O13   S    
O22   P6    S    
C11   N1    Am   
C4    H17   S    
O16   P8    D    
C5    C6    S    
O15   P7    S    
Ba2   O4    S    
C65   N7    T    
C62   H62   S    
C9    C33   A    
O3    P3    S    
C62   H61   S    
C33   C35   A    
C22   C24   A    
C16   C17   A    
C23   H53   S    
C7    H26   S    
C45   H1    S    
C28   C29   D    
C41   C50   S    
C12   H40   S    
C39   P2    S    
C63   H65   S    
C56   C58   S    
C13   C14   A    
C5    N6    S    
C44   C50   A    
C47   C55   S    
C54   C55   A    
C34   C45   S    
C59   O2    S    
C43   P3    S    
C39   C40   A    
C3    N5    S    
O25   P6    S    
N6    H68   S    
C5    O11   S    
C61   H59   S    
O27   P3    S    
C56   O24   S    
O9    P5    S    
C64   H71   S    
C38   H52   S    
O23   P6    D    
C46   H43   S    
O2    P2    S    
C14   C15   A    
C10   C15   A    
Ba2   O13   S    
C21   C22   A    
C60   H11   S    
Ba1   P2    S    
C42   H49   S    
C29   H37   S    
C40   H45   S    
N4    C62   S    
C27   P8    S    
C13   O19   D    
Ba2   O8    S    
C26   H38   S    
C64   H70   S    
C5    H22   S    
C49   H47   S    
C4    H19   S    
C48   H46   S    
O13   P2    S    
Ba1   O27   S    
C38   C43   A    
O8    P7    S    
C56   H4    S    
Ba2   O12   S    
C44   C46   A    
C52   C57   A    
C62   H63   S    
C3    O15   S    
O4    P4    D    
Ba2   O14   S    
C59   N4    S    
C34   H54   S    
N5    H64   S    
C26   C30   D    
O28   P3    D    
C24   N2    Am   
C54   H42   S    
O10   P5    D    
C24   O20   D    
C7    H27   S    
C45   H2    S    
O17   P8    S    
C51   C55   A    
C52   P5    S    
C8    H31   S    
C48   C49   A    
C51   C52   A    
C6    H23   S    
C15   C19   A    
C49   C50   A    
Ba1   O1    S    
C11   O18   D    
C41   C42   A    
C7    O17   S    
C35   C36   A    
C23   H51   S    
O7    P4    S    
Ba1   P1    S    
C4    H18   S    
C29   C30   S    
C58   H8    S    
C27   C37   S    
C1    H20   S    
C57   H50   S    
O12   P1    S    
C9    H39   S    
C10   C11   A    
C34   H55   S    
C12   H30   S    
C36   N2    S    
C38   C39   A    
C2    N3    S    
O5    P4    S    
C8    H29   S    
O1    P1    D    
Ba2   O5    S    
O11   P5    S    
C61   H57   S    
C60   H13   S    
C40   C41   A    
C1    C2    S    
C1    H15   S    
C42   C43   A    
N4    H60   S    
C7    C8    S    
C32   P6    S    
Ba2   P4    S    
C35   C65   S    
C26   C27   S    
C14   C20   A    
C9    C32   A    
C34   O7    S    
Ba1   O8    S    
C30   N1    S    
Ba1   O12   S    
C2    O25   S    
C21   H32   S    
C37   H41   S    
C18   C25   A    
C25   N2    Am   
C25   O21   D    
C13   N1    Am   
C6    H25   S    
N3    C61   S    
C1    H10   S    
Ba1   O5    S    
C6    H24   S    
C59   H9    S    
C28   P4    S    
C3    C4    S    
C63   H66   S    
C58   H7    S    
C46   C47   A    
Ba1   Ba2   S    
N5    C63   S    
C31   C32   A    
C28   C37   D    
C31   H35   S    
C33   P1    S    
C12   C23   S    
C59   C60   S    
N6    C64   S    
O24   P1    S    
C2    H14   S    
Ba1   O22   S    
C44   H44   S    
C64   H69   S    
Ba2   O6    S    
C56   H5    S    
C8    H28   S    
N3    H56   S    
C18   C19   A    
C58   H6    S    
C47   C48   A    
C19   C22   A    
C10   C16   A    
C23   H21   S    
C20   C21   A    
C60   H12   S    
C31   C36   A    
C16   H36   S    
C3    H16   S    
O14   P7    D    
C45   H3    S    
O26   P2    D    
C17   H34   S    
O6    P8    S    
C63   H67   S    
Ba2   O9    S    
