data_mof_unit_11513.cif
_audit_creation_date              2012-12-10T18:58:11-0500
_audit_creation_method            fapswitch 2.2
_symmetry_space_group_name_H-M    P1
_symmetry_Int_Tables_number       1
_space_group_crystal_system       triclinic
_cell_length_a                    11.048804
_cell_length_b                    10.86744
_cell_length_c                    9.580288
_cell_angle_alpha                 90.828585
_cell_angle_beta                  102.894475
_cell_angle_gamma                 90.776108
_cell_volume                      1121.03502408

loop_
_atom_site_label
_atom_site_type_symbol
_atom_type_description
_atom_site_fract_x
_atom_site_fract_y
_atom_site_fract_z
_atom_type_partial_charge
C1    C     C_R   0.497662 0.262277 0.498210 0.826672
C2    C     C_R   0.502324 0.128585 0.496849 -0.149094
C3    C     C_R   0.493163 0.059353 0.368874 0.422109
C4    C     C_R   0.506942 0.932067 0.375002 -0.309884
C5    C     C_R   0.511877 0.870525 0.503537 -0.134730
C6    C     C_R   0.520726 0.939247 0.629686 0.041446
C7    C     C_3   0.439072 0.932275 0.734518 -0.489719
C8    C     C_3   0.433554 0.071524 0.729365 0.224099
C9    C     C_R   0.603552 0.535720 0.100699 0.245380
C10   C     C_R   0.402511 0.451228 0.046275 0.442300
C11   C     C_R   0.402325 0.453584 0.898547 -0.087060
C12   C     C_R   0.262861 0.497242 0.441740 0.856241
C13   C     C_R   0.603991 0.534635 0.953893 0.232539
C14   C     C_3   0.671189 0.655502 0.966651 -0.495724
C15   C     C_3   0.669529 0.657263 0.124954 -0.464363
C16   C     C_R   0.502646 0.737417 0.501447 0.823537
C17   C     C_R   0.737144 0.496508 0.557856 0.868427
C18   C     C_2   0.128004 0.485657 0.408976 -0.319706
C19   C     C_2   0.067855 0.476214 0.515374 -0.264528
C20   C     C_2   0.872507 0.491072 0.588714 -0.458074
C21   C     C_2   0.932896 0.461146 0.485545 0.471198
C22   C     C_R   0.516976 0.066604 0.626178 0.037332
Cu1   Cu    Cu3+1 0.499990 0.499980 0.640670 0.945009
Cu2   Cu    Cu3+1 0.500010 0.500020 0.359330 0.970072
H1    H     H_    0.476541 0.120643 0.831473 0.123780
H2    H     H_    0.323223 0.415803 0.821674 0.170934
H3    H     H_    0.766055 0.646728 0.946732 0.200975
H4    H     H_    0.614734 0.728632 0.905289 0.210824
H5    H     H_    0.763521 0.650440 0.196012 0.225667
H6    H     H_    0.611114 0.731155 0.154904 0.198144
H7    H     H_    0.117962 0.482614 0.626739 0.163507
H8    H     H_    0.923976 0.515371 0.696305 0.122875
H9    H     H_    0.078149 0.481989 0.297509 0.195707
H10   H     H_    0.499071 0.881414 0.275101 0.178113
H11   H     H_    0.348757 0.884463 0.689743 0.214327
H12   H     H_    0.489127 0.899265 0.840540 0.158136
N1    N     N_R   0.500780 0.500930 0.148120 -0.244234
N2    N     N_R   0.500790 0.500890 0.852210 -0.224577
O1    O     O_R   0.500000 0.319640 0.618810 -0.568978
O2    O     O_R   0.500010 0.319680 0.381230 -0.581082
O3    O     O_R   0.320680 0.500000 0.575130 -0.582642
O4    O     O_R   0.320690 0.500040 0.337550 -0.568037
O5    O     O_R   0.499990 0.680320 0.618770 -0.577386
O6    O     O_R   0.500000 0.680360 0.381190 -0.593130
O7    O     O_R   0.679310 0.499960 0.662450 -0.590164
O8    O     O_R   0.679320 0.500000 0.424870 -0.525057
O9    O     O_3   0.869217 0.425850 0.348701 -0.561078
C23   C     C_3   0.864151 0.296002 0.339860 0.086606
H13   H     H_    0.826087 0.255901 0.428095 0.128513
H14   H     H_    0.958352 0.258934 0.343973 0.145678
C24   C     C_3   0.779005 0.255624 0.198457 -0.756706
H15   H     H_    0.812246 0.295883 0.107529 0.235437
H16   H     H_    0.778041 0.153704 0.187921 0.200529
H17   H     H_    0.682868 0.286375 0.194612 0.267139
O10   O     O_3   0.301762 0.397199 0.083056 -0.746901
H18   H     H_    0.334773 0.350441 0.170106 0.368974
O11   O     O_3   0.455639 0.111840 0.236120 -0.580858
C25   C     C_3   0.325940 0.090417 0.187561 0.089672
H19   H     H_    0.274369 0.162399 0.232521 0.151968
H20   H     H_    0.293204 0.999143 0.218288 0.139466
C26   C     C_3   0.291687 0.093608 0.025339 -0.823560
H21   H     H_    0.330952 0.012281 0.980967 0.232277
H22   H     H_    0.189114 0.090753 0.987060 0.210036
H23   H     H_    0.329264 0.178459 0.986656 0.269910
O12   O     O_3   0.315337 0.113424 0.663128 -0.725174
H24   H     H_    0.261917 0.100491 0.732157 0.326896

loop_
_geom_bond_atom_site_label_1
_geom_bond_atom_site_label_2
_ccdc_geom_bond_type
C2    C22   A    
C11   N2    A    
C8    C22   S    
Cu1   Cu2   S    
C12   O3    A    
C10   O10   S    
C14   H3    S    
C26   H23   S    
Cu1   N2    S    
Cu2   O4    S    
C7    H12   S    
C16   O6    A    
O9    C23   S    
Cu1   O3    S    
O10   H18   S    
C24   H17   S    
Cu2   O8    S    
C1    O2    A    
C25   C26   S    
C9    N1    A    
C2    C3    A    
O11   C25   S    
C19   H7    S    
C7    C8    S    
C13   C14   S    
C20   C21   D    
C8    H1    S    
C16   O5    A    
C13   N2    A    
C6    C7    S    
C10   N1    A    
Cu1   O7    S    
C5    C6    A    
C3    O11   S    
C23   H14   S    
C23   H13   S    
C19   C21   S    
C17   O7    A    
C15   H5    S    
C4    H10   S    
O12   H24   S    
C9    C15   S    
C26   H21   S    
Cu2   O6    S    
C18   H9    S    
Cu1   O1    S    
Cu2   O2    S    
C10   C11   A    
C1    O1    A    
C24   H16   S    
C25   H20   S    
C24   H15   S    
C6    C22   A    
C8    O12   S    
C17   C20   S    
Cu1   O5    S    
C17   O8    A    
C15   H6    S    
Cu2   N1    S    
C1    C2    S    
C20   H8    S    
C12   C18   S    
C26   H22   S    
C9    C13   A    
C14   C15   S    
C18   C19   D    
C5    C16   S    
C12   O4    A    
C11   H2    S    
C14   H4    S    
C25   H19   S    
C7    H11   S    
C23   C24   S    
C3    C4    A    
C4    C5    A    
C21   O9    S    
