data_mof_unit_30884.cif
_audit_creation_date              2013-03-05T15:42:22-0500
_audit_creation_method            fapswitch 2.2
_symmetry_space_group_name_H-M    P1
_symmetry_Int_Tables_number       1
_space_group_crystal_system       triclinic
_cell_length_a                    16.894345
_cell_length_b                    16.743685
_cell_length_c                    19.403434
_cell_angle_alpha                 117.849879
_cell_angle_beta                  62.242637
_cell_angle_gamma                 100.917121
_cell_volume                      4291.75623508

loop_
_atom_site_label
_atom_site_type_symbol
_atom_site_description
_atom_site_fract_x
_atom_site_fract_y
_atom_site_fract_z
_atom_type_partial_charge
C1    C     C_R   0.022810 0.761616 0.029592 -0.126784
H1    H     H_    0.053566 0.811572 0.069146 0.092598
N1    N     N_R   0.036080 0.671900 0.995420 -0.039637
C2    C     C_R   0.748525 0.481003 0.172186 -0.125643
H2    H     H_    0.695133 0.455422 0.152997 0.119998
N2    N     N_R   0.834710 0.454650 0.119760 -0.045454
C3    C     C_R   0.816576 0.509957 0.912213 -0.138787
H3    H     H_    0.839761 0.531507 0.861608 0.084929
N3    N     N_R   0.867430 0.509300 0.948100 -0.038207
C4    C     C_R   0.013233 0.658894 0.240291 -0.147620
H4    H     H_    0.999327 0.627133 0.281864 0.091770
N4    N     N_R   0.003360 0.617250 0.167070 -0.039424
C5    C     C_R   0.749384 0.431276 0.988514 -0.138251
H5    H     H_    0.711004 0.380651 0.009052 0.096489
N5    N     N_R   0.825450 0.461270 0.995400 -0.040941
C6    C     C_R   0.079942 0.737873 0.164482 -0.137597
H6    H     H_    0.127330 0.779710 0.136433 0.084918
N6    N     N_R   0.045340 0.665280 0.119770 -0.038495
C7    C     C_R   0.828407 0.553056 0.247388 -0.133113
H7    H     H_    0.849699 0.597950 0.296772 0.099713
N7    N     N_R   0.883740 0.497640 0.167070 -0.042037
C8    C     C_R   0.943453 0.691974 0.952989 -0.128918
H8    H     H_    0.899460 0.677274 0.922570 0.092391
N8    N     N_R   0.987050 0.628910 0.948110 -0.039365
C9    C     C_R   0.963283 0.777065 0.005217 0.051788
C10   C     C_R   0.742728 0.546556 0.252373 0.071383
C11   C     C_R   0.741916 0.460133 0.935569 0.071776
C12   C     C_R   0.062268 0.735124 0.240581 0.077527
C13   C     C_R   0.261446 0.515360 0.959153 -0.123337
H9    H     H_    0.309438 0.543291 0.916286 0.094203
N9    N     N_R   0.174550 0.538730 0.004600 -0.041376
C14   C     C_R   0.978716 0.247251 0.827431 -0.125977
H10   H     H_    0.955620 0.193303 0.846746 0.091962
N10   N     N_R   0.954660 0.334720 0.880230 -0.040472
C15   C     C_R   0.159161 0.509607 0.758234 -0.146848
H11   H     H_    0.129186 0.494307 0.715148 0.087689
N11   N     N_R   0.116260 0.502360 0.832930 -0.037937
C16   C     C_R   0.024851 0.313414 0.076841 -0.126931
H12   H     H_    0.050830 0.331504 0.123486 0.097164
N12   N     N_R   0.012950 0.371090 0.051890 -0.040518
C17   C     C_R   0.946799 0.245106 0.001695 -0.134647
H13   H     H_    0.900678 0.199916 0.978582 0.084978
N13   N     N_R   0.963920 0.328100 0.004580 -0.038307
C18   C     C_R   0.237586 0.578514 0.834397 -0.143081
H14   H     H_    0.279248 0.626897 0.861836 0.086356
N14   N     N_R   0.165290 0.545350 0.880240 -0.038413
C19   C     C_R   0.194035 0.436813 0.036530 -0.117281
H15   H     H_    0.180747 0.391496 0.065444 0.094780
N15   N     N_R   0.132570 0.490700 0.051900 -0.040359
C20   C     C_R   0.047812 0.326587 0.751185 -0.130671
H16   H     H_    0.089466 0.347332 0.700672 0.096432
N16   N     N_R   0.996640 0.382750 0.832930 -0.040832
Ni1   Ni    Ni4+2 0.104370 0.604370 0.000010 0.211352
Ni2   Ni    Ni4+2 0.895630 0.395630 0.999990 0.209292
Ni3   Ni    Ni4+2 0.991920 0.505780 0.891500 0.211014
Ni4   Ni    Ni4+2 0.008080 0.494220 0.108500 0.215051
C21   C     C_R   0.275756 0.448732 0.975968 0.062341
C22   C     C_R   0.040212 0.240231 0.745994 0.069978
C23   C     C_R   0.236155 0.557075 0.756840 0.082849
C24   C     C_R   0.985295 0.232339 0.045411 0.052780
C25   C     C_R   0.066528 0.073316 0.671320 -0.256518
C26   C     C_R   0.086656 0.157373 0.668729 0.115251
C27   C     C_R   0.143475 0.160768 0.589544 -0.231231
C28   C     C_R   0.164855 0.082289 0.512182 0.080553
C29   C     C_R   0.131889 0.999701 0.514794 0.030324
C30   C     C_R   0.087446 0.994300 0.594629 0.152833
C31   C     C_R   0.210939 0.087107 0.432868 -0.228093
C32   C     C_R   0.215417 0.012826 0.355752 0.199024
C33   C     C_R   0.169998 0.933657 0.361023 0.029401
C34   C     C_R   0.134368 0.925273 0.439309 0.012243
C35   C     C_R   0.092471 0.845610 0.444570 0.161439
C36   C     C_R   0.058315 0.837392 0.522010 -0.202477
C37   C     C_R   0.055726 0.911659 0.596958 -0.208976
C38   C     C_R   0.152181 0.865954 0.292758 -0.256028
C39   C     C_R   0.099734 0.792764 0.302473 0.125694
C40   C     C_R   0.076821 0.779304 0.375514 -0.244383
H17   H     H_    0.027258 0.069046 0.732135 0.117534
H18   H     H_    0.164515 0.224768 0.586790 0.117545
H19   H     H_    0.238262 0.150983 0.432943 0.152194
H20   H     H_    0.172892 0.873728 0.234717 0.111469
H21   H     H_    0.039658 0.721448 0.382829 0.114714
H22   H     H_    0.027731 0.775738 0.526055 0.130916
H23   H     H_    0.023101 0.906245 0.657638 0.130373
C41   C     C_R   0.372874 0.637216 0.700261 -0.263372
C42   C     C_R   0.297755 0.589279 0.691753 0.108261
C43   C     C_R   0.286026 0.566491 0.617653 -0.222667
C44   C     C_R   0.353201 0.582356 0.548709 0.080689
C45   C     C_R   0.432341 0.622063 0.554350 0.052120
C46   C     C_R   0.440539 0.652838 0.631932 0.154274
C47   C     C_R   0.345580 0.551330 0.471597 -0.295815
C48   C     C_R   0.418310 0.552777 0.397224 0.344943
C49   C     C_R   0.499921 0.590490 0.401181 -0.140485
C50   C     C_R   0.505828 0.624729 0.480777 -0.011103
C51   C     C_R   0.587420 0.656341 0.485702 0.172829
C52   C     C_R   0.592682 0.693560 0.564757 -0.200654
C53   C     C_R   0.519259 0.692343 0.637801 -0.214755
C54   C     C_R   0.577828 0.590567 0.327768 0.172256
C55   C     C_R   0.661456 0.596263 0.329954 0.092422
C56   C     C_R   0.664916 0.639880 0.410030 -0.298727
H24   H     H_    0.382619 0.657245 0.757335 0.116283
H25   H     H_    0.227581 0.531385 0.610672 0.116730
H26   H     H_    0.285132 0.518828 0.467005 0.170051
H27   H     H_    0.728075 0.654213 0.414154 0.127184
H28   H     H_    0.655051 0.718889 0.568940 0.128227
H29   H     H_    0.525857 0.717230 0.697378 0.129061
C57   C     C_R   0.674516 0.432619 0.901844 0.124787
C58   C     C_R   0.362126 0.404555 0.940675 0.123897
C59   C     C_R   0.454239 0.330011 0.960175 -0.196401
C60   C     C_R   0.370424 0.348365 0.972828 -0.155896
C61   C     C_R   0.439225 0.429300 0.883907 -0.274792
C62   C     C_R   0.522371 0.417019 0.876291 0.187147
C63   C     C_R   0.529082 0.370637 0.918264 0.175574
C64   C     C_R   0.606750 0.375602 0.927467 -0.262901
C65   C     C_R   0.671399 0.470481 0.851965 -0.173564
C66   C     C_R   0.596119 0.461020 0.837656 -0.219652
H30   H     H_    0.609088 0.342732 0.962973 0.125452
H31   H     H_    0.723832 0.512452 0.828864 0.114473
H32   H     H_    0.458961 0.292385 0.990956 0.141795
H33   H     H_    0.592223 0.495749 0.804089 0.126367
H34   H     H_    0.312433 0.324255 0.013232 0.122769
H35   H     H_    0.434630 0.467972 0.854157 0.118690
C67   C     C_R   0.805999 0.191216 0.197028 0.047535
C68   C     C_R   0.923895 0.865741 0.033778 0.130960
C69   C     C_R   0.833405 0.954359 0.024353 -0.222006
C70   C     C_R   0.874926 0.872546 0.994680 -0.173607
C71   C     C_R   0.932163 0.943687 0.102410 -0.250994
C72   C     C_R   0.890691 0.026342 0.132839 0.153701
C73   C     C_R   0.839403 0.032290 0.094483 0.122174
C74   C     C_R   0.796050 0.116138 0.127857 0.133695
C75   C     C_R   0.857262 0.184981 0.233545 -0.198912
C76   C     C_R   0.899281 0.103003 0.201932 -0.223975
H36   H     H_    0.864040 0.243985 0.286789 0.138232
H37   H     H_    0.796383 0.955229 0.991887 0.139392
H38   H     H_    0.938411 0.099461 0.231635 0.135805
H39   H     H_    0.868131 0.814499 0.940875 0.113726
H40   H     H_    0.969282 0.940200 0.133826 0.116099
C77   C     C_3   0.263117 0.018445 0.269313 -0.375274
C78   C     C_3   0.323709 0.098734 0.267680 -0.873951
H41   H     H_    0.283232 0.163013 0.307040 0.258544
H42   H     H_    0.372815 0.101674 0.291809 0.261375
H43   H     H_    0.361351 0.090750 0.200090 0.253872
H44   H     H_    0.306171 0.956223 0.220174 0.193891
H45   H     H_    0.212385 0.020535 0.248838 0.186215
N17   N     N_R   0.411911 0.502713 0.316613 0.222739
O1    O     O_R   0.468056 0.435322 0.254737 -0.433984
O2    O     O_R   0.340281 0.511814 0.311507 -0.411934
C79   C     C_3   0.570429 0.603943 0.258193 -0.302639
C80   C     C_3   0.631017 0.677094 0.235833 -0.919345
H46   H     H_    0.619953 0.740738 0.295597 0.266359
H47   H     H_    0.702577 0.655057 0.201188 0.267471
H48   H     H_    0.615194 0.690743 0.192720 0.260381
H49   H     H_    0.583979 0.540273 0.198551 0.215605
H50   H     H_    0.501263 0.627297 0.282061 0.212558
C81   C     C_3   0.738444 0.129254 0.093009 -0.398008
C82   C     C_3   0.645811 0.091286 0.125893 -0.853612
H51   H     H_    0.650580 0.017709 0.105252 0.252089
H52   H     H_    0.611247 0.126340 0.197690 0.262888
H53   H     H_    0.605084 0.102284 0.099528 0.250316
H54   H     H_    0.729489 0.202573 0.114304 0.201649
H55   H     H_    0.771593 0.097936 0.021193 0.175433

loop_
_geom_bond_atom_site_label_1
_geom_bond_atom_site_label_2
_geom_bond_distance
_ccdc_geom_bond_type
C22   C26   1.470149 S    
C56   H27   1.080352 S    
C53   H29   1.083864 S    
C6    C12   1.385355 A    
C50   C51   1.410129 A    
C82   H52   1.111019 S    
C17   N13   1.344622 A    
C17   H13   1.079764 S    
C52   C53   1.388405 A    
C80   H48   1.110635 S    
C14   C22   1.390559 A    
C44   C45   1.404717 A    
C76   H38   1.083678 S    
C73   C74   1.423043 A    
C23   C42   1.472485 S    
C65   C66   1.389668 A    
N1    N8    1.382749 A    
C3    H3    1.080276 S    
C19   N15   1.340285 A    
C42   C43   1.405811 A    
C52   H28   1.083945 S    
N8    Ni3   1.824272 S    
C13   H9    1.076835 S    
C69   H37   1.080411 S    
C57   C65   1.405239 A    
C7    N7    1.335690 A    
C80   H47   1.108987 S    
N2    N7    1.382749 A    
C61   H35   1.080980 S    
C74   C81   1.511708 S    
C68   C70   1.404981 A    
C6    H6    1.079706 S    
C18   C23   1.385631 A    
C29   C34   1.399019 A    
C55   C56   1.399680 A    
C3    C11   1.383653 A    
C59   C60   1.389350 A    
C15   C23   1.385698 A    
C1    H1    1.079671 S    
C7    C10   1.391458 A    
C61   C62   1.387428 A    
C47   H26   1.084406 S    
N6    Ni1   1.856595 S    
C25   C30   1.391928 A    
N12   N13   1.382749 A    
C7    H7    1.076242 S    
C25   H17   1.081370 S    
C32   C33   1.422931 A    
N12   Ni4   1.824272 S    
C8    C9    1.398406 A    
C20   N16   1.335886 A    
C34   C35   1.411691 A    
N3    Ni3   1.862246 S    
C67   C74   1.401294 A    
N16   Ni3   1.825351 S    
C69   C73   1.408544 A    
C64   H30   1.080261 S    
C70   H39   1.081245 S    
C77   H45   1.111394 S    
C71   H40   1.082329 S    
C38   H20   1.077206 S    
C5    H5    1.079115 S    
C82   H53   1.110364 S    
C1    C9    1.399236 A    
C54   C79   1.529228 S    
C32   C77   1.526767 S    
C33   C34   1.415980 A    
N9    N15   1.363568 A    
C63   C64   1.386930 A    
C18   N14   1.335664 A    
C49   C54   1.419923 A    
C54   C55   1.417046 A    
C16   H12   1.080318 S    
C77   H44   1.111984 S    
C38   C39   1.404048 A    
C57   C64   1.403066 A    
C79   C80   1.531054 S    
C31   C32   1.408190 A    
C20   C22   1.386707 A    
C28   C31   1.399013 A    
C59   H32   1.083964 S    
C31   H19   1.081256 S    
C41   C42   1.402707 A    
N17   O2    1.301186 A    
C78   H41   1.110668 S    
C48   C49   1.424489 A    
C43   C44   1.397058 A    
N17   O1    1.301277 A    
C68   C71   1.405921 A    
C11   C57   1.466541 S    
C30   C37   1.399599 A    
C59   C63   1.398596 A    
C1    N1    1.343486 A    
C15   H11   1.079858 S    
C14   N10   1.339931 A    
C75   H36   1.081754 S    
C39   C40   1.401276 A    
N5    Ni2   1.817968 S    
C81   H55   1.109953 S    
C26   C27   1.404475 A    
C19   C21   1.389388 A    
N13   Ni2   1.816973 S    
C19   H15   1.075537 S    
C20   H16   1.076838 S    
C43   H25   1.081274 S    
C33   C38   1.403342 A    
N9    Ni1   1.817965 S    
C9    C68   1.488752 S    
C81   C82   1.527239 S    
N4    Ni4   1.825351 S    
C4    N4    1.335521 A    
C10   C55   1.476834 S    
C16   C24   1.387004 A    
C2    N2    1.339355 A    
C21   C58   1.466311 S    
C13   C21   1.387494 A    
N2    Ni2   1.856942 S    
C51   C52   1.400764 A    
C66   H33   1.083958 S    
C5    N5    1.332029 A    
C58   C61   1.402548 A    
C8    N8    1.342641 A    
C41   C46   1.389977 A    
C72   C73   1.420284 A    
C35   C40   1.388101 A    
C18   H14   1.079454 S    
C48   N17   1.434931 S    
C4    C12   1.382952 A    
C3    N3    1.338325 A    
C45   C50   1.403198 A    
C62   C63   1.410535 A    
C15   N11   1.339108 A    
C17   C24   1.387133 A    
C36   C37   1.390981 A    
C78   H43   1.110757 S    
C40   H21   1.080662 S    
N7    Ni4   1.862423 S    
C2    C10   1.392256 A    
N10   Ni2   1.856595 S    
C78   H42   1.111177 S    
N15   Ni4   1.862248 S    
C77   C78   1.531168 S    
N10   N16   1.363570 A    
C28   C29   1.404426 A    
C46   C53   1.398801 A    
C75   C76   1.393232 A    
N3    N5    1.363571 A    
C81   H54   1.113046 S    
C13   N9    1.332399 A    
C14   H10   1.074816 S    
C16   N12   1.344778 A    
N1    Ni1   1.816974 S    
C47   C48   1.400935 A    
C58   C60   1.404934 A    
C51   C56   1.383469 A    
C71   C72   1.404744 A    
N14   Ni1   1.856942 S    
C49   C50   1.420750 A    
C37   H23   1.083798 S    
C79   H49   1.105061 S    
C80   H46   1.110966 S    
C25   C26   1.402823 A    
C79   H50   1.110232 S    
C72   C76   1.403157 A    
C65   H31   1.080793 S    
C41   H24   1.080692 S    
C4    H4    1.079663 S    
C27   C28   1.393642 A    
N11   Ni3   1.862421 S    
C2    H2    1.073892 S    
C35   C36   1.401848 A    
C45   C46   1.411828 A    
C6    N6    1.337834 A    
C29   C30   1.411862 A    
C44   C47   1.397526 A    
N4    N6    1.363570 A    
C82   H51   1.109566 S    
C8    H8    1.079326 S    
C5    C11   1.382872 A    
C62   C66   1.398359 A    
N11   N14   1.382749 A    
C12   C39   1.472430 S    
C67   C75   1.392105 A    
C36   H22   1.083843 S    
C60   H34   1.080687 S    
C69   C70   1.396770 A    
C27   H18   1.081220 S    
