data_mof_unit_13119.cif
_audit_creation_date              2012-12-10T18:47:49-0500
_audit_creation_method            fapswitch 2.2
_symmetry_space_group_name_H-M    P1
_symmetry_Int_Tables_number       1
_space_group_crystal_system       triclinic
_cell_length_a                    9.861515
_cell_length_b                    10.64151
_cell_length_c                    15.534998
_cell_angle_alpha                 90.464423
_cell_angle_beta                  66.879052
_cell_angle_gamma                 90.315246
_cell_volume                      1499.2644554

loop_
_atom_site_label
_atom_site_type_symbol
_atom_type_description
_atom_site_fract_x
_atom_site_fract_y
_atom_site_fract_z
_atom_type_partial_charge
Br1   Br    Br    0.942175 0.590072 0.211854 -0.502973
Br2   Br    Br    0.081985 0.356754 0.772879 -0.517870
C1    C     C_R   0.498933 0.739721 0.502551 0.868050
C2    C     C_R   0.378979 0.939081 0.569593 0.467878
C3    C     C_R   0.500820 0.127866 0.495174 -0.242118
C4    C     C_R   0.499116 0.872163 0.504903 -0.240711
C5    C     C_R   0.963804 0.423825 0.439502 0.345662
C6    C     C_R   0.035974 0.575628 0.560859 0.339363
C7    C     C_R   0.108659 0.421297 0.441281 0.320008
C8    C     C_R   0.891192 0.578339 0.558985 0.311272
C9    C     C_R   0.406844 0.497237 0.676314 0.879300
C10   C     C_R   0.593261 0.500250 0.323425 0.876874
C11   C     C_R   0.347042 0.480367 0.777799 -0.127022
C12   C     C_R   0.501031 0.260286 0.497501 0.870603
C13   C     C_R   0.654087 0.498238 0.220719 -0.133338
C14   C     C_R   0.181124 0.383185 0.921126 -0.234803
C15   C     C_R   0.839256 0.545881 0.067316 -0.233118
C16   C     C_R   0.214674 0.415109 0.828008 0.257804
C17   C     C_R   0.798527 0.537422 0.163813 0.278314
C18   C     C_R   0.440180 0.514147 0.822173 -0.279721
C19   C     C_R   0.557449 0.461740 0.179209 -0.281373
C20   C     C_R   0.418000 0.467961 0.910474 0.096885
C21   C     C_R   0.595480 0.471652 0.083022 0.092553
C22   C     C_R   0.282914 0.406624 0.961954 0.117533
C23   C     C_R   0.354985 0.385203 0.092312 -0.187344
C24   C     C_R   0.737729 0.517751 0.027193 0.111239
C25   C     C_R   0.527418 0.480070 0.948026 0.074029
C26   C     C_R   0.492125 0.445196 0.042265 0.079683
C27   C     C_R   0.672608 0.521435 0.893320 -0.186689
C28   C     C_R   0.253046 0.365772 0.052352 -0.159100
C29   C     C_R   0.775871 0.538812 0.932381 -0.157413
C30   C     C_R   0.619536 0.932328 0.437354 -0.198901
C31   C     C_R   0.380410 0.067718 0.562738 -0.195093
C32   C     C_R   0.620925 0.060959 0.430466 0.468068
H1    H     H_    0.150494 0.317775 0.092387 0.169306
H2    H     H_    0.289973 0.121360 0.612650 0.211374
H3    H     H_    0.710036 0.201454 0.347254 0.350874
H4    H     H_    0.289663 0.798522 0.652680 0.350164
H5    H     H_    0.018160 0.339489 0.319563 0.337958
H6    H     H_    0.981094 0.657396 0.681697 0.331174
H7    H     H_    0.167322 0.263059 0.374240 0.333440
H8    H     H_    0.832143 0.735666 0.627282 0.336903
H9    H     H_    0.884997 0.572621 0.888570 0.178195
H10   H     H_    0.448343 0.432878 0.224633 0.205767
H11   H     H_    0.533330 0.573442 0.784420 0.192426
H12   H     H_    0.079025 0.333872 0.959966 0.180455
H13   H     H_    0.948683 0.579631 0.024021 0.178602
H14   H     H_    0.324805 0.347133 0.161420 0.159177
H15   H     H_    0.711575 0.538056 0.819131 0.168290
H16   H     H_    0.709990 0.878694 0.387449 0.201998
N1    N     N_R   0.142780 0.500030 0.500020 -0.112752
N2    N     N_R   0.857220 0.499970 0.499980 -0.114243
O1    O     O_R   0.385370 0.683250 0.500010 -0.568286
O2    O     O_3   0.261608 0.883835 0.640956 -0.712870
O3    O     O_3   0.927872 0.353374 0.376634 -0.689989
O4    O     O_3   0.071441 0.645022 0.624392 -0.694600
O5    O     O_3   0.215675 0.338574 0.386969 -0.737568
O6    O     O_3   0.783974 0.660648 0.613679 -0.734403
O7    O     O_R   0.614630 0.316750 0.499990 -0.568545
O8    O     O_R   0.614700 0.683220 0.500000 -0.564330
O9    O     O_R   0.385300 0.316780 0.500000 -0.561049
O10   O     O_R   0.319830 0.500020 0.632250 -0.546898
O11   O     O_R   0.680170 0.499980 0.367750 -0.545751
O12   O     O_R   0.549160 0.499990 0.632240 -0.574228
O13   O     O_R   0.450840 0.500010 0.367760 -0.577487
O14   O     O_3   0.738213 0.116212 0.359045 -0.717268
Zn1   Zn    Zn3+2 0.346870 0.500020 0.500000 1.078378
Zn2   Zn    Zn3+2 0.653130 0.499980 0.500000 1.078253

loop_
_geom_bond_atom_site_label_1
_geom_bond_atom_site_label_2
_ccdc_geom_bond_type
C4    C30   A    
C5    C7    A    
O7    Zn2   S    
C25   C27   A    
C19   H10   S    
C9    C11   S    
C10   O13   A    
O9    Zn1   S    
C18   H11   S    
C7    N1    A    
C10   C13   S    
C5    O3    S    
C27   C29   A    
C9    O10   A    
C8    N2    A    
C1    O8    A    
C6    O4    S    
H7    O5    S    
C24   C29   A    
C14   C22   A    
N1    Zn1   S    
C21   C26   A    
C3    C32   A    
C23   C26   A    
C13   C17   A    
C12   O7    A    
C1    O1    A    
C6    N1    A    
C30   H16   S    
C3    C12   S    
C29   H9    S    
O10   Zn1   S    
C30   C32   A    
C15   C24   A    
O12   Zn2   S    
C2    C4    A    
C32   O14   S    
C8    O6    S    
C18   C20   A    
C5    N2    A    
C7    O5    S    
C20   C25   A    
C19   C21   A    
H3    O14   S    
O1    Zn1   S    
C20   C22   A    
Br1   C17   S    
C22   C28   A    
Br2   C16   S    
C28   H1    S    
C13   C19   A    
C31   H2    S    
N2    Zn2   S    
O8    Zn2   S    
C14   C16   A    
C9    O12   A    
C1    C4    S    
C14   H12   S    
C25   C26   A    
C21   C24   A    
C10   O11   A    
C2    C31   A    
C23   C28   A    
O13   Zn1   S    
C27   H15   S    
H8    O6    S    
O11   Zn2   S    
C11   C18   A    
C15   C17   A    
C11   C16   A    
C2    O2    S    
C12   O9    A    
C23   H14   S    
C6    C8    A    
H5    O3    S    
C15   H13   S    
C3    C31   A    
H6    O4    S    
H4    O2    S    
