data_mof_unit_32755.cif
_audit_creation_date              2012-12-10T17:35:38-0500
_audit_creation_method            fapswitch 2.2
_symmetry_space_group_name_H-M    P1
_symmetry_Int_Tables_number       1
_space_group_crystal_system       triclinic
_cell_length_a                    10.743183
_cell_length_b                    12.31576
_cell_length_c                    13.156374
_cell_angle_alpha                 116.512323
_cell_angle_beta                  77.155263
_cell_angle_gamma                 101.59934
_cell_volume                      1508.30938658

loop_
_atom_site_label
_atom_site_type_symbol
_atom_type_description
_atom_site_fract_x
_atom_site_fract_y
_atom_site_fract_z
_atom_type_partial_charge
C1    C     C_R   0.508568 0.855136 0.286668 0.773412
C2    C     C_3   0.123837 0.996166 0.491741 0.021512
C3    C     C_3   0.050170 0.045987 0.615915 -0.487478
C4    C     C_3   0.062721 0.863638 0.424873 -0.369576
C5    C     C_R   0.366705 0.271967 0.034479 -0.264109
C6    C     C_R   0.462857 0.227302 0.837221 -0.094387
C7    C     C_R   0.569101 0.819466 0.082495 -0.193353
C8    C     C_R   0.586231 0.741945 0.966381 -0.155464
C9    C     C_R   0.548962 0.617117 0.929999 -0.184106
C10   C     C_R   0.487735 0.567485 0.009783 0.090812
C11   C     C_R   0.455183 0.649333 0.126229 0.077479
C12   C     C_R   0.740599 0.997145 0.495221 0.777062
C13   C     C_R   0.457889 0.439619 0.978493 0.072914
C14   C     C_R   0.390134 0.397099 0.061838 0.132561
C15   C     C_R   0.344049 0.479839 0.171254 -0.220609
C16   C     C_R   0.371545 0.603980 0.201434 -0.204474
C17   C     C_R   0.495484 0.352578 0.867529 -0.324822
C18   C     C_R   0.402616 0.186171 0.922863 0.259086
C19   C     C_R   0.507215 0.774065 0.163869 -0.105271
C20   C     C_R   0.671846 0.329740 0.303789 -0.318312
C21   C     C_R   0.330803 0.762341 0.650711 0.081600
C22   C     C_R   0.297447 0.668496 0.686961 -0.271150
C23   C     C_R   0.482948 0.144992 0.714081 0.813098
C24   C     C_R   0.361309 0.564318 0.630884 -0.205152
C25   C     C_R   0.459571 0.552506 0.536922 -0.008635
C26   C     C_R   0.491260 0.651830 0.503532 0.283277
C27   C     C_R   0.526611 0.445850 0.473972 -0.040963
C28   C     C_R   0.614195 0.436689 0.373469 0.179044
C29   C     C_R   0.644789 0.534601 0.343389 -0.286480
C30   C     C_R   0.589969 0.642078 0.410649 -0.188358
C31   C     C_R   0.510325 0.346494 0.504756 0.002998
C32   C     C_R   0.649682 0.234725 0.337380 0.041709
C33   C     C_R   0.260706 0.998063 0.496600 0.805704
C34   C     C_3   0.965063 0.086554 0.441285 0.330098
C35   C     C_3   0.109717 0.078134 0.432940 0.086164
C36   C     C_3   0.905608 0.036868 0.613922 -0.534576
C37   C     C_3   0.920664 0.862839 0.414925 0.099922
C38   C     C_3   0.880158 0.994942 0.489372 0.011993
Cu1   Cu    Cu3+1 0.529690 0.098270 0.475420 0.924160
Cu2   Cu    Cu3+1 0.470310 0.901730 0.524580 0.917143
H1    H     H_    0.943534 0.180302 0.506115 0.030733
H2    H     H_    0.063876 0.807458 0.471454 0.155394
H3    H     H_    0.851704 0.970881 0.649239 0.199849
H4    H     H_    0.064386 0.993470 0.661984 0.195782
H5    H     H_    0.286284 0.448767 0.234089 0.138099
H6    H     H_    0.319798 0.240360 0.099822 0.134158
H7    H     H_    0.549673 0.380089 0.802002 0.164835
H8    H     H_    0.606866 0.914898 0.108640 0.145534
H9    H     H_    0.567902 0.562804 0.838748 0.126690
H10   H     H_    0.632981 0.778242 0.904287 0.138517
H11   H     H_    0.324576 0.663100 0.284137 0.173882
H12   H     H_    0.690756 0.150585 0.282281 0.136898
H13   H     H_    0.714137 0.528905 0.268107 0.156244
H14   H     H_    0.732259 0.319319 0.223080 0.141260
H15   H     H_    0.445929 0.346378 0.580228 0.122613
H16   H     H_    0.281033 0.842951 0.695209 0.142236
H17   H     H_    0.330650 0.493729 0.661410 0.132924
H18   H     H_    0.221697 0.676532 0.758781 0.144799
H19   H     H_    0.628161 0.715288 0.386379 0.207214
H20   H     H_    0.153789 0.172766 0.482277 0.091497
H21   H     H_    0.870926 0.127338 0.671080 0.175134
H22   H     H_    0.087926 0.142991 0.664602 0.168401
H23   H     H_    0.859089 0.800226 0.451177 0.128159
H24   H     H_    0.122545 0.820403 0.340122 0.164024
N1    N     N_R   0.574690 0.246280 0.438200 -0.178859
N2    N     N_R   0.426100 0.754320 0.561190 -0.206626
O1    O     O_R   0.537340 0.972510 0.318130 -0.591544
O2    O     O_R   0.487200 0.806530 0.359650 -0.606745
O3    O     O_R   0.707380 0.082980 0.479220 -0.554631
O4    O     O_R   0.657240 0.917000 0.520740 -0.614927
O5    O     O_R   0.512800 0.193470 0.640350 -0.599773
O6    O     O_R   0.462660 0.027490 0.681870 -0.547399
O7    O     O_R   0.342760 0.083000 0.479260 -0.577887
O8    O     O_R   0.292620 0.917020 0.520780 -0.602780
N3    N     N_2   0.374273 0.059594 0.897566 -0.423145
H25   H     H_    0.287828 0.038221 0.941535 0.236379
C39   C     C_3   0.477900 0.007313 0.907183 -0.672079
H26   H     H_    0.495895 0.049180 0.997742 0.210434
H27   H     H_    0.567308 0.021962 0.851011 0.236162
H28   H     H_    0.451403 0.907423 0.879741 0.227702
O9    O     O_3   0.934403 0.063392 0.333130 -0.582199
C40   C     C_3   0.966919 0.169769 0.312354 0.088893
H29   H     H_    0.060142 0.221159 0.340272 0.138508
H30   H     H_    0.891755 0.232040 0.360725 0.139611
C41   C     C_3   0.977527 0.132944 0.183624 -0.319746
H31   H     H_    0.049927 0.067299 0.135887 0.225351
H32   H     H_    0.883724 0.086864 0.154360 0.205766
C42   C     C_3   0.018441 0.243738 0.155649 -0.967075
H33   H     H_    0.947468 0.310527 0.200859 0.255454
H34   H     H_    0.027047 0.214367 0.061621 0.261442
H35   H     H_    0.112468 0.289652 0.183410 0.252528
N4    N     N_2   0.173592 0.031691 0.313452 -0.404828
H36   H     H_    0.141851 0.947581 0.253331 0.289738
C43   C     C_3   0.282656 0.103087 0.276303 -0.663562
H37   H     H_    0.272650 0.096975 0.191737 0.203630
H38   H     H_    0.372405 0.065533 0.265980 0.257004
H39   H     H_    0.289769 0.200918 0.337924 0.217292
N5    N     N_2   0.901647 0.817836 0.295477 -0.378228
H40   H     H_    0.813473 0.831139 0.286828 0.259466
C44   C     C_3   0.934710 0.696042 0.217594 -0.732069
H41   H     H_    0.873602 0.653444 0.148409 0.224101
H42   H     H_    0.921044 0.636609 0.263476 0.218188
H43   H     H_    0.036256 0.701309 0.176103 0.237107

loop_
_geom_bond_atom_site_label_1
_geom_bond_atom_site_label_2
_ccdc_geom_bond_type
C2    C35   S    
C12   O3    A    
C18   N3    S    
C21   N2    A    
C16   H11   S    
C4    H2    S    
O9    C40   S    
C7    C8    A    
C39   H26   S    
C11   C19   A    
C37   C38   S    
Cu2   O4    S    
N4    H36   S    
C28   C29   A    
C3    H22   S    
C15   C16   A    
N5    H40   S    
C1    O2    A    
C34   C35   S    
C32   H12   S    
C8    C9    A    
C34   O9    S    
C9    C10   A    
C35   N4    S    
C41   H32   S    
Cu2   N2    S    
C21   C22   A    
Cu1   N1    S    
C34   H1    S    
C44   H42   S    
C37   N5    S    
C37   H23   S    
C39   H27   S    
C6    C18   A    
C3    H4    S    
C1    C19   S    
C27   C31   A    
C26   N2    A    
C23   O5    A    
C9    H9    S    
C24   C25   A    
C20   H14   S    
Cu1   Cu2   S    
C24   H17   S    
C5    C18   A    
C20   C28   A    
C43   H39   S    
C25   C26   A    
C41   H31   S    
C44   H43   S    
C35   H20   S    
C2    C4    S    
N3    H25   S    
C29   C30   A    
C11   C16   A    
C42   H35   S    
C30   H19   S    
N4    C43   S    
Cu1   O3    S    
C4    C37   S    
C43   H38   S    
N3    C39   S    
C5    C14   A    
C2    C33   S    
C33   O7    A    
C42   H34   S    
C26   C30   A    
C7    C19   A    
C22   C24   A    
C15   H5    S    
C36   H21   S    
C8    H10   S    
C20   C32   A    
C41   C42   S    
C31   N1    A    
C6    C17   A    
C12   O4    A    
Cu2   O6    S    
C34   C38   S    
Cu1   O1    S    
C23   O6    A    
C17   H7    S    
C10   C13   A    
C22   H18   S    
C21   H16   S    
C25   C27   A    
C40   C41   S    
C5    H6    S    
C4    H24   S    
C40   H30   S    
C13   C17   A    
C7    H8    S    
C36   C38   S    
C2    C3    S    
C39   H28   S    
C29   H13   S    
C3    C36   S    
C6    C23   S    
C44   H41   S    
C1    O1    A    
Cu2   O8    S    
Cu1   O7    S    
C12   C38   S    
C43   H37   S    
N5    C44   S    
C10   C11   A    
C33   O8    A    
C42   H33   S    
C40   H29   S    
Cu2   O2    S    
C27   C28   A    
Cu1   O5    S    
C14   C15   A    
C36   H3    S    
C31   H15   S    
C13   C14   A    
C32   N1    A    
