data_mof_unit_53870.cif
_audit_creation_date              2012-12-11T14:10:41-0500
_audit_creation_method            fapswitch 2.2
_symmetry_space_group_name_H-M    P1
_symmetry_Int_Tables_number       1
_space_group_crystal_system       triclinic
_cell_length_a                    6.962249
_cell_length_b                    14.758113
_cell_length_c                    16.405866
_cell_angle_alpha                 89.747083
_cell_angle_beta                  89.36949
_cell_angle_gamma                 89.356463
_cell_volume                      1685.47320573

loop_
_atom_site_label
_atom_site_type_symbol
_atom_type_description
_atom_site_fract_x
_atom_site_fract_y
_atom_site_fract_z
_atom_type_partial_charge
O1    O     O_R   0.505720 0.582850 0.414440 -0.538403
O2    O     O_R   0.175970 0.593740 0.584970 -0.541531
O3    O     O_R   0.005630 0.417150 0.585560 -0.544277
C1    C     C_R   0.343366 0.615222 0.613284 0.741651
O4    O     O_R   0.176010 0.593740 0.415050 -0.537953
O5    O     O_R   0.005680 0.417150 0.414430 -0.538338
C2    C     C_R   0.343003 0.615782 0.387455 0.736724
O6    O     O_R   0.505680 0.582850 0.585570 -0.542347
O7    O     O_3   0.339190 0.442060 0.500000 -0.374698
V1    V     V_3+5 0.064350 0.510750 0.500000 1.389082
O8    O     O_R   0.675960 0.406260 0.415030 -0.541197
C3    C     C_R   0.846849 0.386737 0.386596 0.740816
O9    O     O_R   0.675920 0.406260 0.584950 -0.539235
C4    C     C_R   0.843101 0.384618 0.612224 0.740918
V2    V     V_3+5 0.564340 0.489250 0.500000 1.387398
O10   O     O_3   0.839370 0.557940 0.500000 -0.373774
C5    C     C_2   0.753266 0.187210 0.763255 -0.220998
C6    C     C_2   0.907296 0.172918 0.811509 -0.079476
H1    H     H_    0.620654 0.152587 0.778554 0.123562
C7    C     C_2   0.753522 0.241997 0.686123 0.102300
C8    C     C_2   0.844399 0.323008 0.682421 -0.329717
H2    H     H_    0.916527 0.348590 0.735180 0.140418
C9    C     C_2   0.978561 0.259237 0.307102 -0.137789
C10   C     C_2   0.862362 0.332410 0.312776 -0.300407
C11   C     C_2   0.997136 0.200884 0.233313 -0.179083
C12   C     C_2   0.854502 0.180605 0.181045 -0.065737
H3    H     H_    0.135022 0.166677 0.225489 0.118982
C13   C     C_2   0.234943 0.805977 0.769599 0.078317
C14   C     C_2   0.382532 0.814101 0.822814 -0.377200
H4    H     H_    0.493585 0.761779 0.824327 0.120603
C15   C     C_2   0.211174 0.719183 0.723742 0.093677
C16   C     C_2   0.355125 0.689716 0.673603 -0.356639
H5    H     H_    0.489804 0.726342 0.673668 0.120742
C17   C     C_2   0.238417 0.749018 0.186858 0.090855
C18   C     C_2   0.397685 0.796893 0.165803 -0.085841
C19   C     C_2   0.239653 0.680377 0.255683 -0.137672
C20   C     C_2   0.342950 0.687841 0.324787 -0.296148
H6    H     H_    0.154410 0.619832 0.248167 0.115047
H7    H     H_    0.420832 0.748985 0.338098 0.111182
O11   O     O_R   0.230590 0.917060 0.914490 -0.534797
O12   O     O_R   0.560420 0.906240 0.084970 -0.548976
O13   O     O_R   0.730590 0.082870 0.085560 -0.539536
C21   C     C_R   0.393151 0.878594 0.108921 0.692959
O14   O     O_R   0.560310 0.906240 0.915050 -0.547026
O15   O     O_R   0.730490 0.082870 0.914420 -0.541473
C22   C     C_R   0.392420 0.885739 0.886026 0.734720
O16   O     O_R   0.230690 0.917070 0.085620 -0.535782
O17   O     O_3   0.397030 0.057890 0.000040 -0.368675
V3    V     V_3+5 0.671930 0.989260 0.999990 1.359170
O18   O     O_R   0.060200 0.093830 0.914980 -0.546510
C23   C     C_R   0.894650 0.112883 0.884799 0.719354
O19   O     O_R   0.060300 0.093830 0.084900 -0.544026
C24   C     C_R   0.887705 0.114973 0.113270 0.706210
V4    V     V_3+5 0.171920 0.010860 0.999920 1.374192
O20   O     O_3   0.896950 0.942110 0.999960 -0.376964
C25   C     C_3   0.021663 0.669743 0.734790 -0.327511
C26   C     C_3   0.048115 0.577434 0.776887 -0.295826
C27   C     C_3   0.854063 0.537231 0.800604 -0.792491
H8    H     H_    0.876478 0.471913 0.832978 0.211799
H9    H     H_    0.767221 0.525256 0.745363 0.230549
H10   H     H_    0.773519 0.583738 0.842002 0.223890
H11   H     H_    0.125054 0.529511 0.735724 0.194141
H12   H     H_    0.135075 0.585164 0.832784 0.192307
H13   H     H_    0.923063 0.711291 0.773486 0.161145
H14   H     H_    0.947226 0.662152 0.675846 0.184524
C28   C     C_3   0.076409 0.742675 0.126351 -0.392262
C29   C     C_3   0.143156 0.706957 0.042113 -0.280930
C30   C     C_3   0.981844 0.708230 0.979639 -0.749252
H15   H     H_    0.882257 0.766525 0.988985 0.243250
H16   H     H_    0.044518 0.713767 0.917446 0.219091
H17   H     H_    0.900054 0.644247 0.982993 0.203072
H18   H     H_    0.262430 0.748210 0.017251 0.183058
H19   H     H_    0.197103 0.636188 0.048236 0.170811
H20   H     H_    0.971449 0.694546 0.150475 0.187912
H21   H     H_    0.003689 0.809154 0.120480 0.196422
C31   C     C_3   0.592773 0.750979 0.181544 -0.332833
C32   C     C_3   0.606070 0.653034 0.146495 -0.287672
C33   C     C_3   0.688925 0.583343 0.206540 -0.750844
H22   H     H_    0.749085 0.524538 0.172389 0.200872
H23   H     H_    0.803848 0.612339 0.244344 0.216276
H24   H     H_    0.574192 0.557763 0.247619 0.230558
H25   H     H_    0.465891 0.627263 0.126476 0.193662
H26   H     H_    0.694969 0.653692 0.090358 0.176187
H27   H     H_    0.707284 0.790363 0.152764 0.153744
H28   H     H_    0.633173 0.753360 0.246242 0.174358
C34   C     C_3   0.108647 0.206894 0.788530 -0.317710
C35   C     C_3   0.169289 0.283665 0.845970 -0.298555
C36   C     C_3   0.323784 0.343324 0.807666 -0.790813
H29   H     H_    0.456402 0.303188 0.796550 0.241625
H30   H     H_    0.273780 0.372773 0.749120 0.226039
H31   H     H_    0.357530 0.399568 0.849717 0.215200
H32   H     H_    0.043788 0.327261 0.862394 0.181648
H33   H     H_    0.225161 0.254184 0.903604 0.201592
H34   H     H_    0.214967 0.150344 0.792841 0.154475
H35   H     H_    0.121919 0.226819 0.723643 0.181548
C37   C     C_3   0.638973 0.205595 0.615240 -0.326210
C38   C     C_3   0.767803 0.181578 0.541524 -0.295896
C39   C     C_3   0.650969 0.141217 0.472692 -0.789383
H36   H     H_    0.579398 0.078234 0.493606 0.223015
H37   H     H_    0.540639 0.190765 0.451687 0.230228
H38   H     H_    0.747599 0.124454 0.420467 0.220414
H39   H     H_    0.841104 0.242526 0.517477 0.179102
H40   H     H_    0.880365 0.132033 0.560056 0.190275
H41   H     H_    0.562666 0.143208 0.634811 0.160772
H42   H     H_    0.525861 0.255263 0.597490 0.185991
H43   H     H_    0.069571 0.241913 0.358383 0.126304
H44   H     H_    0.781418 0.357168 0.261543 0.139750
C40   C     C_3   0.646091 0.213717 0.192817 -0.306562
C41   C     C_3   0.597571 0.287705 0.129617 -0.312372
C42   C     C_3   0.402430 0.332016 0.146713 -0.777258
H45   H     H_    0.286802 0.281917 0.138694 0.236525
H46   H     H_    0.396007 0.359559 0.209618 0.231081
H47   H     H_    0.378563 0.388611 0.103020 0.212954
H48   H     H_    0.709077 0.340952 0.129046 0.184988
H49   H     H_    0.595908 0.257476 0.067678 0.197112
H50   H     H_    0.544732 0.156797 0.185417 0.170680
H51   H     H_    0.611706 0.234872 0.255843 0.179671
C43   C     C_3   0.084203 0.881169 0.759530 -0.302166
C44   C     C_3   0.005748 0.888862 0.672555 -0.341855
C45   C     C_3   0.865919 0.968751 0.665303 -0.792524
H52   H     H_    0.744406 0.961165 0.709204 0.229297
H53   H     H_    0.941046 0.033097 0.677713 0.231929
H54   H     H_    0.807457 0.971552 0.602647 0.224126
H55   H     H_    0.126617 0.898418 0.628608 0.198239
H56   H     H_    0.928005 0.826594 0.655851 0.195053
H57   H     H_    0.963831 0.869435 0.803265 0.175816
H58   H     H_    0.148703 0.947850 0.773358 0.171198

loop_
_geom_bond_atom_site_label_1
_geom_bond_atom_site_label_2
_ccdc_geom_bond_type
O14   V3    S    
C35   C36   S    
C1    O6    A    
C17   C28   S    
C38   C39   S    
C26   H11   S    
C44   H55   S    
C45   H52   S    
O17   V4    S    
C6    C34   S    
C4    C8    S    
C19   C20   D    
C29   H18   S    
O13   C24   A    
O5    C3    A    
C33   H23   S    
O15   C23   A    
C27   H9    S    
C25   H14   S    
C28   H20   S    
C5    C7    S    
C40   C41   S    
C17   C18   D    
C43   C44   S    
C34   H34   S    
C42   H45   S    
O8    V2    S    
O19   V4    S    
C30   H15   S    
C9    C10   D    
C25   H13   S    
C29   H19   S    
C15   C25   S    
C18   C21   S    
O7    V1    S    
C38   H39   S    
C45   H54   S    
C32   C33   S    
C27   H10   S    
C28   C29   S    
C7    C37   S    
O9    C4    A    
O12   C21   A    
C31   H27   S    
O12   V3    S    
O14   C22   A    
C6    C23   S    
C26   H12   S    
C20   H7    S    
C18   C31   S    
C29   C30   S    
C31   C32   S    
C12   C40   S    
O4    C2    A    
C34   C35   S    
O18   C23   A    
C27   H8    S    
V3    O20   S    
C9    H43   S    
O2    C1    A    
C14   H4    S    
C15   C16   D    
C36   H31   S    
O15   V3    S    
O8    C3    A    
C37   C38   S    
C5    C6    D    
C2    C20   S    
C10   H44   S    
C38   H40   S    
C36   H29   S    
C42   H47   S    
C1    C16   S    
O3    C4    A    
C41   H48   S    
O16   V4    S    
O1    V2    S    
C44   H56   S    
O17   V3    S    
C36   H30   S    
O6    V2    S    
O11   V4    S    
C37   H41   S    
C43   H58   S    
O11   C22   A    
O2    V1    S    
C12   C24   S    
C35   H32   S    
O19   C24   A    
C45   H53   S    
C37   H42   S    
C25   C26   S    
V4    O20   S    
C13   C14   D    
O1    C2    A    
C40   H51   S    
C13   C15   S    
O5    V1    S    
C44   C45   S    
C11   H3    S    
C39   H38   S    
C3    C10   S    
C39   H37   S    
C14   C22   S    
C16   H5    S    
C40   H50   S    
O9    V2    S    
C11   C12   D    
O4    V1    S    
O18   V4    S    
O3    V1    S    
V1    O10   S    
C41   C42   S    
C33   H22   S    
C33   H24   S    
C26   C27   S    
C32   H25   S    
C30   H17   S    
C28   H21   S    
C35   H33   S    
C19   H6    S    
C5    H1    S    
C17   C19   S    
C9    C11   S    
O7    V2    S    
C42   H46   S    
C34   H35   S    
C41   H49   S    
O13   V3    S    
C7    C8    D    
C30   H16   S    
C39   H36   S    
C32   H26   S    
C13   C43   S    
C43   H57   S    
C8    H2    S    
C21   O16   A    
C31   H28   S    
V2    O10   S    
