data_mof_unit_17087.cif
_audit_creation_date              2012-10-26T18:56:24-0400
_audit_creation_method            fapswitch 2.2
_symmetry_space_group_name_H-M    P1
_symmetry_Int_Tables_number       1
_space_group_crystal_system       triclinic
_cell_length_a                    10.668691
_cell_length_b                    10.668439
_cell_length_c                    9.514358
_cell_angle_alpha                 89.469669
_cell_angle_beta                  89.595357
_cell_angle_gamma                 89.445826
_cell_volume                      1082.78448781

loop_
_atom_site_label
_atom_site_type_symbol
_atom_type_description
_atom_site_fract_x
_atom_site_fract_y
_atom_site_fract_z
_atom_type_partial_charge
C1    C     C_R   0.498839 0.259948 0.499971 0.602200
C2    C     C_3   0.385865 0.501517 0.052490 -0.015399
C3    C     C_R   0.260275 0.502854 0.500556 0.589958
C4    C     C_R   0.739924 0.497408 0.499515 0.591717
C5    C     C_3   0.046571 0.392382 0.455856 0.061797
C6    C     C_3   0.954238 0.608039 0.544899 0.062315
C7    C     C_3   0.962881 0.480970 0.370176 0.075292
C8    C     C_3   0.038062 0.519535 0.630411 0.071255
C9    C     C_3   0.876366 0.495978 0.498782 0.047699
C10   C     C_3   0.124214 0.504463 0.501713 0.042054
C11   C     C_3   0.960428 0.405123 0.586653 -0.053389
C12   C     C_R   0.501831 0.740266 0.499598 0.595194
C13   C     C_3   0.040384 0.595448 0.414183 -0.065629
C14   C     C_3   0.606243 0.041454 0.553121 0.217419
C15   C     C_3   0.396150 0.959713 0.443221 0.263928
C16   C     C_3   0.599832 0.959422 0.421287 -0.114823
C17   C     C_3   0.402519 0.041405 0.575483 -0.091483
C18   C     C_3   0.503084 0.877403 0.499010 -0.021413
C19   C     C_3   0.499072 0.123233 0.498282 -0.007133
C20   C     C_3   0.511780 0.958230 0.632016 -0.144471
C21   C     C_3   0.491014 0.043087 0.364816 -0.103259
C22   C     C_3   0.556910 0.596581 0.046885 0.346695
C23   C     C_3   0.442928 0.403422 0.953399 0.347369
C24   C     C_3   0.444438 0.596619 0.950203 0.146774
C25   C     C_3   0.555203 0.403095 0.050045 0.139571
C26   C     C_3   0.614252 0.498122 0.947680 -0.032487
Cu1   Cu    Cu3+1 0.500030 0.499990 0.643150 1.109657
Cu2   Cu    Cu3+1 0.499970 0.500010 0.356850 1.101805
H1    H     H_    0.930100 0.329335 0.659328 0.221999
H2    H     H_    0.893267 0.364724 0.223146 0.230837
H3    H     H_    0.000307 0.551895 0.836503 0.233734
H4    H     H_    0.124791 0.629485 0.772684 0.260089
H5    H     H_    0.026968 0.218969 0.373267 0.289403
H6    H     H_    0.153733 0.295906 0.315705 0.263666
H7    H     H_    0.975164 0.778522 0.633001 0.299086
H8    H     H_    0.844679 0.703905 0.682949 0.246635
H9    H     H_    0.783534 0.937026 0.746172 0.347490
H10   H     H_    0.101162 0.990342 0.253773 0.376800
H11   H     H_    0.321611 0.741624 0.972551 0.261035
H12   H     H_    0.071270 0.671655 0.342366 0.206614
H13   H     H_    0.444570 0.772442 0.869471 0.266579
H14   H     H_    0.661837 0.246040 0.026072 0.255040
H15   H     H_    0.685435 0.321948 0.176565 0.255055
H16   H     H_    0.767008 0.859869 0.994239 0.370913
H17   H     H_    0.478126 0.102968 0.947917 0.366609
H18   H     H_    0.682579 0.925331 0.361046 0.214224
H19   H     H_    0.319952 0.075548 0.636007 0.226880
H20   H     H_    0.526101 0.925770 0.741464 0.168688
H21   H     H_    0.480774 0.079211 0.255632 0.206678
H22   H     H_    0.710117 0.495693 0.901574 0.146325
H23   H     H_    0.290056 0.503895 0.098775 0.140629
H24   H     H_    0.001112 0.464449 0.161927 0.238844
N1    N     N_3   0.500090 0.499970 0.858290 -0.272124
N2    N     N_3   0.499910 0.500030 0.141710 -0.279086
N3    N     N_3   0.922131 0.457822 0.227074 -0.565235
N4    N     N_3   0.080186 0.542709 0.773089 -0.553875
N5    N     N_3   0.100741 0.275155 0.405600 -0.531971
N6    N     N_3   0.901011 0.725281 0.595846 -0.551882
N7    N     N_3   0.377774 0.704678 0.892321 -0.558230
N8    N     N_3   0.615959 0.291806 0.108571 -0.578094
O1    O     O_R   0.500060 0.316850 0.620870 -0.409197
O2    O     O_2   0.721526 0.193796 0.735382 -0.276180
O3    O     O_3   0.839233 0.985209 0.682604 -0.468806
O4    O     O_2   0.280642 0.802297 0.267542 -0.283357
O5    O     O_2   0.171129 0.858266 0.486605 -0.311812
O6    O     O_3   0.181845 0.025042 0.285534 -0.482578
O7    O     O_2   0.544429 0.833567 0.138738 -0.299791
O8    O     O_2   0.725199 0.706423 0.217238 -0.255218
O9    O     O_3   0.721865 0.785876 0.959122 -0.586092
O10   O     O_2   0.283930 0.221474 0.027911 -0.284897
O11   O     O_2   0.275044 0.292037 0.783479 -0.226711
O12   O     O_R   0.499940 0.683150 0.379130 -0.408769
O13   O     O_3   0.465112 0.153126 0.861025 -0.517373
O14   O     O_R   0.500000 0.316860 0.379090 -0.504802
O15   O     O_R   0.500000 0.683140 0.620910 -0.512778
O16   O     O_R   0.316880 0.499960 0.620870 -0.440248
O17   O     O_R   0.683120 0.500040 0.379130 -0.457815
O18   O     O_R   0.316830 0.499970 0.379090 -0.525562
O19   O     O_R   0.683170 0.500030 0.620910 -0.525331
O20   O     O_2   0.815933 0.166878 0.501663 -0.310564
S1    S     S_3+6 0.748515 0.101906 0.620114 0.025264
S2    S     S_3+6 0.253742 0.905780 0.369755 0.029498
S3    S     S_3+6 0.637953 0.734230 0.097603 0.008120
S4    S     S_3+6 0.361083 0.265631 0.904526 0.058432

loop_
_geom_bond_atom_site_label_1
_geom_bond_atom_site_label_2
_ccdc_geom_bond_type
C15   C18   S    
O7    S3    D    
C16   C21   S    
C6    N6    S    
C7    N3    S    
Cu2   O14   S    
C8    N4    S    
C6    C9    S    
C21   H21   S    
C22   N2    S    
O3    S1    S    
H7    N6    S    
C1    O14   A    
C19   C21   S    
C5    C11   S    
Cu1   O19   S    
C26   H22   S    
C17   C20   S    
H17   O13   S    
C13   H12   S    
C7    C13   S    
Cu1   O1    S    
C24   N7    S    
H10   O6    S    
H6    N5    S    
C25   N8    S    
H3    N4    S    
Cu2   O18   S    
O13   S4    S    
C18   C20   S    
H24   N3    S    
C12   O12   A    
Cu2   O12   S    
Cu1   O15   S    
H9    O3    S    
C23   N1    S    
C15   S2    S    
C1    C19   S    
C23   S4    S    
C14   C20   S    
C25   N2    S    
H13   N7    S    
C4    O19   A    
C2    N2    S    
C16   H18   S    
C5    C7    S    
Cu2   N2    S    
C6    C8    S    
C24   N1    S    
O9    S3    S    
O6    S2    S    
C15   C21   S    
H11   N7    S    
H16   O9    S    
Cu2   O17   S    
C9    C11   S    
O4    S2    D    
C20   H20   S    
H15   N8    S    
C16   C18   S    
O2    S1    D    
C2    C24   S    
C14   C16   S    
H14   N8    S    
Cu1   O16   S    
C26   N1    S    
C2    C23   S    
O10   S4    D    
O11   S4    D    
C7    C9    S    
H5    N5    S    
O8    S3    D    
C14   C19   S    
C17   H19   S    
O20   S1    D    
C10   C13   S    
C1    O1    A    
Cu1   N1    S    
C15   C17   S    
H2    N3    S    
H8    N6    S    
C5    N5    S    
C22   S3    S    
C25   C26   S    
C5    C10   S    
C3    C10   S    
C6    C13   S    
O5    S2    D    
C8    C11   S    
C17   C19   S    
C22   C24   S    
C23   C25   S    
C2    H23   S    
C4    O17   A    
C11   H1    S    
C8    C10   S    
C22   C26   S    
C12   O15   A    
C12   C18   S    
Cu1   Cu2   S    
C3    O16   A    
C14   S1    S    
C4    C9    S    
C3    O18   A    
H4    N4    S    
