data_mof_unit_45752.cif
_audit_creation_date              2013-03-05T15:41:55-0500
_audit_creation_method            fapswitch 2.2
_symmetry_space_group_name_H-M    P1
_symmetry_Int_Tables_number       1
_space_group_crystal_system       triclinic
_cell_length_a                    23.526626
_cell_length_b                    8.74393
_cell_length_c                    7.563928
_cell_angle_alpha                 103.367225
_cell_angle_beta                  95.433921
_cell_angle_gamma                 93.433663
_cell_volume                      1501.67371889

loop_
_atom_site_label
_atom_site_type_symbol
_atom_site_description
_atom_site_fract_x
_atom_site_fract_y
_atom_site_fract_z
_atom_type_partial_charge
O1    O     O_R   0.504120 0.286130 0.619770 -0.576873
O2    O     O_R   0.495880 0.713870 0.380230 -0.538755
O3    O     O_R   0.493410 0.256770 0.308360 -0.601035
O4    O     O_R   0.506590 0.743230 0.691640 -0.627164
C1    C     C_R   0.496895 0.199765 0.453445 0.766834
C2    C     C_R   0.504155 0.800293 0.546366 0.842556
O5    O     O_R   0.423230 0.514630 0.655730 -0.586736
O6    O     O_R   0.576770 0.485370 0.344270 -0.522509
O7    O     O_R   0.412530 0.485280 0.344320 -0.512812
O8    O     O_R   0.587470 0.514720 0.655680 -0.553574
C3    C     C_R   0.391484 0.496860 0.499290 0.930594
C4    C     C_R   0.608651 0.503675 0.500304 0.943474
Cu1   Cu    Cu3+1 0.506340 0.517380 0.684380 1.064804
Cu2   Cu    Cu3+1 0.493660 0.482620 0.315620 1.124522
C5    C     C_R   0.886887 0.632694 0.541147 0.672626
C6    C     C_R   0.110990 0.362452 0.391546 0.664825
N1    N     N_R   0.852699 0.494932 0.517662 -0.459423
N2    N     N_R   0.147729 0.483479 0.498556 -0.446864
C7    C     C_R   0.877385 0.354685 0.496868 0.665561
C8    C     C_R   0.126557 0.604426 0.617480 0.657271
C9    C     C_R   0.934979 0.348028 0.462218 -0.165203
C10   C     C_R   0.067009 0.619501 0.609321 -0.160200
C11   C     C_R   0.970831 0.488964 0.519305 -0.099938
C12   C     C_R   0.030296 0.485748 0.517457 -0.081099
C13   C     C_R   0.946876 0.633323 0.576565 -0.171466
C14   C     C_R   0.052996 0.348759 0.422959 -0.165544
C15   C     C_R   0.957677 0.206499 0.378634 0.300351
C16   C     C_R   0.043112 0.761483 0.688837 0.282174
C17   C     C_R   0.016708 0.207223 0.355966 0.280705
C18   C     C_R   0.983097 0.771108 0.663096 0.290970
O9    O     O_2   0.863284 0.766306 0.525473 -0.385379
O10   O     O_2   0.129899 0.259968 0.251711 -0.419779
O11   O     O_2   0.847044 0.224279 0.514736 -0.418347
O12   O     O_2   0.163064 0.707740 0.743173 -0.474946
C19   C     C_R   0.242259 0.624582 0.487690 0.376269
C20   C     C_R   0.753946 0.387219 0.378332 0.385842
C21   C     C_R   0.302193 0.630840 0.515735 0.326682
C22   C     C_R   0.694546 0.385044 0.380576 0.316593
C23   C     C_R   0.329282 0.491031 0.496377 -0.316567
C24   C     C_R   0.671005 0.504684 0.501875 -0.322190
C25   C     C_R   0.296453 0.346328 0.466962 0.296014
C26   C     C_R   0.706647 0.621103 0.631039 0.302363
C27   C     C_R   0.237786 0.345036 0.485967 0.407640
C28   C     C_R   0.766532 0.610632 0.646826 0.382391
C29   C     C_R   0.209163 0.483819 0.489132 -0.045393
C30   C     C_R   0.790899 0.496921 0.515111 -0.041678
C31   C     C_2   0.488068 0.030992 0.433911 0.190249
C32   C     C_2   0.514072 0.968943 0.564663 0.203379
N3    N     N_2   0.484110 0.456420 0.038520 0.024746
N4    N     N_2   0.515890 0.543580 0.961480 0.010901
N5    N     N_R   0.920276 0.065662 0.302624 0.201419
O13   O     O_R   0.876467 0.068154 0.184978 -0.275443
O14   O     O_R   0.932026 0.932400 0.339952 -0.282351
N6    N     N_R   0.079151 0.896256 0.794015 0.195152
O15   O     O_R   0.088806 0.018142 0.727067 -0.299546
O16   O     O_R   0.104428 0.894854 0.954136 -0.255431
N7    N     N_R   0.039672 0.062459 0.273765 0.195227
O17   O     O_R   0.013388 0.970803 0.124745 -0.260100
O18   O     O_R   0.082852 0.012774 0.358657 -0.266648
N8    N     N_R   0.958962 0.914495 0.745373 0.203316
O19   O     O_R   0.977420 0.049253 0.717818 -0.280458
O20   O     O_R   0.919255 0.911399 0.853174 -0.247484
O21   O     O_3   0.216704 0.759836 0.471896 -0.535805
C33   C     C_3   0.203407 0.753249 0.284566 -0.065868
H1    H     H_    0.171029 0.653377 0.218439 0.145343
H2    H     H_    0.242548 0.744839 0.211894 0.155852
H3    H     H_    0.184654 0.863940 0.271157 0.263418
O22   O     O_3   0.775206 0.272119 0.249425 -0.500947
C34   C     C_3   0.786509 0.334444 0.099671 -0.165212
H4    H     H_    0.822459 0.428374 0.139837 0.125882
H5    H     H_    0.747475 0.378481 0.039812 0.153408
H6    H     H_    0.799987 0.238990 0.991631 0.232522
O23   O     O_3   0.334698 0.773278 0.551833 -0.570947
C35   C     C_3   0.336972 0.842636 0.740681 -0.269116
H7    H     H_    0.371283 0.940664 0.777954 0.169868
H8    H     H_    0.347696 0.758237 0.826328 0.184780
H9    H     H_    0.295770 0.892264 0.773567 0.219649
O24   O     O_3   0.659231 0.269956 0.255043 -0.547664
C36   C     C_3   0.650643 0.138787 0.331270 -0.218992
H10   H     H_    0.618941 0.051196 0.237167 0.170803
H11   H     H_    0.632857 0.171906 0.464861 0.173037
H12   H     H_    0.691079 0.081072 0.347064 0.217027
O25   O     O_3   0.318967 0.206217 0.393875 -0.543434
C37   C     C_3   0.345923 0.148218 0.535286 -0.120685
H13   H     H_    0.318193 0.144197 0.645374 0.170249
H14   H     H_    0.387240 0.216902 0.591245 0.156867
H15   H     H_    0.355747 0.026657 0.475622 0.256345
O26   O     O_3   0.682626 0.756487 0.716433 -0.551280
C38   C     C_3   0.690869 0.782469 0.908435 -0.069782
H16   H     H_    0.691534 0.671470 0.956302 0.159826
H17   H     H_    0.654684 0.845736 0.964563 0.184491
H18   H     H_    0.730269 0.861630 0.964973 0.212354
O27   O     O_3   0.209161 0.205469 0.496931 -0.509454
C39   C     C_3   0.201996 0.213039 0.681935 -0.108626
H19   H     H_    0.163784 0.276245 0.720531 0.182982
H20   H     H_    0.240258 0.269865 0.778451 0.106628
H21   H     H_    0.195111 0.090915 0.698754 0.253813
O28   O     O_3   0.801124 0.722948 0.778365 -0.493615
C40   C     C_3   0.822220 0.654073 0.919948 -0.202133
H22   H     H_    0.845562 0.548564 0.869433 0.137542
H23   H     H_    0.787044 0.623813 0.996474 0.099386
H24   H     H_    0.852840 0.741635 0.018323 0.270211
O29   O     O_3   0.442843 0.945065 0.313082 -0.594925
C41   C     C_3   0.455118 0.929526 0.131478 -0.173540
H25   H     H_    0.501259 0.917249 0.115796 0.146331
H26   H     H_    0.439729 0.029527 0.078656 0.189135
H27   H     H_    0.431351 0.820637 0.045782 0.207501
O30   O     O_3   0.561361 0.052385 0.677765 -0.604247
C42   C     C_3   0.552257 0.071405 0.862512 -0.181660
H28   H     H_    0.563868 0.965901 0.910877 0.166456
H29   H     H_    0.507750 0.099326 0.887551 0.145635
H30   H     H_    0.581257 0.172337 0.944999 0.248348
N9    N     N_R   0.428154 0.418104 0.958767 0.249255
O31   O     O_R   0.392349 0.526914 0.982159 -0.373580
O32   O     O_R   0.407518 0.272293 0.930365 -0.443677
N10   N     N_R   0.571223 0.582326 0.046682 0.249662
O33   O     O_R   0.610412 0.485158 0.006579 -0.360261
O34   O     O_R   0.585614 0.723124 0.149106 -0.443669

loop_
_geom_bond_atom_site_label_1
_geom_bond_atom_site_label_2
_geom_bond_distance
_ccdc_geom_bond_type
N3    N9    1.382935 S    
O27   C39   1.412160 S    
C15   C17   1.415176 A    
O23   C35   1.411442 S    
C37   H15   1.101938 S    
C41   H26   1.107851 S    
C23   C25   1.402562 A    
O30   C42   1.407050 S    
O5    C3    1.309910 A    
C1    C31   1.448938 S    
C2    C32   1.451385 S    
O1    C1    1.298748 A    
C19   C21   1.401770 A    
C37   H14   1.104241 S    
C34   H4    1.111289 S    
C42   H29   1.112980 S    
N7    O18   1.300518 A    
Cu2   N3    2.044176 S    
C25   O25   1.380981 S    
N10   O33   1.300604 A    
N8    O20   1.299914 A    
O4    Cu1   1.962487 S    
C34   H5    1.113912 S    
C27   O27   1.381534 S    
C28   O28   1.384140 S    
O25   C37   1.401551 S    
C28   C30   1.424161 A    
O22   C34   1.405662 S    
C35   H9    1.111732 S    
C18   N8    1.439813 S    
C31   C32   1.349086 D    
C11   C12   1.402317 A    
C20   C30   1.420286 A    
C38   H17   1.107823 S    
N4    N10   1.382794 S    
C8    O12   1.346447 S    
C24   C26   1.405921 A    
C9    C15   1.413393 A    
C10   C16   1.421787 A    
Cu1   Cu2   2.720472 S    
C25   C27   1.400805 A    
O2    C2    1.298098 A    
C26   C28   1.412894 A    
C41   H25   1.111976 S    
C15   N5    1.438178 S    
C6    C14   1.409739 A    
N6    O16   1.300766 A    
C31   O29   1.390845 S    
C35   H7    1.108191 S    
C17   N7    1.436102 S    
N5    O13   1.300983 A    
C33   H3    1.108953 S    
N1    C30   1.453443 S    
O4    C2    1.305646 A    
C7    O11   1.349081 S    
C42   H30   1.107384 S    
C36   H11   1.113249 S    
C16   N6    1.435136 S    
O24   C36   1.410245 S    
C22   O24   1.383181 S    
C39   H21   1.108470 S    
Cu1   N4    2.044176 S    
N8    O19   1.299941 A    
N5    O14   1.299936 A    
C33   H2    1.113939 S    
C4    C24   1.465402 S    
C34   H6    1.109243 S    
C39   H20   1.115526 S    
O7    Cu2   1.942248 S    
C27   C29   1.419215 A    
C40   H22   1.111820 S    
O6    C4    1.308337 A    
C37   H13   1.110813 S    
C38   H18   1.110151 S    
C3    C23   1.459145 S    
O7    C3    1.300185 A    
O3    Cu2   1.962487 S    
O8    C4    1.305015 A    
C40   H23   1.106904 S    
C8    C10   1.411884 A    
O28   C40   1.410398 S    
C9    C11   1.406059 A    
C10   C12   1.409328 A    
O1    Cu1   1.963614 S    
C35   H8    1.113710 S    
C19   C29   1.419271 A    
N2    C29   1.453679 S    
N9    O31   1.300962 A    
C13   C18   1.418751 A    
C5    N1    1.373847 A    
C21   O23   1.378284 S    
N6    O15   1.298538 A    
O6    Cu2   1.944846 S    
C7    C9    1.406331 A    
C12   C14   1.408521 A    
O21   C33   1.408930 S    
O3    C1    1.303945 A    
O8    Cu1   1.942248 S    
C36   H12   1.112582 S    
C20   O22   1.383003 S    
C5    O9    1.347821 S    
C6    O10   1.348436 S    
C33   H1    1.113202 S    
C16   C18   1.417157 A    
C21   C23   1.396519 A    
C42   H28   1.107617 S    
C22   C24   1.401694 A    
N7    O17   1.298507 A    
C32   O30   1.391363 S    
C20   C22   1.398229 A    
N1    C7    1.370876 A    
N10   O34   1.299951 A    
N2    C8    1.372513 A    
C11   C13   1.406121 A    
C39   H19   1.110619 S    
O2    Cu2   1.963614 S    
C5    C13   1.410828 A    
C36   H10   1.108355 S    
O5    Cu1   1.944846 S    
C40   H24   1.108082 S    
C26   O26   1.390557 S    
O26   C38   1.409672 S    
C14   C17   1.420832 A    
C6    N2    1.372597 A    
N3    N4    1.303467 D    
O29   C41   1.407932 S    
C19   O21   1.382505 S    
C38   H16   1.112009 S    
C41   H27   1.105240 S    
N9    O32   1.298779 A    
