data_mof_unit_19417.cif
_audit_creation_date              2012-12-10T20:27:51-0500
_audit_creation_method            fapswitch 2.2
_symmetry_space_group_name_H-M    P1
_symmetry_Int_Tables_number       1
_space_group_crystal_system       triclinic
_cell_length_a                    12.848431
_cell_length_b                    10.680143
_cell_length_c                    9.866264
_cell_angle_alpha                 90.05222
_cell_angle_beta                  97.30694
_cell_angle_gamma                 89.938532
_cell_volume                      1342.88316328

loop_
_atom_site_label
_atom_site_type_symbol
_atom_type_description
_atom_site_fract_x
_atom_site_fract_y
_atom_site_fract_z
_atom_type_partial_charge
C1    C     C_R   0.497300 0.259981 0.499621 0.864767
C2    C     C_R   0.455745 0.935144 0.374532 -0.221800
C3    C     C_R   0.481857 0.871449 0.498393 -0.104816
C4    C     C_R   0.298437 0.499127 0.473052 0.877277
C5    C     C_R   0.489340 0.936225 0.621678 0.135223
C6    C     C_3   0.571297 0.928807 0.743387 -0.481582
C7    C     C_3   0.571645 0.070725 0.743363 -0.465825
C8    C     C_R   0.411313 0.469212 0.056440 0.212478
C9    C     C_R   0.584444 0.541602 0.085882 -0.084404
C10   C     C_R   0.584461 0.541550 0.941983 -0.127670
C11   C     C_R   0.411297 0.469435 0.913967 0.220127
C12   C     C_R   0.027151 0.523275 0.550515 0.163464
C13   C     C_3   0.353698 0.348342 0.897738 -0.492180
C14   C     C_3   0.354155 0.347551 0.051750 -0.517141
C15   C     C_R   0.497173 0.739991 0.499629 0.881405
C16   C     C_R   0.701622 0.495391 0.526878 0.865734
C17   C     C_R   0.814026 0.489565 0.543636 -0.131091
C18   C     C_R   0.187064 0.488414 0.456438 -0.035020
C19   C     C_R   0.030700 0.386481 0.352609 -0.175160
C20   C     C_R   0.136695 0.410132 0.355708 -0.230581
C21   C     C_R   0.133000 0.545063 0.552914 -0.276425
C22   C     C_2   0.805802 0.337354 0.348373 0.397304
C23   C     C_R   0.973803 0.444100 0.448541 0.148148
C24   C     C_R   0.865844 0.424800 0.447013 -0.094568
C25   C     C_R   0.868595 0.561962 0.647090 -0.199293
C26   C     C_R   0.975059 0.578655 0.650662 -0.214754
C27   C     C_R   0.489523 0.063921 0.621702 0.121904
C28   C     C_R   0.482192 0.128493 0.498377 -0.102247
C29   C     C_R   0.455959 0.064617 0.374557 -0.222139
H1    H     H_    0.646097 0.887015 0.719134 0.199418
H2    H     H_    0.827881 0.610944 0.721028 0.157591
H3    H     H_    0.995623 0.321498 0.276353 0.192304
H4    H     H_    0.016189 0.637646 0.729451 0.143975
H5    H     H_    0.180234 0.362827 0.283713 0.149595
H6    H     H_    0.174129 0.604567 0.631503 0.147971
H7    H     H_    0.442343 0.113544 0.277949 0.163863
H8    H     H_    0.441945 0.885942 0.277851 0.171939
H9    H     H_    0.540163 0.888004 0.833726 0.206668
H10   H     H_    0.751639 0.271183 0.384874 0.061476
H11   H     H_    0.541028 0.111812 0.833977 0.205224
H12   H     H_    0.646615 0.111707 0.718965 0.204239
H13   H     H_    0.653310 0.573470 0.151142 0.173865
H14   H     H_    0.653272 0.573190 0.899222 0.152120
H15   H     H_    0.273934 0.359691 0.840572 0.207157
H16   H     H_    0.401316 0.271960 0.859981 0.213370
H17   H     H_    0.274513 0.357568 0.082957 0.198356
H18   H     H_    0.402470 0.270954 0.103390 0.210366
N1    N     N_R   0.499290 0.499140 0.142710 -0.114399
N2    N     N_R   0.499290 0.499180 0.857070 -0.112430
O1    O     O_R   0.500010 0.316790 0.614690 -0.614659
O2    O     O_R   0.500000 0.316760 0.385350 -0.624107
O3    O     O_R   0.346360 0.499990 0.595720 -0.622439
O4    O     O_R   0.346350 0.499960 0.366370 -0.622258
O5    O     O_R   0.500000 0.683240 0.614650 -0.618531
O6    O     O_R   0.499990 0.683210 0.385310 -0.622753
O7    O     O_R   0.653650 0.500040 0.633630 -0.622193
O8    O     O_R   0.653640 0.500010 0.404280 -0.611090
O9    O     O_2   0.810487 0.344658 0.225815 -0.583601
Zn1   Zn    Zn3+2 0.500010 0.500020 0.653130 0.944024
Zn2   Zn    Zn3+2 0.499990 0.499980 0.346870 0.953804

loop_
_geom_bond_atom_site_label_1
_geom_bond_atom_site_label_2
_ccdc_geom_bond_type
C25   H2    S    
C1    C28   S    
C19   C23   A    
C7    H11   S    
C8    N1    A    
C22   O9    D    
C14   H18   S    
C21   H6    S    
O3    Zn1   S    
C4    O4    A    
C18   C21   A    
C11   C13   S    
C9    C10   A    
C26   H4    S    
C19   C20   A    
N2    Zn1   S    
O7    Zn1   S    
C23   C24   A    
C20   H5    S    
C16   O7    A    
C2    C3    A    
C25   C26   A    
C4    C18   S    
C14   H17   S    
C5    C27   A    
C13   C14   S    
C13   H16   S    
C16   O8    A    
C1    O2    A    
C2    H8    S    
C9    H13   S    
C6    C7    S    
C4    O3    A    
C2    C29   A    
C11   N2    A    
C19   H3    S    
C28   C29   A    
C6    H1    S    
O4    Zn2   S    
N1    Zn2   S    
C18   C20   A    
O5    Zn1   S    
C8    C11   A    
C5    C6    S    
C22   C24   S    
C17   C24   A    
O1    Zn1   S    
C15   O5    A    
C3    C15   S    
C9    N1    A    
C1    O1    A    
C6    H9    S    
C27   C28   A    
C7    C27   S    
C16   C17   S    
O8    Zn2   S    
C12   C23   A    
O2    Zn2   S    
C8    C14   S    
C10   H14   S    
O6    Zn2   S    
C10   N2    A    
C22   H10   S    
C12   C21   A    
C13   H15   S    
C29   H7    S    
C7    H12   S    
C12   C26   A    
C17   C25   A    
C3    C5    A    
C15   O6    A    
