data_mof_unit_32257.cif
_audit_creation_date              2012-12-10T19:11:32-0500
_audit_creation_method            fapswitch 2.2
_symmetry_space_group_name_H-M    P1
_symmetry_Int_Tables_number       1
_space_group_crystal_system       triclinic
_cell_length_a                    10.625835
_cell_length_b                    10.222029
_cell_length_c                    10.437719
_cell_angle_alpha                 86.943799
_cell_angle_beta                  92.009472
_cell_angle_gamma                 90.698422
_cell_volume                      1131.35075781

loop_
_atom_site_label
_atom_site_type_symbol
_atom_type_description
_atom_site_fract_x
_atom_site_fract_y
_atom_site_fract_z
_atom_type_partial_charge
C1    C     C_R   0.259839 0.499499 0.510767 0.808520
C2    C     C_3   0.507507 0.507499 0.122861 0.046818
C3    C     C_3   0.074189 0.621573 0.587721 -0.404120
C4    C     C_3   0.071516 0.379381 0.596478 -0.435503
C5    C     C_3   0.930528 0.612147 0.600074 -0.418689
C6    C     C_3   0.928843 0.369889 0.576669 -0.392859
C7    C     C_3   0.067015 0.510349 0.379417 -0.419266
C8    C     C_3   0.121910 0.501422 0.518790 0.214256
C9    C     C_3   0.877682 0.501465 0.516269 0.212737
C10   C     C_3   0.923838 0.522135 0.378035 -0.416593
C11   C     C_3   0.368468 0.079851 0.456349 0.239033
C12   C     C_3   0.377458 0.921465 0.431825 0.287997
C13   C     C_3   0.597632 0.085610 0.405731 0.227623
C14   C     C_3   0.613194 0.922909 0.426474 0.191508
C15   C     C_3   0.538531 0.069082 0.626516 0.018568
C16   C     C_3   0.514104 0.914231 0.631268 0.006892
C17   C     C_R   0.502842 0.502945 0.258903 0.840804
C18   C     C_R   0.740559 0.500228 0.508736 0.803007
C19   C     C_R   0.502502 0.497194 0.741138 0.819217
C20   C     C_3   0.519946 0.626996 0.029757 -0.155369
C21   C     C_3   0.398534 0.451319 0.043453 -0.184598
C22   C     C_3   0.410602 0.570176 0.947789 -0.191656
C23   C     C_3   0.506257 0.493297 0.877377 0.053920
C24   C     C_3   0.615938 0.550223 0.956268 -0.175608
C25   C     C_3   0.494278 0.374242 0.970946 -0.155532
C26   C     C_3   0.603935 0.430930 0.052453 -0.183409
H1    H     H_    0.330892 0.624206 0.899059 0.128887
H2    H     H_    0.895904 0.620848 0.337131 0.165018
H3    H     H_    0.880635 0.448074 0.314868 0.161896
H4    H     H_    0.640213 0.080492 0.642549 0.087567
H5    H     H_    0.595692 0.864807 0.681701 0.139089
H6    H     H_    0.531674 0.729727 0.057899 0.142150
H7    H     H_    0.309415 0.413028 0.082740 0.124214
H8    H     H_    0.704863 0.589539 0.915829 0.115840
H9    H     H_    0.479464 0.269925 0.951557 0.130863
H10   H     H_    0.684696 0.376275 0.098315 0.113557
H11   H     H_    0.092034 0.711282 0.528550 0.190444
H12   H     H_    0.110893 0.287657 0.569079 0.159361
H13   H     H_    0.121893 0.630009 0.683622 0.150278
H14   H     H_    0.096531 0.386751 0.700375 0.166244
H15   H     H_    0.907162 0.590921 0.702277 0.158468
H16   H     H_    0.884581 0.343445 0.669779 0.155024
H17   H     H_    0.889430 0.708341 0.569755 0.195622
H18   H     H_    0.908404 0.290998 0.510136 0.189005
H19   H     H_    0.107515 0.595827 0.324251 0.165928
H20   H     H_    0.092426 0.422990 0.330165 0.185823
N1    N     N_3   0.499750 0.138610 0.497240 -0.111342
N2    N     N_3   0.499750 0.861390 0.497240 -0.118032
O1    O     O_R   0.314910 0.616040 0.499970 -0.595974
O2    O     O_R   0.314910 0.383960 0.499970 -0.663921
O3    O     O_R   0.500080 0.616020 0.313900 -0.654495
O4    O     O_R   0.500080 0.383980 0.313900 -0.638337
O5    O     O_R   0.685320 0.616040 0.499930 -0.619044
O6    O     O_R   0.685320 0.383960 0.499930 -0.596959
O7    O     O_R   0.500150 0.616060 0.686000 -0.638946
O8    O     O_R   0.500150 0.383940 0.686000 -0.643977
Zn1   Zn    Zn3+2 0.500150 0.654960 0.499940 0.908675
Zn2   Zn    Zn3+2 0.500150 0.345040 0.499940 0.898506
C27   C     C_3   0.303586 0.157822 0.333194 -0.345863
C28   C     C_3   0.157615 0.155152 0.315093 -0.442717
C29   C     C_3   0.112237 0.211094 0.182137 -0.945739
H21   H     H_    0.141400 0.314530 0.166857 0.250858
H22   H     H_    0.150842 0.157268 0.103252 0.261163
H23   H     H_    0.007804 0.205701 0.174421 0.251964
H24   H     H_    0.116118 0.056793 0.330341 0.214925
H25   H     H_    0.114906 0.213908 0.386187 0.228978
H26   H     H_    0.327224 0.260540 0.332501 0.272646
H27   H     H_    0.340426 0.131569 0.241361 0.208963
C30   C     C_3   0.366534 0.888037 0.282956 -0.375088
C31   C     C_3   0.237900 0.867190 0.209862 -0.425507
C32   C     C_3   0.252077 0.791986 0.089424 -0.955451
H28   H     H_    0.325307 0.838336 0.028139 0.268634
H29   H     H_    0.276544 0.689283 0.118142 0.277641
H30   H     H_    0.161369 0.791112 0.033200 0.252393
H31   H     H_    0.168143 0.810253 0.266409 0.232884
H32   H     H_    0.197994 0.960856 0.175700 0.260412
H33   H     H_    0.424352 0.949341 0.218833 0.192881
H34   H     H_    0.406587 0.794639 0.279111 0.290263
N3    N     N_3   0.283824 0.093160 0.564335 -0.458477
H35   H     H_    0.281244 0.188551 0.589027 0.218069
H36   H     H_    0.189902 0.069433 0.544287 0.142447
N4    N     N_3   0.265843 0.853290 0.484073 -0.394674
H37   H     H_    0.247611 0.862461 0.579309 0.192767
H38   H     H_    0.183793 0.892365 0.442267 0.126084
N5    N     N_3   0.559060 0.124337 0.271275 -0.479293
H39   H     H_    0.599649 0.070502 0.202456 0.145315
H40   H     H_    0.597734 0.214900 0.244566 0.232105
N6    N     N_3   0.625817 0.863692 0.301763 -0.482886
H41   H     H_    0.656173 0.767890 0.317448 0.256232
H42   H     H_    0.703156 0.905583 0.254982 0.130995
N7    N     N_3   0.491598 0.125009 0.742619 -0.454243
H43   H     H_    0.563825 0.175004 0.790888 0.178022
H44   H     H_    0.412957 0.183086 0.732395 0.235760
N8    N     N_3   0.409838 0.882004 0.716859 -0.446694
H45   H     H_    0.440860 0.892130 0.812164 0.178538
H46   H     H_    0.380574 0.785333 0.713447 0.225895
N9    N     N_3   0.721655 0.150442 0.424949 -0.421231
H47   H     H_    0.782158 0.124044 0.353855 0.144342
H48   H     H_    0.769105 0.129189 0.511771 0.147174
N10   N     N_3   0.732706 0.886548 0.498311 -0.455253
H49   H     H_    0.810745 0.905585 0.441534 0.151060
H50   H     H_    0.753414 0.931883 0.583147 0.124578

loop_
_geom_bond_atom_site_label_1
_geom_bond_atom_site_label_2
_ccdc_geom_bond_type
C19   O8    A    
C7    C10   S    
C12   C30   S    
C1    C8    S    
C30   H33   S    
C15   N1    S    
C12   N2    S    
C17   O3    A    
C6    C9    S    
N9    H47   S    
N2    Zn1   S    
N5    H39   S    
C16   H5    S    
C7    H19   S    
C24   C26   S    
O6    Zn2   S    
C21   H7    S    
C10   H2    S    
C15   C16   S    
O1    Zn1   S    
C29   H22   S    
C5    H15   S    
C18   O5    A    
C27   H26   S    
C11   N1    S    
C20   C24   S    
C23   C24   S    
C31   C32   S    
O3    Zn1   S    
C1    O2    A    
C29   H21   S    
C4    C8    S    
C5    H17   S    
C28   H25   S    
C27   C28   S    
C6    H18   S    
C21   C22   S    
C2    C17   S    
C16   N2    S    
C30   H34   S    
C30   C31   S    
C11   C27   S    
C17   O4    A    
N9    H48   S    
N5    H40   S    
O4    Zn2   S    
C2    C20   S    
O2    Zn2   S    
C7    H20   S    
C4    H14   S    
C7    C8    S    
C4    C6    S    
C3    C8    S    
N7    H43   S    
N3    H36   S    
O5    Zn1   S    
C14   N2    S    
C25   C26   S    
C24   H8    S    
C28   C29   S    
C29   H23   S    
C19   C23   S    
C5    C9    S    
C27   H27   S    
N7    H44   S    
C2    C21   S    
N10   H50   S    
C12   N4    S    
C2    C26   S    
N8    H46   S    
C11   N3    S    
C25   H9    S    
C26   H10   S    
C20   C22   S    
C28   H24   S    
N4    H38   S    
C22   H1    S    
O7    Zn1   S    
C31   H32   S    
C13   N5    S    
C15   H4    S    
C13   N1    S    
C20   H6    S    
C19   O7    A    
C21   C25   S    
N6    H42   S    
C3    C5    S    
C32   H30   S    
C11   C12   S    
C14   N10   S    
C16   N8    S    
C14   N6    S    
C32   H28   S    
N1    Zn2   S    
C10   H3    S    
N10   H49   S    
O8    Zn2   S    
C9    C10   S    
C23   C25   S    
C13   N9    S    
N8    H45   S    
C18   O6    A    
C15   N7    S    
N3    H35   S    
C9    C18   S    
N6    H41   S    
C3    H11   S    
N4    H37   S    
C6    H16   S    
C32   H29   S    
C31   H31   S    
C22   C23   S    
C4    H12   S    
C13   C14   S    
C1    O1    A    
C3    H13   S    
