data_mof_unit_16187.cif
_audit_creation_date              2012-12-10T19:11:31-0500
_audit_creation_method            fapswitch 2.2
_symmetry_space_group_name_H-M    P1
_symmetry_Int_Tables_number       1
_space_group_crystal_system       triclinic
_cell_length_a                    10.769309
_cell_length_b                    9.757015
_cell_length_c                    10.488073
_cell_angle_alpha                 90.398681
_cell_angle_beta                  90.093508
_cell_angle_gamma                 90.445353
_cell_volume                      1101.9864676

loop_
_atom_site_label
_atom_site_type_symbol
_atom_type_description
_atom_site_fract_x
_atom_site_fract_y
_atom_site_fract_z
_atom_type_partial_charge
C1    C     C_R   0.256967 0.499414 0.505466 0.813675
C2    C     C_3   0.926916 0.536683 0.374801 -0.377443
C3    C     C_3   0.377785 0.079624 0.530606 -0.190870
C4    C     C_3   0.379096 0.918662 0.536296 -0.191997
C5    C     C_3   0.533325 0.080370 0.370275 -0.248114
C6    C     C_3   0.528961 0.918296 0.369224 -0.240732
C7    C     C_3   0.590854 0.082394 0.589872 -0.239489
C8    C     C_3   0.593927 0.920383 0.586631 -0.243214
C9    C     C_R   0.499988 0.499450 0.257288 0.879997
C10   C     C_R   0.741654 0.500307 0.504252 0.851062
C11   C     C_R   0.500130 0.500557 0.742603 0.860507
C12   C     C_3   0.499961 0.498340 0.122263 0.024676
C13   C     C_3   0.397820 0.563850 0.042694 -0.174096
C14   C     C_3   0.499860 0.369030 0.039067 -0.134915
C15   C     C_3   0.397721 0.434710 0.956772 -0.173359
C16   C     C_3   0.500054 0.501710 0.877623 0.031364
C17   C     C_3   0.500150 0.631033 0.960808 -0.137831
C18   C     C_3   0.602189 0.436216 0.957193 -0.185646
C19   C     C_3   0.602288 0.565355 0.043108 -0.190149
C20   C     C_2   0.099546 0.758838 0.573732 0.962000
C21   C     C_2   0.105170 0.225549 0.497956 0.903830
C22   C     C_3   0.067201 0.611851 0.603533 -0.162184
C23   C     C_3   0.063950 0.357559 0.558418 -0.132350
C24   C     C_3   0.924097 0.602585 0.610434 -0.441520
C25   C     C_3   0.922225 0.357226 0.547837 -0.423872
C26   C     C_3   0.069016 0.525073 0.371849 -0.349598
C27   C     C_3   0.118792 0.498410 0.508305 -0.013817
C28   C     C_3   0.876518 0.500040 0.508912 0.121260
H1    H     H_    0.314603 0.381904 0.916557 0.132206
H2    H     H_    0.685202 0.123460 0.569068 0.160050
H3    H     H_    0.688277 0.885950 0.558480 0.162504
H4    H     H_    0.567665 0.118022 0.687894 0.150468
H5    H     H_    0.578012 0.880273 0.684292 0.146205
H6    H     H_    0.627706 0.116594 0.342718 0.154015
H7    H     H_    0.619546 0.877770 0.335584 0.156446
H8    H     H_    0.314778 0.615431 0.082572 0.131866
H9    H     H_    0.499772 0.262256 0.075010 0.131539
H10   H     H_    0.500265 0.737774 0.924746 0.135817
H11   H     H_    0.685224 0.384626 0.917312 0.126462
H12   H     H_    0.899368 0.642760 0.349430 0.207093
H13   H     H_    0.685398 0.618171 0.083329 0.128041
H14   H     H_    0.104661 0.589759 0.700380 0.099326
H15   H     H_    0.088522 0.351006 0.661589 0.109166
H16   H     H_    0.895630 0.568010 0.707188 0.143431
H17   H     H_    0.881452 0.326599 0.641165 0.154697
H18   H     H_    0.879667 0.704376 0.597231 0.193229
H19   H     H_    0.888284 0.280746 0.475744 0.194633
H20   H     H_    0.111204 0.618352 0.329806 0.201358
H21   H     H_    0.096114 0.442457 0.305013 0.214546
H22   H     H_    0.089582 0.913855 0.447290 0.354609
H23   H     H_    0.886114 0.466508 0.301453 0.152530
H24   H     H_    0.132791 0.115658 0.335990 0.316043
H25   H     H_    0.312231 0.109358 0.455463 0.181351
H26   H     H_    0.305947 0.877254 0.472223 0.176436
H27   H     H_    0.345903 0.123221 0.623058 0.184898
H28   H     H_    0.358384 0.885236 0.635006 0.197215
H29   H     H_    0.468783 0.119292 0.296237 0.151911
H30   H     H_    0.458103 0.882467 0.298967 0.151986
N1    N     N_3   0.499750 0.138610 0.497240 -0.057193
N2    N     N_3   0.499750 0.861390 0.497240 -0.058425
O1    O     O_R   0.314910 0.616040 0.499970 -0.625100
O2    O     O_R   0.067937 0.813698 0.455458 -0.842403
O3    O     O_2   0.113141 0.124660 0.565685 -0.662331
O4    O     O_R   0.116642 0.212891 0.365582 -0.834857
O5    O     O_R   0.314910 0.383960 0.499970 -0.613344
O6    O     O_R   0.500080 0.616020 0.313900 -0.629964
O7    O     O_R   0.500080 0.383980 0.313900 -0.626707
O8    O     O_R   0.685320 0.616040 0.499930 -0.633314
O9    O     O_R   0.685320 0.383960 0.499930 -0.638323
O10   O     O_R   0.500150 0.616060 0.686000 -0.633316
O11   O     O_R   0.500150 0.383940 0.686000 -0.634248
O12   O     O_2   0.140183 0.833167 0.658441 -0.638265
Zn1   Zn    Zn3+2 0.500150 0.654960 0.499940 0.914019
Zn2   Zn    Zn3+2 0.500150 0.345040 0.499940 0.916521

loop_
_geom_bond_atom_site_label_1
_geom_bond_atom_site_label_2
_ccdc_geom_bond_type
C14   C18   S    
C11   O10   A    
C7    C8    S    
C25   C28   S    
C26   C27   S    
C5    C6    S    
C11   O11   A    
C15   C16   S    
N2    Zn1   S    
C23   H15   S    
C6    H7    S    
C18   C19   S    
C6    H30   S    
C9    O6    A    
C21   O4    S    
C3    H27   S    
C16   C17   S    
C1    O5    A    
C23   C27   S    
C25   H19   S    
C26   H20   S    
C8    H5    S    
C7    H2    S    
C4    H28   S    
C7    N1    S    
C15   H1    S    
C5    N1    S    
C6    N2    S    
C13   H8    S    
H24   O4    S    
C26   H21   S    
O1    Zn1   S    
O8    Zn1   S    
O6    Zn1   S    
O5    Zn2   S    
C18   H11   S    
C9    O7    A    
C11   C16   S    
C5    H6    S    
C4    N2    S    
O10   Zn1   S    
O9    Zn2   S    
C2    C26   S    
O7    Zn2   S    
N1    Zn2   S    
C20   C22   S    
C10   O8    A    
C22   C27   S    
C21   C23   S    
C24   H16   S    
C22   C24   S    
C3    C4    S    
C25   H17   S    
C10   C28   S    
C7    H4    S    
C4    H26   S    
C8    H3    S    
C24   C28   S    
C12   C14   S    
C1    O1    A    
O11   Zn2   S    
C13   C17   S    
C5    H29   S    
C24   H18   S    
C13   C15   S    
C8    N2    S    
C14   H9    S    
C3    H25   S    
C22   H14   S    
H22   O2    S    
C12   C19   S    
C17   C19   S    
C17   H10   S    
C23   C25   S    
C20   O2    S    
C9    C12   S    
C21   O3    D    
C2    H23   S    
C10   O9    A    
C2    H12   S    
C12   C13   S    
C16   C18   S    
C1    C27   S    
C14   C15   S    
C20   O12   D    
C2    C28   S    
C19   H13   S    
C3    N1    S    
