data_mof_unit_6271.cif
_audit_creation_date              2012-12-10T19:03:39-0500
_audit_creation_method            fapswitch 2.2
_symmetry_space_group_name_H-M    P1
_symmetry_Int_Tables_number       1
_space_group_crystal_system       triclinic
_cell_length_a                    15.866693
_cell_length_b                    10.85836
_cell_length_c                    9.519601
_cell_angle_alpha                 89.303534
_cell_angle_beta                  90.046858
_cell_angle_gamma                 90.652962
_cell_volume                      1639.86845418

loop_
_atom_site_label
_atom_site_type_symbol
_atom_type_description
_atom_site_fract_x
_atom_site_fract_y
_atom_site_fract_z
_atom_type_partial_charge
C1    C     C_R   0.500370 0.262577 0.500517 0.811172
C2    C     C_3   0.951795 0.466446 0.643998 -0.389965
C3    C     C_3   0.916704 0.489490 0.493843 0.288089
C4    C     C_3   0.951328 0.616436 0.442024 -0.430676
C5    C     C_3   0.048778 0.618796 0.445720 -0.388458
C6    C     C_1   0.824696 0.494291 0.497920 -0.098020
C7    C     C_1   0.174931 0.494405 0.496088 -0.118285
C8    C     C_1   0.250486 0.497148 0.498936 -0.193101
C9    C     C_R   0.529035 0.061572 0.614740 0.105689
C10   C     C_R   0.503837 0.129994 0.498137 -0.147179
C11   C     C_R   0.486031 0.069301 0.372372 -0.249344
C12   C     C_R   0.340144 0.499588 0.499907 0.818376
C13   C     C_R   0.482526 0.940829 0.366856 0.071845
C14   C     C_R   0.500266 0.871690 0.492319 -0.126101
C15   C     C_R   0.527116 0.934857 0.611843 0.053188
C16   C     C_3   0.498442 0.924085 0.761427 -0.466522
C17   C     C_3   0.500359 0.064515 0.764531 -0.116117
C18   C     C_R   0.545075 0.587090 0.072519 0.236955
C19   C     C_R   0.449160 0.421887 0.075557 -0.081748
C20   C     C_R   0.449005 0.422090 0.926465 -0.107671
C21   C     C_R   0.544975 0.587232 0.925037 0.265128
C22   C     C_3   0.637875 0.609177 0.918937 -0.507618
C23   C     C_R   0.498152 0.737858 0.498258 0.793482
C24   C     C_3   0.637917 0.609155 0.078313 -0.511154
C25   C     C_R   0.659785 0.500341 0.500037 0.837186
C26   C     C_3   0.048987 0.461433 0.641031 -0.423489
C27   C     C_3   0.048416 0.389042 0.389908 -0.076143
C28   C     C_3   0.948841 0.388881 0.389811 -0.051535
C29   C     C_1   0.749266 0.498049 0.500007 -0.209026
C30   C     C_3   0.082596 0.491049 0.491352 0.283943
Cu1   Cu    Cu3+1 0.500000 0.499980 0.640670 0.930356
Cu2   Cu    Cu3+1 0.500000 0.500020 0.359330 0.929002
H1    H     H_    0.075224 0.528461 0.717631 0.173177
H2    H     H_    0.469553 0.122386 0.279358 0.158277
H3    H     H_    0.433675 0.884602 0.770776 0.180030
H4    H     H_    0.436218 0.103827 0.775128 0.140123
H5    H     H_    0.409309 0.357081 0.871201 0.134902
H6    H     H_    0.672671 0.530198 0.874924 0.219553
H7    H     H_    0.927135 0.418173 0.283294 0.145983
H8    H     H_    0.070623 0.689964 0.521138 0.169039
H9    H     H_    0.073983 0.646590 0.340991 0.157339
N1    N     N_R   0.500530 0.500930 0.147930 -0.178862
N2    N     N_R   0.500530 0.500890 0.852020 -0.182857
O1    O     O_R   0.500000 0.319640 0.618810 -0.590263
O2    O     O_R   0.500010 0.319680 0.381230 -0.586507
O3    O     O_R   0.379430 0.499990 0.618840 -0.576103
O4    O     O_R   0.379440 0.500030 0.381260 -0.579981
O5    O     O_R   0.499990 0.680320 0.618770 -0.575400
O6    O     O_R   0.500000 0.680360 0.381190 -0.583758
O7    O     O_R   0.620560 0.499970 0.618740 -0.576321
O8    O     O_R   0.620570 0.500010 0.381160 -0.579169
H10   H     H_    0.925800 0.380343 0.691729 0.157184
H11   H     H_    0.932151 0.542431 0.713890 0.169862
H12   H     H_    0.929303 0.635808 0.332998 0.157283
C31   C     C_3   0.453738 0.885749 0.228200 -0.370509
C32   C     C_3   0.362940 0.835678 0.237480 -0.315763
C33   C     C_3   0.335951 0.775689 0.100189 -0.840751
H13   H     H_    0.339987 0.843358 0.011916 0.239528
H14   H     H_    0.376764 0.696118 0.077142 0.260112
H15   H     H_    0.269800 0.742091 0.109366 0.234122
H16   H     H_    0.356221 0.766880 0.323973 0.225800
H17   H     H_    0.319700 0.912860 0.259897 0.200285
H18   H     H_    0.455125 0.957018 0.143242 0.168059
H19   H     H_    0.498548 0.815764 0.191340 0.213636
H20   H     H_    0.545668 0.878403 0.829991 0.190383
C34   C     C_3   0.564187 0.121849 0.868555 -0.350074
C35   C     C_3   0.657586 0.096174 0.837698 -0.312530
C36   C     C_3   0.714588 0.156793 0.946732 -0.882307
H21   H     H_    0.705913 0.258212 0.945395 0.255340
H22   H     H_    0.699859 0.119861 0.053269 0.256519
H23   H     H_    0.781522 0.137191 0.922535 0.237385
H24   H     H_    0.669219 0.995543 0.839114 0.209608
H25   H     H_    0.674903 0.133800 0.732386 0.216396
H26   H     H_    0.555310 0.223079 0.866938 0.217975
H27   H     H_    0.548294 0.088253 0.976185 0.183641
H28   H     H_    0.409481 0.356847 0.132491 0.135271
H29   H     H_    0.069762 0.368193 0.675254 0.163430
H30   H     H_    0.654153 0.700474 0.871658 0.184909
H31   H     H_    0.672806 0.530245 0.124561 0.220358
H32   H     H_    0.654020 0.700523 0.123111 0.188117
C37   C     C_3   0.084329 0.402413 0.238261 -0.425478
C38   C     C_3   0.067112 0.287557 0.149590 -0.358982
C39   C     C_3   0.105319 0.302116 0.003157 -0.869037
H33   H     H_    0.078158 0.383357 0.948358 0.252061
H34   H     H_    0.174829 0.313945 0.010231 0.252870
H35   H     H_    0.091073 0.218724 0.940682 0.236475
H36   H     H_    0.094744 0.205359 0.202023 0.212011
H37   H     H_    0.998245 0.271811 0.138112 0.219706
H38   H     H_    0.056784 0.484046 0.184571 0.198859
H39   H     H_    0.153679 0.416974 0.242205 0.216719
H40   H     H_    0.071920 0.300011 0.433082 0.134579
C40   C     C_3   0.911359 0.256930 0.417664 -0.429625
C41   C     C_3   0.832740 0.228735 0.328064 -0.358926
C42   C     C_3   0.791830 0.106227 0.371896 -0.847490
H41   H     H_    0.836881 0.029722 0.358388 0.248237
H42   H     H_    0.771462 0.109178 0.483440 0.247905
H43   H     H_    0.735460 0.088224 0.305811 0.240704
H44   H     H_    0.785214 0.301897 0.338089 0.233470
H45   H     H_    0.850914 0.224230 0.215533 0.207327
H46   H     H_    0.958444 0.185748 0.391618 0.190651
H47   H     H_    0.895867 0.243238 0.530243 0.210020
H48   H     H_    0.927014 0.691323 0.509288 0.173213

loop_
_geom_bond_atom_site_label_1
_geom_bond_atom_site_label_2
_ccdc_geom_bond_type
C31   C32   S    
C41   C42   S    
C18   C21   A    
Cu2   O2    S    
C19   C20   A    
C3    C6    S    
C37   C38   S    
C7    C8    T    
C17   C34   S    
Cu1   N2    S    
C18   C24   S    
C19   H28   S    
C18   N1    A    
C16   H3    S    
C33   H14   S    
C15   C16   S    
C34   H26   S    
C32   C33   S    
C35   H24   S    
C25   O7    A    
C24   H31   S    
C21   N2    A    
C24   H32   S    
Cu1   Cu2   S    
C16   C17   S    
Cu1   O3    S    
C31   H18   S    
C27   H40   S    
C35   H25   S    
C17   H4    S    
C9    C10   A    
C41   H45   S    
C19   N1    A    
C37   H38   S    
C34   C35   S    
C7    C30   S    
C21   C22   S    
C27   C30   S    
C12   O4    A    
C25   C29   S    
C26   H29   S    
Cu1   O1    S    
C35   C36   S    
C27   C37   S    
C22   H30   S    
C12   O3    A    
C36   H21   S    
C33   H15   S    
C28   H7    S    
C4    H48   S    
C14   C23   S    
C25   O8    A    
Cu2   O8    S    
C1    O1    A    
C39   H33   S    
C8    C12   S    
C31   H19   S    
C6    C29   T    
C2    C26   S    
C42   H42   S    
C2    H10   S    
C40   H47   S    
C37   H39   S    
C9    C17   S    
C39   H34   S    
C26   C30   S    
Cu1   O5    S    
Cu2   O4    S    
C22   C24   S    
Cu1   O7    S    
C3    C4    S    
C20   N2    A    
C40   H46   S    
C5    C30   S    
C5    H9    S    
C3    C28   S    
C23   O5    A    
C4    H12   S    
C32   H16   S    
C11   H2    S    
C1    C10   S    
C4    C5    S    
C2    H11   S    
C42   H43   S    
C2    C3    S    
C9    C15   A    
C20   H5    S    
C11   C13   A    
C1    O2    A    
C33   H13   S    
C36   H23   S    
C38   H37   S    
C34   H27   S    
C40   C41   S    
C32   H17   S    
C42   H41   S    
Cu2   O6    S    
C23   O6    A    
C10   C11   A    
C28   C40   S    
C39   H35   S    
C36   H22   S    
C38   C39   S    
C5    H8    S    
C27   C28   S    
Cu2   N1    S    
C14   C15   A    
C16   H20   S    
C13   C14   A    
C41   H44   S    
C38   H36   S    
C26   H1    S    
C13   C31   S    
C22   H6    S    
