data_mof_unit_27032.cif
_audit_creation_date              2012-12-10T17:35:49-0500
_audit_creation_method            fapswitch 2.2
_symmetry_space_group_name_H-M    P1
_symmetry_Int_Tables_number       1
_space_group_crystal_system       triclinic
_cell_length_a                    10.502604
_cell_length_b                    11.980149
_cell_length_c                    12.885901
_cell_angle_alpha                 93.399931
_cell_angle_beta                  90.032757
_cell_angle_gamma                 86.950352
_cell_volume                      1616.18840662

loop_
_atom_site_label
_atom_site_type_symbol
_atom_type_description
_atom_site_fract_x
_atom_site_fract_y
_atom_site_fract_z
_atom_type_partial_charge
C1    C     C_R   0.499998 0.522140 0.700423 0.914242
C2    C     C_R   0.598106 0.163438 0.594744 0.029793
C3    C     C_R   0.544262 0.859457 0.547047 -0.026662
C4    C     C_R   0.455794 0.140536 0.452913 -0.029825
C5    C     C_R   0.538251 0.976551 0.538893 0.087518
C6    C     C_R   0.461872 0.023437 0.461017 0.086209
C7    C     C_R   0.742399 0.501136 0.501810 0.970628
C8    C     C_R   0.257549 0.498895 0.498474 0.978148
C9    C     C_3   0.962971 0.437177 0.575517 0.485994
C10   C     C_3   0.036781 0.562850 0.425210 0.487996
C11   C     C_3   0.042051 0.541254 0.595157 -0.505303
C12   C     C_R   0.502033 0.477942 0.299518 0.913359
C13   C     C_3   0.957783 0.458745 0.405580 -0.505275
C14   C     C_3   0.122972 0.497684 0.499290 -0.234202
C15   C     C_3   0.876900 0.502348 0.501384 -0.230335
C16   C     C_3   0.043766 0.394306 0.481360 0.442123
C17   C     C_3   0.956038 0.605700 0.519387 0.438484
C18   C     C_R   0.507395 0.465024 0.188159 -0.124095
C19   C     C_R   0.503776 0.535735 0.811690 -0.134432
C20   C     C_R   0.481279 0.651420 0.970478 0.487487
C21   C     C_R   0.543470 0.350836 0.029553 0.488831
C22   C     C_R   0.481612 0.641181 0.862696 -0.303015
C23   C     C_R   0.528085 0.440426 0.867032 -0.225849
C24   C     C_R   0.532848 0.359916 0.137291 -0.316593
C25   C     C_3   0.008806 0.333362 0.716595 -0.313949
C26   C     C_3   0.989628 0.666667 0.284430 -0.313158
C27   C     C_3   0.007853 0.208258 0.442606 0.129758
C28   C     C_3   0.072596 0.094535 0.412176 -0.869949
C29   C     C_3   0.991569 0.791804 0.558412 0.132291
C30   C     C_3   0.926579 0.905183 0.589811 -0.874223
C31   C     C_3   0.568209 0.811939 0.031013 0.069566
C32   C     C_3   0.542839 0.920435 0.096955 -0.804376
C33   C     C_3   0.691827 0.208605 0.990858 0.088054
C34   C     C_R   0.490217 0.561142 0.132774 -0.238397
C35   C     C_3   0.724047 0.112824 0.910791 -0.845694
C36   C     C_R   0.523944 0.447904 0.973986 0.004139
C37   C     C_R   0.498546 0.554091 0.026069 -0.007475
C38   C     C_R   0.393707 0.952366 0.393667 -0.351055
C39   C     C_R   0.606480 0.047610 0.606208 -0.336974
C40   C     C_R   0.402099 0.836546 0.405121 0.020686
H1    H     H_    0.081855 0.573361 0.670281 0.170045
H2    H     H_    0.349634 0.781757 0.353052 0.164680
H3    H     H_    0.335055 0.985788 0.332486 0.157320
H4    H     H_    0.665282 0.014105 0.667243 0.150511
H5    H     H_    0.046587 0.403978 0.765028 0.172341
H6    H     H_    0.087336 0.286367 0.672172 0.194688
H7    H     H_    0.968407 0.275093 0.770059 0.183687
H8    H     H_    0.911056 0.713196 0.329193 0.188232
H9    H     H_    0.952001 0.596019 0.235942 0.166327
H10   H     H_    0.029286 0.725331 0.231001 0.188986
H11   H     H_    0.945049 0.232455 0.377126 0.139683
H12   H     H_    0.917953 0.426589 0.330478 0.164312
H13   H     H_    0.948734 0.200164 0.513081 0.178571
H14   H     H_    0.135913 0.066887 0.475867 0.264383
H15   H     H_    0.999695 0.031881 0.396748 0.214145
H16   H     H_    0.130231 0.099976 0.340627 0.255741
H17   H     H_    0.050186 0.800553 0.487784 0.179165
H18   H     H_    0.054883 0.767303 0.623475 0.145296
H19   H     H_    0.869347 0.899032 0.661475 0.253766
H20   H     H_    0.999308 0.967947 0.605437 0.217620
H21   H     H_    0.862858 0.933194 0.526517 0.262123
H22   H     H_    0.603448 0.832840 0.953369 0.142711
H23   H     H_    0.469767 0.642166 0.172946 0.212893
H24   H     H_    0.643655 0.760788 0.070315 0.132978
H25   H     H_    0.507440 0.901921 0.174958 0.253499
H26   H     H_    0.632321 0.965309 0.106469 0.204119
H27   H     H_    0.470470 0.975149 0.058817 0.272336
H28   H     H_    0.705801 0.177299 0.069860 0.140251
H29   H     H_    0.759343 0.275688 0.979090 0.133530
H30   H     H_    0.715704 0.143372 0.831255 0.248939
H31   H     H_    0.823258 0.079237 0.922542 0.206530
H32   H     H_    0.657814 0.044586 0.918560 0.261650
H33   H     H_    0.548070 0.359488 0.826547 0.215413
H34   H     H_    0.544800 0.285306 0.180632 0.169445
H35   H     H_    0.463003 0.715200 0.819507 0.176927
H36   H     H_    0.396816 0.178300 0.394117 0.150514
H37   H     H_    0.603222 0.821693 0.605857 0.146503
H38   H     H_    0.650771 0.218237 0.646647 0.154230
N1    N     N_R   0.523490 0.207800 0.519350 -0.109025
N2    N     N_R   0.476510 0.792200 0.480650 -0.108781
O1    O     O_R   0.506270 0.421700 0.658830 -0.631634
O2    O     O_3   0.088137 0.628510 0.349789 -0.606856
O3    O     O_3   0.102157 0.286169 0.462698 -0.596814
O4    O     O_3   0.897457 0.713756 0.538154 -0.599465
O5    O     O_3   0.454093 0.755093 0.020952 -0.615595
O6    O     O_3   0.563597 0.246782 0.977758 -0.617164
O7    O     O_R   0.493730 0.578300 0.341170 -0.635468
O8    O     O_R   0.491200 0.609310 0.646410 -0.637711
O9    O     O_R   0.508800 0.390690 0.353590 -0.637607
O10   O     O_R   0.693580 0.406210 0.506230 -0.619193
O11   O     O_R   0.306420 0.593790 0.493770 -0.615932
O12   O     O_R   0.678510 0.593830 0.493810 -0.591218
O13   O     O_R   0.321490 0.406170 0.506190 -0.588032
O14   O     O_3   0.910920 0.371715 0.650787 -0.614148
Zn1   Zn    Zn3+2 0.510060 0.374730 0.508290 0.963937
Zn2   Zn    Zn3+2 0.489940 0.625270 0.491710 0.962142

loop_
_geom_bond_atom_site_label_1
_geom_bond_atom_site_label_2
_ccdc_geom_bond_type
O8    Zn2   S    
C31   O5    S    
C34   C37   A    
C28   H16   S    
O10   Zn1   S    
C21   C36   A    
C18   C24   A    
C36   C37   A    
C9    C16   S    
C26   H10   S    
C5    C6    A    
O1    Zn1   S    
C11   C14   S    
C10   C17   S    
C1    O1    A    
O12   Zn2   S    
C2    N1    A    
O11   Zn2   S    
C2    C39   A    
C35   H30   S    
C30   H20   S    
C40   N2    A    
N2    Zn2   S    
C25   H7    S    
C33   H29   S    
C1    O8    A    
C40   H2    S    
C35   H31   S    
C25   O14   S    
O13   Zn1   S    
O7    Zn2   S    
C31   H22   S    
C22   H35   S    
C23   H33   S    
C3    N2    A    
C28   H15   S    
C27   H11   S    
C1    C19   S    
C12   O9    A    
C19   C22   A    
C4    N1    A    
C4    C6    A    
C10   C14   S    
C26   H9    S    
C28   H14   S    
C7    O10   A    
C10   O2    S    
C16   O3    S    
O9    Zn1   S    
C19   C23   A    
C33   O6    S    
N1    Zn1   S    
C29   C30   S    
C2    H38   S    
C13   H12   S    
C9    C11   S    
C31   C32   S    
C20   O5    S    
C6    C38   A    
C8    O11   A    
C18   C34   A    
C29   O4    S    
C32   H27   S    
C20   C22   A    
C35   H32   S    
C13   C15   S    
C14   C16   S    
C13   C16   S    
C21   C24   A    
C3    H37   S    
C25   H5    S    
C32   H26   S    
C15   C17   S    
C21   O6    S    
C11   C17   S    
C8    C14   S    
C12   O7    A    
C31   H24   S    
C8    O13   A    
C29   H17   S    
C3    C5    A    
C10   C13   S    
C27   H13   S    
C39   H4    S    
C26   H8    S    
C17   O4    S    
C5    C39   A    
C9    C15   S    
C38   H3    S    
C38   C40   A    
C20   C37   A    
C24   H34   S    
C7    O12   A    
C25   H6    S    
C7    C15   S    
C34   H23   S    
C33   C35   S    
C11   H1    S    
C4    H36   S    
C27   O3    S    
C29   H18   S    
C26   O2    S    
C23   C36   A    
C30   H21   S    
C12   C18   S    
C27   C28   S    
C30   H19   S    
C9    O14   S    
C33   H28   S    
C32   H25   S    
