data_mof_unit_13607.cif
_audit_creation_date              2012-12-10T16:44:51-0500
_audit_creation_method            fapswitch 2.2
_symmetry_space_group_name_H-M    P1
_symmetry_Int_Tables_number       1
_space_group_crystal_system       triclinic
_cell_length_a                    18.572385
_cell_length_b                    18.463103
_cell_length_c                    18.514771
_cell_angle_alpha                 119.983672
_cell_angle_beta                  120.07554
_cell_angle_gamma                 90.043286
_cell_volume                      4483.54295292

loop_
_atom_site_label
_atom_site_type_symbol
_atom_type_description
_atom_site_fract_x
_atom_site_fract_y
_atom_site_fract_z
_atom_type_partial_charge
C1    C     C_R   0.138728 0.361663 0.999462 0.498789
C2    C     C_R   0.883222 0.356104 0.292860 0.263445
C3    C     C_R   0.935559 0.409936 0.292287 -0.036466
C4    C     C_R   0.863093 0.639671 0.001326 0.526673
C5    C     C_R   0.897599 0.409511 0.204755 0.244265
C6    C     C_2   0.726171 0.779706 0.947289 -0.028251
C7    C     C_2   0.675696 0.789707 0.982554 0.245042
C8    C     C_2   0.763239 0.707815 0.933975 0.300938
C9    C     C_2   0.823554 0.708789 0.015872 0.049418
C10   C     C_2   0.721061 0.279866 0.444374 -0.118148
C11   C     C_2   0.683139 0.192011 0.386495 -0.092536
C12   C     C_R   0.612630 0.112258 0.819725 0.260139
C13   C     C_2   0.759853 0.331829 0.554766 0.231755
C14   C     C_2   0.815903 0.305234 0.611066 0.275145
C15   C     C_2   0.333566 0.276897 0.054381 -0.135713
C16   C     C_R   0.138609 0.636146 0.276850 0.509896
C17   C     C_2   0.306096 0.191059 0.015918 0.261298
C18   C     C_2   0.278181 0.331514 0.067056 0.003586
C19   C     C_2   0.194589 0.308201 0.986174 0.065310
C20   C     C_2   0.228513 0.750983 0.924782 0.033783
C21   C     C_2   0.304733 0.817948 0.010064 0.060537
C22   C     C_2   0.167600 0.715782 0.935729 -0.014992
C23   C     C_R   0.690337 0.176908 0.919123 -0.101692
C24   C     C_2   0.191638 0.667903 0.974682 0.279852
C25   C     C_2   0.240692 0.740911 0.556847 0.262311
C26   C     C_2   0.305501 0.818841 0.614718 0.002452
C27   C     C_2   0.171990 0.703290 0.449716 -0.008717
C28   C     C_R   0.862247 0.361128 0.722562 0.534289
C29   C     C_2   0.196650 0.676523 0.386107 -0.111456
C30   C     C_R   0.637674 0.138375 0.276864 0.521367
C31   C     C_R   0.361871 0.863684 0.723905 0.530961
C32   C     C_R   0.637134 0.860280 0.998631 0.511811
C33   C     C_R   0.361707 0.138154 0.002096 0.494847
C34   C     C_R   0.761578 0.213874 0.926663 -0.061122
C35   C     C_R   0.360573 0.860899 0.000280 0.507437
C36   C     C_R   0.642904 0.141223 0.004151 0.577659
C37   C     C_R   0.139154 0.636944 0.997230 0.509220
C38   C     C_R   0.865522 0.359406 0.005317 0.528965
C39   C     C_R   0.771334 0.160189 0.846382 0.265298
C40   C     C_R   0.697727 0.090463 0.749149 -0.020127
C41   C     C_R   0.618140 0.065949 0.735913 0.271308
C42   C     C_3   0.023248 0.478808 0.388234 -0.364508
C43   C     C_3   0.572247 0.686079 0.950034 0.014490
C44   C     C_3   0.548252 0.697957 0.022263 -0.242288
C45   C     C_R   0.700924 0.201781 0.010469 -0.005389
C46   C     C_3   0.449528 0.654284 0.964377 -0.477878
C47   C     C_3   0.650212 0.589746 0.772115 0.016973
C48   C     C_3   0.639884 0.512447 0.780532 -0.263512
C49   C     C_3   0.544017 0.451139 0.706216 -0.503120
C50   C     C_3   0.858600 0.781985 0.125608 -0.388090
C51   C     C_3   0.658093 0.408538 0.543465 0.003967
C52   C     C_3   0.660689 0.481886 0.527552 -0.255533
C53   C     C_3   0.567925 0.480988 0.461729 -0.498053
C54   C     C_3   0.828220 0.167592 0.577223 0.007997
C55   C     C_3   0.915822 0.155876 0.636338 -0.234016
C56   C     C_R   0.774637 0.277268 0.107339 -0.104030
C57   C     C_3   0.903346 0.088070 0.656866 -0.482826
C58   C     C_3   0.229774 0.129823 0.049826 0.021187
C59   C     C_3   0.150545 0.048649 0.989710 -0.248618
C60   C     C_3   0.152272 0.025043 0.058522 -0.494271
C61   C     C_3   0.318243 0.411282 0.175196 -0.384146
C62   C     C_3   0.888597 0.109092 0.891893 0.013074
C63   C     C_3   0.955222 0.158721 0.007913 -0.255486
C64   C     C_3   0.034105 0.231887 0.051962 -0.381252
C65   C     C_3   0.156859 0.232928 0.876342 -0.349929
C66   C     C_3   0.203526 0.708218 0.817516 -0.372131
C67   C     C_R   0.829882 0.331095 0.107824 -0.065770
C68   C     C_3   0.329216 0.859151 0.117168 -0.385526
C69   C     C_3   0.086109 0.742899 0.911806 -0.409893
C70   C     C_3   0.250433 0.556797 0.927326 0.012307
C71   C     C_3   0.306865 0.521183 0.987777 -0.248544
C72   C     C_3   0.294290 0.424131 0.916951 -0.491540
C73   C     C_3   0.299488 0.663891 0.626899 0.017135
C74   C     C_3   0.262753 0.576313 0.605886 -0.260119
C75   C     C_3   0.336467 0.542648 0.650829 -0.500194
C76   C     C_3   0.310779 0.870858 0.574115 -0.441788
C77   C     C_3   0.079288 0.697428 0.418246 -0.356657
C78   C     C_R   0.819739 0.301343 0.014376 0.011568
C79   C     C_3   0.705958 0.043172 0.660977 -0.366321
C80   C     C_3   0.530505 0.920830 0.639108 0.024261
C81   C     C_3   0.600272 0.875506 0.641544 -0.291496
C82   C     C_3   0.575349 0.788554 0.627909 -0.486365
C83   C     C_3   0.501232 0.164390 0.822458 0.004533
C84   C     C_3   0.422576 0.146406 0.825233 -0.241005
C85   C     C_3   0.393418 0.227536 0.858574 -0.486560
C86   C     C_3   0.696086 0.366229 0.221049 0.013353
C87   C     C_3   0.632735 0.371508 0.251582 -0.242784
C88   C     C_3   0.588331 0.439719 0.245475 -0.504672
C89   C     C_R   0.796628 0.303215 0.205357 0.276370
C90   C     C_3   0.898297 0.426334 0.445699 0.019864
C91   C     C_3   0.955003 0.443225 0.550912 -0.265788
C92   C     C_3   0.939738 0.515054 0.626104 -0.478969
C93   C     C_3   0.857643 0.534476 0.241371 0.020030
C94   C     C_3   0.767078 0.505497 0.143918 -0.252983
C95   C     C_3   0.710035 0.557806 0.169591 -0.501556
C96   C     C_3   0.746835 0.837107 0.919341 -0.398704
H1    H     H_    0.717568 0.314751 0.410493 0.134483
H2    H     H_    0.585467 0.668232 0.062864 0.151617
H3    H     H_    0.366460 0.089646 0.748103 0.153901
H4    H     H_    0.441094 0.128387 0.879759 0.182144
H5    H     H_    0.447464 0.284034 0.937446 0.139901
H6    H     H_    0.335418 0.211527 0.857912 0.141085
H7    H     H_    0.374633 0.247203 0.805464 0.141907
H8    H     H_    0.658663 0.350435 0.142597 0.137772
H9    H     H_    0.748065 0.432731 0.275713 0.086778
H10   H     H_    0.581442 0.305809 0.200293 0.231625
H11   H     H_    0.669527 0.390189 0.330749 0.133646
H12   H     H_    0.638503 0.507053 0.300130 0.141056
H13   H     H_    0.567134 0.769684 0.080461 0.211218
H14   H     H_    0.540943 0.440258 0.265341 0.143197
H15   H     H_    0.551581 0.422737 0.166746 0.139328
H16   H     H_    0.828001 0.405386 0.416587 0.167571
H17   H     H_    0.914738 0.489477 0.454341 0.104716
H18   H     H_    0.938568 0.380786 0.543336 0.200691
H19   H     H_    0.025927 0.464126 0.581656 0.156830
H20   H     H_    0.959071 0.579150 0.638174 0.132451
H21   H     H_    0.980435 0.523848 0.700663 0.167547
H22   H     H_    0.869175 0.495752 0.596877 0.182489
H23   H     H_    0.889483 0.606555 0.283124 0.136848
H24   H     H_    0.411023 0.682660 0.922680 0.152527
H25   H     H_    0.849838 0.527499 0.293678 0.088887
H26   H     H_    0.776122 0.516760 0.094980 0.200881
H27   H     H_    0.731291 0.433994 0.099876 0.143246
H28   H     H_    0.698951 0.547010 0.217619 0.137983
H29   H     H_    0.644998 0.535128 0.097876 0.141813
H30   H     H_    0.742418 0.629801 0.211053 0.150602
H31   H     H_    0.775431 0.908235 0.984296 0.130610
H32   H     H_    0.795957 0.820813 0.901517 0.139522
H33   H     H_    0.686325 0.825473 0.850264 0.154378
H34   H     H_    0.434464 0.666992 0.019706 0.182388
H35   H     H_    0.429401 0.581497 0.909138 0.128729
H36   H     H_    0.626471 0.562669 0.692537 0.140730
H37   H     H_    0.606617 0.627806 0.785759 0.113855
H38   H     H_    0.681891 0.473754 0.763902 0.183443
H39   H     H_    0.662323 0.538724 0.859704 0.161274
H40   H     H_    0.501302 0.487968 0.723495 0.138702
H41   H     H_    0.681231 0.158449 0.419975 0.102838
H42   H     H_    0.539035 0.395627 0.713693 0.146665
H43   H     H_    0.519942 0.423117 0.626175 0.134935
H44   H     H_    0.931713 0.801796 0.174930 0.107903
H45   H     H_    0.843617 0.843124 0.135792 0.130240
H46   H     H_    0.831243 0.757186 0.153480 0.170882
H47   H     H_    0.629278 0.421526 0.586780 0.143527
H48   H     H_    0.612014 0.343526 0.468704 0.109203
H49   H     H_    0.699044 0.547447 0.603018 0.188473
H50   H     H_    0.694703 0.472989 0.490172 0.147352
H51   H     H_    0.529201 0.416647 0.385021 0.144048
H52   H     H_    0.399701 0.309248 0.082730 0.098316
H53   H     H_    0.572219 0.535200 0.452081 0.144280
H54   H     H_    0.533252 0.491260 0.498767 0.133728
H55   H     H_    0.786071 0.104641 0.499405 0.138592
H56   H     H_    0.791515 0.176753 0.612142 0.129798
H57   H     H_    0.943903 0.133247 0.591122 0.159774
H58   H     H_    0.963828 0.220264 0.710356 0.196333
H59   H     H_    0.886200 0.114883 0.712637 0.192498
H60   H     H_    0.965562 0.073738 0.689447 0.138400
H61   H     H_    0.850304 0.025012 0.584844 0.134171
H62   H     H_    0.229216 0.187483 0.111640 0.127803
H63   H     H_    0.265530 0.681872 0.416509 0.080247
H64   H     H_    0.291071 0.114631 0.085958 0.118934
H65   H     H_    0.088316 0.061896 0.953343 0.155886
H66   H     H_    0.151448 0.991097 0.928189 0.184349
H67   H     H_    0.212873 0.009019 0.093438 0.148368
H68   H     H_    0.093793 0.966111 0.012449 0.140885
H69   H     H_    0.150301 0.081260 0.119953 0.143264
H70   H     H_    0.381828 0.411132 0.230579 0.103567
H71   H     H_    0.332302 0.473483 0.181686 0.156205
H72   H     H_    0.273089 0.410420 0.197694 0.134640
H73   H     H_    0.922895 0.079598 0.854973 0.131007
H74   H     H_    0.054391 0.458955 0.441514 0.152129
H75   H     H_    0.836846 0.051786 0.863076 0.084277
H76   H     H_    0.922154 0.187762 0.046523 0.157773
H77   H     H_    0.979882 0.110310 0.024429 0.107855
H78   H     H_    0.064782 0.205435 0.009971 0.164829
H79   H     H_    0.084379 0.259415 0.133630 0.104157
H80   H     H_    0.013316 0.286547 0.047445 0.199561
H81   H     H_    0.125779 0.256164 0.826467 0.087297
H82   H     H_    0.207200 0.208165 0.865220 0.131069
H83   H     H_    0.105489 0.177432 0.849945 0.171897
H84   H     H_    0.145104 0.646749 0.761637 0.111481
H85   H     H_    0.068895 0.486986 0.368714 0.144200
H86   H     H_    0.186213 0.753966 0.794138 0.170803
H87   H     H_    0.258955 0.689728 0.813598 0.119774
H88   H     H_    0.273696 0.877155 0.121287 0.107270
H89   H     H_    0.346268 0.812780 0.139518 0.179436
H90   H     H_    0.387439 0.920929 0.174582 0.124268
H91   H     H_    0.086351 0.789982 0.891175 0.121563
H92   H     H_    0.025662 0.684095 0.845714 0.162216
H93   H     H_    0.084152 0.776750 0.979717 0.135872
H94   H     H_    0.267782 0.548916 0.875024 0.136930
H95   H     H_    0.179558 0.515234 0.878198 0.107493
H96   H     H_    0.014408 0.543423 0.427447 0.131555
H97   H     H_    0.377729 0.561209 0.036591 0.158413
H98   H     H_    0.288311 0.527051 0.038466 0.202133
H99   H     H_    0.223767 0.382791 0.866981 0.146818
H100  H     H_    0.334122 0.399779 0.963228 0.148208
H101  H     H_    0.316257 0.417124 0.868627 0.139408
H102  H     H_    0.351513 0.711384 0.710259 0.140571
H103  H     H_    0.330415 0.650815 0.584978 0.104774
H104  H     H_    0.225131 0.585337 0.639472 0.169025
H105  H     H_    0.217115 0.525826 0.521977 0.155380
H106  H     H_    0.375082 0.533152 0.618330 0.140306
H107  H     H_    0.561148 0.614618 0.899576 0.131155
H108  H     H_    0.307484 0.478043 0.632175 0.146367
H109  H     H_    0.381261 0.590567 0.735289 0.129509
H110  H     H_    0.364307 0.936248 0.636355 0.165351
H111  H     H_    0.324414 0.834457 0.516070 0.114435
H112  H     H_    0.247630 0.883266 0.539388 0.131038
H113  H     H_    0.076022 0.727150 0.485126 0.134673
H114  H     H_    0.053504 0.733221 0.382191 0.132909
H115  H     H_    0.038435 0.626898 0.364714 0.195759
H116  H     H_    0.642161 0.994694 0.586890 0.163310
H117  H     H_    0.729733 0.092526 0.653512 0.132147
H118  H     H_    0.526523 0.704585 0.899103 0.101336
H119  H     H_    0.753598 0.007238 0.674646 0.112863
H120  H     H_    0.466010 0.872604 0.566184 0.148043
H121  H     H_    0.524693 0.935622 0.701634 0.201217
H122  H     H_    0.605898 0.861198 0.579086 0.163778
H123  H     H_    0.665516 0.919819 0.715959 0.148064
H124  H     H_    0.566987 0.800658 0.687925 0.158750
H125  H     H_    0.628306 0.758805 0.634013 0.144358
H126  H     H_    0.512713 0.740780 0.551516 0.143335
H127  H     H_    0.479842 0.173361 0.760374 0.138481
H128  H     H_    0.552839 0.227119 0.897112 0.116418
O1    O     O_3   0.000000 0.500000 0.000000 -0.451548
O2    O     O_R   0.325040 0.054120 0.939900 -0.520871
O3    O     O_R   0.444330 0.884140 0.060080 -0.554478
O4    O     O_R   0.054210 0.325030 0.939940 -0.547897
O5    O     O_R   0.615830 0.175840 0.060080 -0.504893
O6    O     O_R   0.324160 0.884140 0.939910 -0.554224
O7    O     O_R   0.615850 0.055700 0.939930 -0.516490
O8    O     O_R   0.614980 0.885710 0.939940 -0.582561
O9    O     O_R   0.445830 0.174930 0.060060 -0.609355
O10   O     O_R   0.614300 0.054120 0.229160 -0.542982
O11   O     O_R   0.325070 0.885060 0.770830 -0.513909
O12   O     O_R   0.054160 0.614240 0.229150 -0.522507
O13   O     O_R   0.885070 0.614240 0.060060 -0.566835
O14   O     O_R   0.174980 0.614900 0.229170 -0.548778
O15   O     O_R   0.885740 0.445830 0.770840 -0.502926
O16   O     O_R   0.175880 0.615810 0.060090 -0.529993
O17   O     O_R   0.884210 0.324110 0.939920 -0.496100
O18   O     O_R   0.055710 0.615810 0.939920 -0.581881
O19   O     O_R   0.884190 0.444260 0.060070 -0.497070
O20   O     O_3   0.663099 0.733708 0.008039 -0.598152
O21   O     O_3   0.740379 0.642345 0.836946 -0.552729
O22   O     O_3   0.745476 0.411128 0.603324 -0.569431
O23   O     O_R   0.885120 0.325030 0.770840 -0.568137
O24   O     O_3   0.843692 0.235987 0.566866 -0.609118
O25   O     O_3   0.222675 0.150137 0.982761 -0.579710
O26   O     O_3   0.854329 0.167340 0.865577 -0.521880
O27   O     O_3   0.269400 0.648638 0.996135 -0.593313
O28   O     O_3   0.230631 0.699158 0.597927 -0.565325
O29   O     O_3   0.545920 0.996824 0.640291 -0.567219
O30   O     O_3   0.531608 0.091021 0.803024 -0.558424
O31   O     O_3   0.733711 0.299880 0.223752 -0.520083
O32   O     O_3   0.913954 0.357795 0.379331 -0.550318
O33   O     O_3   0.913904 0.490213 0.219089 -0.535793
O34   O     O_R   0.175010 0.445830 0.060100 -0.563573
O35   O     O_R   0.885710 0.614900 0.939900 -0.492295
O36   O     O_3   0.500040 0.999960 0.000000 -0.443603
O37   O     O_R   0.614930 0.174930 0.229160 -0.531938
O38   O     O_R   0.445880 0.885710 0.770850 -0.568791
O39   O     O_R   0.614330 0.885060 0.060100 -0.530290
Zn1   Zn    Zn3+2 0.956610 0.542450 0.085830 0.931460
Zn2   Zn    Zn3+2 0.129220 0.543380 0.085850 0.904507
Zn3   Zn    Zn3+2 0.957530 0.543380 0.914160 0.943514
Zn4   Zn    Zn3+2 0.956640 0.370790 0.914170 0.925728
Zn5   Zn    Zn3+2 0.543440 0.957510 0.914170 0.909969
Zn6   Zn    Zn3+2 0.542510 0.956570 0.085840 0.917074
Zn7   Zn    Zn3+2 0.370820 0.956570 0.914150 0.922548
Zn8   Zn    Zn3+2 0.543410 0.129170 0.085830 0.919728

loop_
_geom_bond_atom_site_label_1
_geom_bond_atom_site_label_2
_ccdc_geom_bond_type
C95   H28   S    
C55   H58   S    
C66   H87   S    
C32   O8    A    
C3    C42   S    
C40   C41   A    
C93   C94   S    
C23   C45   A    
C27   C29   D    
C75   H109  S    
C73   C74   S    
C48   H39   S    
C90   H16   S    
C87   C88   S    
C86   H8    S    
C72   H99   S    
C87   H11   S    
C81   C82   S    
C90   C91   S    
C33   O9    A    
C29   H63   S    
C82   H125  S    
C51   H48   S    
O15   Zn3   S    
O11   Zn7   S    
C47   O21   S    
C62   H75   S    
C57   H59   S    
C12   C23   A    
C52   H49   S    
C65   H81   S    
C87   H10   S    
C31   O38   A    
C35   O3    A    
C20   C66   S    
C93   H25   S    
C18   C19   D    
C28   O15   A    
O38   Zn5   S    
C15   H52   S    
C88   H12   S    
C25   O28   S    
C50   H44   S    
C71   H97   S    
C72   H100  S    
C65   H82   S    
C16   O12   A    
C81   H123  S    
C41   O29   S    
C53   H51   S    
C60   H67   S    
C76   H112  S    
C96   H32   S    
C15   C17   D    
C61   H70   S    
C90   H17   S    
O36   Zn6   S    
C62   H73   S    
C92   H22   S    
C2    C89   A    
C90   O32   S    
C77   H113  S    
C42   H74   S    
C72   H101  S    
C88   H15   S    
C44   H2    S    
O3    Zn6   S    
C83   C84   S    
C45   C56   A    
C76   H110  S    
C36   O5    A    
C7    O20   S    
C26   C76   S    
C4    O13   A    
O17   Zn4   S    
C70   C71   S    
C37   O18   A    
C54   O24   S    
O36   Zn5   S    
C69   H91   S    
C22   C69   S    
C85   H7    S    
C50   H45   S    
C5    C67   A    
C73   O28   S    
O23   Zn4   S    
C44   H13   S    
C79   H119  S    
C13   O22   S    
C66   H86   S    
C68   H90   S    
C59   C60   S    
O7    Zn5   S    
C47   H37   S    
O13   Zn1   S    
C53   H53   S    
C43   H118  S    
C67   C78   A    
C17   C33   S    
O1    Zn2   S    
C75   H106  S    
C44   C46   S    
C70   H95   S    
C63   H77   S    
C32   O39   A    
C14   O24   S    
O14   Zn2   S    
C42   H85   S    
C79   H116  S    
C15   C18   S    
C57   H60   S    
C1    C19   S    
C12   O30   S    
C74   C75   S    
C83   O30   S    
C34   C39   A    
C84   H4    S    
C51   O22   S    
C84   C85   S    
C11   C30   S    
C80   H120  S    
C33   O2    A    
C80   O29   S    
C69   H93   S    
C80   H121  S    
C86   C87   S    
C8    C9    D    
C71   H98   S    
C54   H56   S    
O6    Zn7   S    
C27   C77   S    
C25   C26   D    
C66   H84   S    
C51   C52   S    
C96   H31   S    
C59   H65   S    
C61   H71   S    
C28   O23   A    
C10   H1    S    
C92   H21   S    
C8    O21   S    
C46   H34   S    
C62   C63   S    
C38   O19   A    
O4    Zn4   S    
C42   H96   S    
C95   H29   S    
C47   C48   S    
C79   H117  S    
C23   C34   A    
C73   H102  S    
C5    O33   S    
C24   C37   S    
C40   C79   S    
C46   H24   S    
C36   C45   S    
C30   O10   A    
C64   H79   S    
C92   H20   S    
C69   H92   S    
C54   H55   S    
C77   H114  S    
C93   O33   S    
C83   H128  S    
C94   H26   S    
C1    O4    A    
C34   C78   A    
C56   C89   A    
C74   H105  S    
C49   H40   S    
C74   H104  S    
C68   H89   S    
O12   Zn1   S    
C4    O35   A    
C6    C96   S    
O36   Zn7   S    
C49   H43   S    
C43   C44   S    
C58   H62   S    
C53   H54   S    
C22   C24   D    
C58   C59   S    
C86   H9    S    
C64   H80   S    
O19   Zn1   S    
C64   H78   S    
C3    C5    A    
O1    Zn3   S    
C91   C92   S    
C85   H5    S    
C52   C53   S    
C70   H94   S    
O10   Zn6   S    
C1    O34   A    
C48   H38   S    
C55   H57   S    
C38   O17   A    
C57   H61   S    
C54   C55   S    
C68   H88   S    
C52   H50   S    
C7    C32   S    
C84   H3    S    
C26   C31   S    
O16   Zn2   S    
C24   O27   S    
C9    C50   S    
C20   C22   S    
C80   C81   S    
C37   O16   A    
C10   C13   S    
C2    O32   S    
O9    Zn8   S    
C6    C8    S    
C75   H108  S    
C76   H111  S    
C18   C61   S    
C6    C7    D    
C21   C35   S    
C12   C41   A    
C51   H47   S    
C43   O20   S    
C25   C27   S    
C56   C67   A    
C65   H83   S    
C38   C78   S    
C60   H69   S    
C91   H18   S    
C47   H36   S    
C30   O37   A    
C35   O6    A    
O36   Zn8   S    
C55   C57   S    
C2    C3    A    
C86   O31   S    
C88   H14   S    
C71   C72   S    
C21   C68   S    
O35   Zn3   S    
C58   H64   S    
C94   H27   S    
C43   H107  S    
O5    Zn8   S    
C95   H30   S    
C63   H76   S    
C39   O26   S    
C31   O11   A    
C83   H127  S    
C46   H35   S    
C36   O7    A    
C48   C49   S    
C81   H122  S    
C73   H103  S    
C17   O25   S    
C60   H68   S    
C91   H19   S    
C19   C65   S    
O18   Zn3   S    
C11   H41   S    
C94   C95   S    
O37   Zn8   S    
C10   C11   D    
C77   H115  S    
O39   Zn6   S    
C16   O14   A    
C63   C64   S    
C39   C40   A    
O8    Zn5   S    
C62   O26   S    
C82   H124  S    
C20   C21   D    
C16   C29   S    
C61   H72   S    
C82   H126  S    
C89   O31   S    
C59   H66   S    
C58   O25   S    
C49   H42   S    
C93   H23   S    
O1    Zn1   S    
C14   C28   S    
C4    C9    S    
C13   C14   D    
O34   Zn2   S    
C70   O27   S    
O1    Zn4   S    
O2    Zn7   S    
C85   H6    S    
C50   H46   S    
C96   H33   S    
