data_mof_unit_7911.cif
_audit_creation_date              2013-03-05T15:53:16-0500
_audit_creation_method            fapswitch 2.2
_symmetry_space_group_name_H-M    P1
_symmetry_Int_Tables_number       1
_space_group_crystal_system       triclinic
_cell_length_a                    11.538563
_cell_length_b                    10.690514
_cell_length_c                    9.977292
_cell_angle_alpha                 90.638295
_cell_angle_beta                  89.711881
_cell_angle_gamma                 92.044833
_cell_volume                      1229.85734655

loop_
_atom_site_label
_atom_site_type_symbol
_atom_site_description
_atom_site_fract_x
_atom_site_fract_y
_atom_site_fract_z
_atom_type_partial_charge
O1    O     O_R   0.500000 0.316780 0.614690 -0.651355
O2    O     O_R   0.499990 0.316750 0.385360 -0.637365
C1    C     C_R   0.506216 0.259933 0.499831 0.867375
O3    O     O_R   0.334450 0.500030 0.614670 -0.642551
O4    O     O_R   0.334440 0.500000 0.385330 -0.616622
C2    C     C_R   0.282200 0.499500 0.500261 0.866120
Zn1   Zn    Zn3+2 0.500010 0.500020 0.653130 0.943018
Zn2   Zn    Zn3+2 0.499990 0.499980 0.346870 1.049952
O5    O     O_R   0.500010 0.683250 0.614640 -0.631080
O6    O     O_R   0.500000 0.683220 0.385310 -0.510816
O7    O     O_R   0.665560 0.500000 0.614670 -0.618138
O8    O     O_R   0.665550 0.499970 0.385330 -0.560899
C3    C     C_R   0.484002 0.738009 0.501113 0.928859
C4    C     C_R   0.717791 0.500365 0.499722 0.918033
C5    C     C_1   0.161637 0.499456 0.500648 -0.145519
C6    C     C_1   0.059385 0.499565 0.500257 0.029192
C7    C     C_1   0.940618 0.499847 0.499519 0.042053
C8    C     C_1   0.838365 0.500123 0.499233 -0.124858
H1    H     H_    0.455306 0.112178 0.291640 0.197834
C9    C     C_R   0.563356 0.112622 0.741064 -0.180306
H2    H     H_    0.619361 0.195865 0.739628 0.182863
C10   C     C_R   0.538673 0.058201 0.864527 0.214573
C11   C     C_R   0.467164 0.950548 0.869515 -0.143783
H3    H     H_    0.436459 0.913884 0.963083 0.225701
C12   C     C_R   0.436380 0.887373 0.751748 -0.170870
H4    H     H_    0.383489 0.802027 0.759123 0.181587
C13   C     C_R   0.469598 0.937359 0.626621 0.053134
C14   C     C_R   0.514988 0.059881 0.622346 0.058020
C15   C     C_R   0.505456 0.125271 0.500734 -0.144323
C16   C     C_R   0.469330 0.062561 0.383787 -0.271334
C17   C     C_R   0.448736 0.935113 0.384319 0.348361
C18   C     C_R   0.459046 0.870198 0.504858 -0.246035
C19   C     C_R   0.341888 0.342355 0.138521 -0.109042
H5    H     H_    0.341025 0.332445 0.244614 0.190978
C20   C     C_R   0.264784 0.263463 0.068221 -0.160260
H6    H     H_    0.206253 0.200192 0.121900 0.165977
C21   C     C_R   0.264706 0.263427 0.929443 -0.169110
H7    H     H_    0.205913 0.200345 0.875062 0.161188
C22   C     C_R   0.341871 0.342113 0.859959 -0.120909
H8    H     H_    0.339879 0.333130 0.753594 0.201000
C23   C     C_R   0.420390 0.424419 0.927569 0.153774
C24   C     C_R   0.419994 0.424965 0.071792 0.117750
N1    N     N_R   0.498930 0.498800 0.142780 -0.166800
C25   C     C_R   0.583740 0.563393 0.070299 0.381262
H9    H     H_    0.646930 0.618777 0.873477 0.189964
C26   C     C_R   0.580705 0.565734 0.927833 -0.155815
N2    N     N_R   0.498900 0.498720 0.857170 -0.148715
I1    I     I_    0.606951 0.142190 0.040592 -0.310846
N3    N     N_R   0.418700 0.872969 0.261484 0.206562
O9    O     O_R   0.320242 0.810591 0.250601 -0.398280
O10   O     O_R   0.499101 0.857699 0.172067 -0.372620
N4    N     N_R   0.684563 0.617371 0.134902 0.223947
O11   O     O_R   0.786873 0.592975 0.088069 -0.388389
O12   O     O_R   0.675659 0.706691 0.223075 -0.302432

loop_
_geom_bond_atom_site_label_1
_geom_bond_atom_site_label_2
_geom_bond_distance
_ccdc_geom_bond_type
C7    C8    1.179977 T    
O4    Zn2   1.946485 S    
C10   I1    2.107376 S    
N1    C25   1.383192 A    
C21   H7    1.082722 S    
C12   C13   1.409418 A    
C23   C24   1.438886 A    
C4    C8    1.391336 S    
C3    C18   1.452272 S    
C17   C18   1.402871 A    
Zn2   N1    2.036260 S    
O8    C4    1.293294 A    
C16   C17   1.374744 A    
Zn2   O8    1.950377 S    
C25   N4    1.432888 S    
N3    O10   1.297100 A    
C19   H5    1.064944 S    
C12   H4    1.082419 S    
C21   C22   1.390795 A    
O1    Zn1   1.991920 S    
H9    C26   1.082285 S    
C9    H2    1.081160 S    
Zn1   O7    1.946483 S    
C15   C16   1.397202 A    
C17   N3    1.425895 S    
O3    Zn1   1.950379 S    
C19   C24   1.409149 A    
O3    C2    1.293464 A    
C14   C15   1.413763 A    
C19   C20   1.390805 A    
N4    O12   1.297549 A    
O2    C1    1.303038 A    
C11   C12   1.390073 A    
C23   N2    1.378268 A    
O4    C2    1.292766 A    
O7    C4    1.292873 A    
C24   N1    1.377309 A    
C13   C18   1.407851 A    
C11   H3    1.070325 S    
C5    C6    1.179913 T    
Zn1   O5    2.000306 S    
C22   H8    1.064796 S    
N4    O11   1.301413 A    
C22   C23   1.409291 A    
Zn2   O6    1.991920 S    
N3    O9    1.301025 A    
C13   C14   1.394211 A    
C1    C15   1.439455 S    
O5    C3    1.297846 A    
C26   N2    1.359580 A    
C9    C14   1.414805 A    
C20   C21   1.384629 A    
C2    C5    1.391084 S    
C10   C11   1.393155 A    
H1    C16   1.082257 S    
C25   C26   1.422558 A    
O2    Zn2   2.000306 S    
C20   H6    1.082728 S    
C9    C10   1.391977 A    
C6    C7    1.370569 S    
O1    C1    1.294025 A    
O6    C3    1.304834 A    
Zn1   N2    2.035942 S    
