data_mof_unit_44909.cif
_audit_creation_date              2012-10-26T20:20:48-0400
_audit_creation_method            fapswitch 2.2
_symmetry_space_group_name_H-M    P1
_symmetry_Int_Tables_number       1
_space_group_crystal_system       triclinic
_cell_length_a                    8.881621
_cell_length_b                    10.817552
_cell_length_c                    9.553036
_cell_angle_alpha                 90.850011
_cell_angle_beta                  98.173576
_cell_angle_gamma                 91.694534
_cell_volume                      907.941968069

loop_
_atom_site_label
_atom_site_type_symbol
_atom_type_description
_atom_site_fract_x
_atom_site_fract_y
_atom_site_fract_z
_atom_type_partial_charge
C1    C     C_R   0.499574 0.262189 0.499305 0.555556
C2    C     C_R   0.469910 0.064926 0.619851 -0.117385
C3    C     C_R   0.500674 0.871720 0.500929 0.028192
C4    C     C_R   0.499326 0.128280 0.499071 0.028192
C5    C     C_R   0.414456 0.413829 0.058966 0.214611
C6    C     C_R   0.585544 0.586171 0.941034 0.214611
C7    C     C_R   0.416610 0.413826 0.911516 0.042489
C8    C     C_R   0.583390 0.586174 0.088484 0.042489
C9    C     C_R   0.500426 0.737811 0.500695 0.555555
C10   C     C_R   0.204358 0.499870 0.464181 0.574387
C11   C     C_R   0.795642 0.500130 0.535819 0.574386
C12   C     C_2   0.039860 0.497509 0.443819 0.045982
C13   C     C_2   0.960139 0.502491 0.556181 0.045982
C14   C     C_R   0.529512 0.062903 0.379278 -0.110613
C15   C     C_R   0.470488 0.937097 0.620722 -0.110613
C16   C     C_R   0.530090 0.935074 0.380148 -0.117385
Cu1   Cu    Cu3+1 0.500000 0.500020 0.640660 1.036619
Cu2   Cu    Cu3+1 0.500000 0.499980 0.359340 1.036618
H1    H     H_    0.553861 0.110345 0.285573 0.158852
H2    H     H_    0.446139 0.889655 0.714427 0.158853
H3    H     H_    0.554369 0.886065 0.286558 0.142164
H4    H     H_    0.445631 0.113934 0.713442 0.142164
H5    H     H_    0.349495 0.345324 0.844111 0.144200
H6    H     H_    0.650505 0.654675 0.155889 0.144200
I1    I     I_    0.947141 0.482498 0.221833 -0.239602
I2    I     I_    0.052858 0.517502 0.778167 -0.239602
I3    I     I_    0.267193 0.275589 0.125060 -0.278758
I4    I     I_    0.732807 0.724411 0.874940 -0.278757
N1    N     N_R   0.500040 0.500030 0.852080 -0.239056
N2    N     N_R   0.499960 0.499970 0.147920 -0.239056
O1    O     O_R   0.499990 0.319660 0.618740 -0.522221
O2    O     O_R   0.500010 0.680340 0.381260 -0.522221
O3    O     O_R   0.499990 0.319630 0.381170 -0.485760
O4    O     O_R   0.500010 0.680370 0.618830 -0.485760
O5    O     O_R   0.274840 0.500010 0.591370 -0.497252
O6    O     O_R   0.725160 0.499990 0.408630 -0.497252
O7    O     O_R   0.274830 0.499980 0.353800 -0.452402
O8    O     O_R   0.725170 0.500020 0.646200 -0.452402

loop_
_geom_bond_atom_site_label_1
_geom_bond_atom_site_label_2
_ccdc_geom_bond_type
C2    H4    S    
C11   O8    A    
C2    C4    A    
C16   H3    S    
Cu2   N2    S    
Cu1   N1    S    
C7    H5    S    
C12   I1    S    
C1    C4    S    
C8    N2    A    
Cu1   Cu2   S    
C1    O3    A    
C2    C15   A    
C11   C13   S    
C10   O5    A    
C10   C12   S    
C10   O7    A    
C7    N1    A    
C11   O6    A    
C8    H6    S    
Cu2   O7    S    
Cu1   O8    S    
C4    C14   A    
C9    O4    A    
Cu1   O1    S    
Cu2   O3    S    
C14   C16   A    
C13   I2    S    
C3    C9    S    
Cu2   O2    S    
Cu1   O4    S    
C1    O1    A    
C6    N1    A    
C3    C15   A    
C12   C13   D    
C5    N2    A    
C5    C7    A    
C6    C8    A    
Cu1   O5    S    
C9    O2    A    
C5    I3    S    
Cu2   O6    S    
C14   H1    S    
C6    I4    S    
C3    C16   A    
C15   H2    S    
