data_mof_unit_53722.cif
_audit_creation_date              2013-03-05T16:00:07-0500
_audit_creation_method            fapswitch 2.2
_symmetry_space_group_name_H-M    P1
_symmetry_Int_Tables_number       1
_space_group_crystal_system       triclinic
_cell_length_a                    8.386528
_cell_length_b                    12.99386
_cell_length_c                    22.818866
_cell_angle_alpha                 97.224668
_cell_angle_beta                  88.058406
_cell_angle_gamma                 99.895187
_cell_volume                      2430.01656964

loop_
_atom_site_label
_atom_site_type_symbol
_atom_site_description
_atom_site_fract_x
_atom_site_fract_y
_atom_site_fract_z
_atom_type_partial_charge
P1    P     P_3+3 0.057140 0.408270 0.369700 0.506722
O1    O     O_2   0.890290 0.440320 0.360790 -0.350468
O2    O     O_3   0.130840 0.441440 0.431840 -0.370265
O3    O     O_3   0.672400 0.637930 0.395560 -0.294173
O4    O     O_2   0.787647 0.547303 0.295651 -0.394196
O5    O     O_3   0.016320 0.270727 0.355312 -0.556306
O6    O     O_3   0.751524 0.737140 0.290783 -0.504081
C1    C     C_3   0.692333 0.852596 0.223590 -0.110731
H1    H     H_    0.803025 0.911175 0.235033 0.162551
P2    P     P_3+3 0.667360 0.749400 0.544670 0.498509
P3    P     P_3+3 0.143525 0.830956 0.425302 0.530214
O7    O     O_2   0.844800 0.765340 0.527490 -0.360865
O8    O     O_3   0.090520 0.693800 0.424220 -0.354006
O9    O     O_2   0.008512 0.882344 0.458927 -0.334444
O10   O     O_3   0.660826 0.774826 0.621771 -0.580501
O11   O     O_3   0.133485 0.862256 0.353334 -0.504656
C2    C     C_3   0.149075 0.772675 0.313625 0.445434
H2    H     H_    0.043738 0.709338 0.318053 0.159834
H3    H     H_    0.262607 0.743091 0.321219 0.048631
C3    C     C_3   0.152210 0.800729 0.250950 -0.821038
H4    H     H_    0.132951 0.727532 0.219593 0.250911
H5    H     H_    0.053788 0.845465 0.245058 0.279152
C4    C     C_3   0.240577 0.776475 0.599368 0.333925
H6    H     H_    0.333487 0.733961 0.577056 0.058720
H7    H     H_    0.144098 0.777017 0.567416 0.115841
C5    C     C_3   0.320420 0.889531 0.620947 -0.099351
H8    H     H_    0.448838 0.891049 0.631125 0.146261
H9    H     H_    0.316117 0.941253 0.586131 0.121399
Ba1   Ba    Ba6+2 0.856210 0.551220 0.472190 1.648566
C6    C     C_3   0.973664 0.226073 0.407459 0.341930
H10   H     H_    0.854239 0.243935 0.422705 0.111765
H11   H     H_    0.064265 0.255059 0.442608 0.153035
C7    C     C_3   0.964065 0.107553 0.394264 -0.815520
H12   H     H_    0.879580 0.076465 0.357386 0.285756
H13   H     H_    0.920343 0.068793 0.433695 0.235355
H14   H     H_    0.085740 0.088669 0.381506 0.260046
C8    C     C_3   0.725942 0.700323 0.647709 0.416705
H15   H     H_    0.854668 0.703161 0.634225 0.100807
H16   H     H_    0.654093 0.621117 0.635040 0.096384
C9    C     C_3   0.715363 0.726687 0.714719 -0.901303
H17   H     H_    0.743753 0.812736 0.728044 0.284946
H18   H     H_    0.803539 0.690281 0.736738 0.221310
H19   H     H_    0.591009 0.697778 0.730679 0.255036
P4    P     P_3+3 0.132580 0.591820 0.630310 0.512553
O12   O     O_2   0.299410 0.559720 0.639240 -0.350016
O13   O     O_3   0.058870 0.558650 0.568170 -0.371350
O14   O     O_3   0.517310 0.362160 0.604450 -0.336678
O15   O     O_3   0.173663 0.728115 0.647809 -0.525154
P5    P     P_3+3 0.052659 0.172182 0.579609 0.510091
O16   O     O_3   0.614910 0.369290 0.471050 -0.332305
O17   O     O_3   0.099190 0.306290 0.575790 -0.347789
O18   O     O_2   0.178427 0.120442 0.540624 -0.365532
O19   O     O_3   0.091909 0.148376 0.651037 -0.487459
Ba2   Ba    Ba6+2 0.333620 0.448870 0.527810 1.623682
P6    P     P_3+3 0.663382 0.618819 0.317283 0.514702
C10   C     C_3   0.633574 0.794916 0.276668 0.597772
H20   H     H_    0.514074 0.746679 0.265636 0.018752
H21   H     H_    0.597096 0.894794 0.210598 0.143071
O20   O     O_3   0.574800 0.630800 0.528960 -0.338292
C11   C     C_3   0.478860 0.278066 0.351032 0.413216
H22   H     H_    0.356965 0.292088 0.367187 0.084529
H23   H     H_    0.568009 0.352116 0.358974 0.108950
C12   C     C_3   0.469635 0.244611 0.284780 -0.910836
H24   H     H_    0.380684 0.170890 0.275342 0.271684
H25   H     H_    0.430814 0.307072 0.262385 0.220717
H26   H     H_    0.590306 0.231127 0.267054 0.268613
P7    P     P_3+3 0.527567 0.234126 0.455044 0.475826
O21   O     O_2   0.344900 0.234690 0.472540 -0.388175
O22   O     O_3   0.527799 0.198003 0.378505 -0.545593
H27   H     H_    0.270335 0.849288 0.241306 0.247382
C13   C     C_3   0.056810 0.232535 0.691354 0.424986
H28   H     H_    0.137640 0.306477 0.683489 0.147251
H29   H     H_    0.928943 0.242842 0.688051 0.033267
C14   C     C_3   0.085758 0.210477 0.753601 -0.799959
H30   H     H_    0.207654 0.189355 0.756529 0.286791
H31   H     H_    0.079230 0.281840 0.785098 0.224604
H32   H     H_    0.993337 0.144402 0.765834 0.258563
P8    P     P_3+3 0.532624 0.392307 0.682250 0.476533
C15   C     C_3   0.550295 0.195394 0.680947 0.400238
H33   H     H_    0.665677 0.221696 0.657604 0.054409
O23   O     O_2   0.383482 0.442062 0.703415 -0.404953
O24   O     O_3   0.492742 0.277614 0.716235 -0.517085
H34   H     H_    0.457100 0.157526 0.647886 0.137539
H35   H     H_    0.696755 0.142345 0.743916 0.251891
C16   C     C_3   0.579227 0.115897 0.721208 -0.823063
H36   H     H_    0.578763 0.038447 0.695176 0.266673
H37   H     H_    0.481643 0.106769 0.755234 0.286753
H38   H     H_    0.942816 0.247715 0.050448 0.175171
H39   H     H_    0.860300 0.244725 0.949175 0.174742
C17   C     C_R   0.353022 0.505592 0.327609 -0.432834
C18   C     C_R   0.117503 0.584402 0.939233 -0.062384
C19   C     C_R   0.069394 0.581348 0.879880 0.538593
O25   O     O_2   0.107446 0.659679 0.854635 -0.569897
N1    N     N_R   0.977231 0.491524 0.850663 -0.166182
C20   C     C_R   0.929709 0.404028 0.880556 0.504555
O26   O     O_2   0.846909 0.325178 0.855553 -0.596157
C21   C     C_R   0.976921 0.404559 0.939829 -0.043388
C22   C     C_R   0.070981 0.495428 0.969297 -0.009480
C23   C     C_R   0.210430 0.674952 0.969452 -0.108354
C24   C     C_R   0.255946 0.677141 0.028132 -0.073498
C25   C     C_R   0.210683 0.588746 0.058770 -0.041739
C26   C     C_R   0.118153 0.497527 0.029161 -0.014031
C27   C     C_R   0.932253 0.316071 0.970429 -0.108062
C28   C     C_R   0.979904 0.317799 0.028882 -0.106404
C29   C     C_R   0.072989 0.408355 0.059121 -0.055243
C30   C     C_R   0.122341 0.411295 0.118397 0.537356
N2    N     N_R   0.211002 0.502172 0.148183 -0.165590
C31   C     C_R   0.255559 0.590142 0.118323 0.542696
C32   C     C_2   0.768656 0.465213 0.774097 -0.154498
C33   C     C_3   0.716157 0.483061 0.713550 0.151108
C34   C     C_1   0.001685 0.528843 0.687209 0.266214
C35   C     C_2   0.048876 0.524876 0.742074 -0.212762
C36   C     C_2   0.927323 0.490839 0.789370 0.101749
C37   C     C_R   0.419348 0.546174 0.228410 -0.250702
C38   C     C_R   0.463483 0.551398 0.287894 0.181385
C39   C     C_R   0.193179 0.467267 0.312336 0.258758
C40   C     C_R   0.145009 0.466962 0.253496 -0.212855
C41   C     C_R   0.258462 0.504831 0.210025 0.131433
O27   O     O_2   0.088225 0.332022 0.143037 -0.581632
O28   O     O_2   0.333481 0.670543 0.143602 -0.589079
C42   C     C_2   0.852904 0.490750 0.669613 -0.427656
H40   H     H_    0.327170 0.748697 0.049476 0.181140
H41   H     H_    0.509686 0.575150 0.196871 0.207533
H42   H     H_    0.248288 0.744868 0.947804 0.177332
H43   H     H_    0.175242 0.549216 0.753551 0.192368
H44   H     H_    0.676442 0.444815 0.807162 0.171479
H45   H     H_    0.020639 0.436312 0.241548 0.189574
H46   H     H_    0.393472 0.497432 0.370856 0.180681
H47   H     H_    0.818146 0.500310 0.625856 0.177795
C43   C     C_R   0.751730 0.182385 0.530379 -0.065853
C44   C     C_R   0.440142 0.813447 0.475536 -0.012232
C45   C     C_R   0.404337 0.989830 0.464927 -0.134287
C46   C     C_R   0.344935 0.882477 0.458485 0.145249
C47   C     C_R   0.579891 0.850289 0.509677 0.175703
C48   C     C_R   0.638570 0.962410 0.519837 -0.148971
C49   C     C_R   0.552572 0.031440 0.493173 -0.045526
C50   C     C_R   0.612391 0.141557 0.497659 0.192557
C51   C     C_R   0.843801 0.116952 0.552620 0.064134
C52   C     C_R   0.782047 0.009874 0.552444 -0.238691
H48   H     H_    0.332662 0.039786 0.447193 0.188072
Br1   Br    Br    0.606053 0.898887 0.342673 -0.588796
Br2   Br    Br    0.219959 0.948237 0.692718 -0.467545
Br3   Br    Br    0.741963 0.755688 0.156314 -0.492209
C53   C     C_2   0.861457 0.960703 0.595304 1.201950
O29   O     O_2   0.991000 0.932425 0.582736 -0.593405
O30   O     O_R   0.805996 0.967353 0.653636 -0.828871
H49   H     H_    0.881981 0.945044 0.681171 0.358752
Br4   Br    Br    0.811059 0.330058 0.549398 -0.464382
Br5   Br    Br    0.380019 0.667489 0.448828 -0.439526

loop_
_geom_bond_atom_site_label_1
_geom_bond_atom_site_label_2
_geom_bond_distance
_ccdc_geom_bond_type
C6    H11   1.108805 S    
C12   H25   1.110079 S    
C25   C26   1.407684 A    
O7    Ba1   2.922782 S    
C34   C42   1.317118 D    
C20   O26   1.221776 D    
C31   O28   1.220886 D    
C34   C35   1.335480 D    
P2    Ba1   3.468154 S    
O6    P6    1.757488 S    
C44   C47   1.408881 A    
C1    C10   1.527247 S    
C21   C22   1.408793 A    
C48   C49   1.443705 A    
C16   H36   1.101865 S    
C39   C40   1.414497 A    
C48   C52   1.439453 A    
C5    H8    1.105758 S    
O16   Ba2   2.933666 S    
C14   H31   1.107500 S    
C11   C12   1.520372 S    
O8    Ba1   2.757726 S    
C8    C9    1.527354 S    
P2    O10   1.749560 S    
P3    C46   1.856119 S    
C33   C42   1.496096 S    
C6    H10   1.101813 S    
C30   O27   1.221680 D    
O2    Ba2   2.799991 S    
Ba2   O21   2.923075 S    
C30   N2    1.392776 Am   
C7    H14   1.110947 S    
C10   H20   1.105508 S    
C26   C29   1.408638 A    
C11   H23   1.111630 S    
P1    O1    1.553592 D    
C52   C53   1.468264 S    
C4    C5    1.533357 S    
O2    Ba1   2.973617 S    
C35   C36   1.513307 S    
C1    H21   1.110812 S    
C9    H19   1.111486 S    
O10   C8    1.390489 S    
Ba1   O20   2.934604 S    
C45   C46   1.389296 A    
P5    O17   1.731655 S    
C14   H32   1.110296 S    
C4    H6    1.105380 S    
P1    C39   1.858319 S    
C17   C39   1.387458 A    
O16   P7    1.780219 S    
N2    C41   1.473806 S    
O3    Ba1   2.824628 S    
C32   C36   1.361233 D    
Ba1   O16   2.833407 S    
C25   C31   1.419418 A    
C9    H18   1.108272 S    
C12   H26   1.110785 S    
P5    C51   1.868769 S    
H39   C27   1.083173 S    
C3    H27   1.110533 S    
O6    C10   1.408361 S    
C19   N1    1.390434 Am   
C28   C29   1.409505 A    
H38   C28   1.083144 S    
N1    C36   1.471973 S    
P4    O13   1.546814 S    
C2    H2    1.110373 S    
Ba2   O20   2.832815 S    
C16   H37   1.110598 S    
C14   H30   1.109287 S    
C12   H24   1.110806 S    
C43   Br4   1.896019 S    
P7    O21   1.570981 D    
H35   C16   1.109737 S    
C53   O30   1.392294 S    
C18   C19   1.420084 A    
C13   H29   1.109478 S    
C1    H1    1.110366 S    
C22   C26   1.430665 A    
P1    O5    1.751822 S    
C11   H22   1.111634 S    
P1    O2    1.546781 S    
C8    H15   1.108215 S    
C15   O24   1.399032 S    
P3    O11   1.748885 S    
P8    O24   1.742435 S    
C23   C24   1.400287 A    
C45   C49   1.410273 A    
P5    O18   1.544533 D    
O13   Ba2   2.974520 S    
P1    Ba1   3.387540 S    
C7    H12   1.108994 S    
P8    C33   1.873156 S    
P3    O9    1.545574 D    
C37   C41   1.420446 A    
C17   C38   1.386718 A    
C40   H45   1.081686 S    
C35   H43   1.083740 S    
C21   C27   1.409300 A    
P2    O7    1.511953 D    
O14   Ba2   2.824144 S    
C10   Br1   1.928394 S    
C9    H17   1.107808 S    
O5    C6    1.397873 S    
C3    H5    1.108772 S    
O12   Ba2   2.791731 S    
O1    Ba1   2.791250 S    
O3    P6    1.774548 S    
C44   Br5   1.903695 S    
C37   H41   1.080225 S    
N2    C31   1.393683 Am   
C2    H3    1.112707 S    
O19   C13   1.402891 S    
C15   C16   1.519837 S    
P4    O12   1.553807 D    
O30   H49   1.010610 S    
C4    O15   1.393943 S    
C6    C7    1.520283 S    
C2    C3    1.517970 S    
O4    P6    1.541392 D    
P2    C47   1.878236 S    
C42   H47   1.077379 S    
C49   C50   1.424564 A    
C44   C46   1.395872 A    
C13   C14   1.519321 S    
C20   C21   1.420985 A    
C37   C38   1.409351 A    
C47   C48   1.447339 A    
C45   H48   1.078475 S    
C29   C30   1.421910 A    
C5    H9    1.108489 S    
Ba1   O13   2.799543 S    
C53   O29   1.219481 D    
O17   Ba2   2.758419 S    
C18   C23   1.408703 A    
P2    O20   1.604601 S    
C13   H28   1.107315 S    
C8    H16   1.108921 S    
C5    Br2   1.946039 S    
C40   C41   1.424545 A    
C15   H34   1.111993 S    
P3    O8    1.758355 S    
P8    O23   1.540833 D    
O11   C2    1.404286 S    
P6    C38   1.857779 S    
C11   O22   1.404271 S    
P5    O19   1.748947 S    
C19   O25   1.221898 D    
C7    H13   1.107178 S    
C1    Br3   1.940661 S    
C24   H40   1.083261 S    
C4    H7    1.108860 S    
C18   C22   1.409181 A    
N1    C20   1.391978 Am   
P7    C50   1.879802 S    
C51   C52   1.398278 A    
C15   H33   1.110896 S    
P4    C34   1.849979 S    
P4    Ba2   3.388204 S    
C32   H44   1.085332 S    
C3    H4    1.107492 S    
Ba1   Ba2   4.691375 S    
C27   C28   1.401709 A    
C17   H46   1.077758 S    
C24   C25   1.409352 A    
O14   P8    1.773384 S    
P7    O22   1.750581 S    
C32   C33   1.520969 S    
C43   C50   1.396733 A    
P4    O15   1.742501 S    
C23   H42   1.083172 S    
C43   C51   1.391922 A    
