data_mof_unit_14493.cif
_audit_creation_date              2012-10-26T20:19:17-0400
_audit_creation_method            fapswitch 2.2
_symmetry_space_group_name_H-M    P1
_symmetry_Int_Tables_number       1
_space_group_crystal_system       triclinic
_cell_length_a                    15.05108
_cell_length_b                    12.994466
_cell_length_c                    11.724881
_cell_angle_alpha                 99.686213
_cell_angle_beta                  93.035124
_cell_angle_gamma                 91.772424
_cell_volume                      2255.44940696

loop_
_atom_site_label
_atom_site_type_symbol
_atom_type_description
_atom_site_fract_x
_atom_site_fract_y
_atom_site_fract_z
_atom_type_partial_charge
C1    C     C_R   0.497758 0.299237 0.478657 0.548394
C2    C     C_R   0.502356 0.876029 0.645186 -0.136586
C3    C     C_R   0.497655 0.139685 0.565375 -0.138906
C4    C     C_R   0.481712 0.860161 0.436715 -0.150949
C5    C     C_R   0.494597 0.031399 0.556784 0.026874
C6    C     C_R   0.484384 0.968384 0.445023 0.026626
C7    C     C_R   0.415543 0.400845 0.025454 -0.188451
C8    C     C_R   0.590609 0.591403 0.973519 -0.190522
C9    C     C_R   0.422204 0.412400 0.146396 -0.002876
C10   C     C_R   0.579686 0.585210 0.853295 -0.001470
C11   C     C_R   0.541317 0.538465 0.155688 0.288531
C12   C     C_R   0.498789 0.700692 0.521584 0.541610
C13   C     C_R   0.462240 0.456941 0.843788 0.291459
C14   C     C_R   0.534193 0.532208 0.032638 -0.007133
C15   C     C_R   0.469579 0.463075 0.966793 -0.004640
C16   C     C_R   0.328745 0.501023 0.500729 0.543856
C17   C     C_R   0.671273 0.501128 0.499266 0.549947
C18   C     C_R   0.819449 0.543726 0.600259 -0.138363
C19   C     C_R   0.180494 0.463601 0.398732 -0.136458
C20   C     C_R   0.768058 0.503810 0.498194 -0.011330
C21   C     C_R   0.231966 0.503271 0.500836 -0.018447
C22   C     C_R   0.809251 0.466216 0.395858 -0.141544
C23   C     C_R   0.036281 0.425831 0.295048 -0.136709
C24   C     C_R   0.190862 0.546405 0.601304 -0.153587
C25   C     C_R   0.901842 0.466429 0.395458 0.010762
C26   C     C_R   0.098273 0.546943 0.601568 0.011749
C27   C     C_R   0.953467 0.506304 0.498397 0.060526
C28   C     C_R   0.046606 0.506204 0.498947 0.061360
C29   C     C_R   0.912033 0.545798 0.600938 0.011338
C30   C     C_R   0.088000 0.465143 0.396917 0.011532
C31   C     C_R   0.943652 0.426761 0.294232 -0.137354
C32   C     C_R   0.056488 0.587203 0.702619 -0.137470
C33   C     C_R   0.472700 0.953697 0.225192 0.011112
C34   C     C_R   0.963809 0.586260 0.702429 -0.136433
C35   C     C_R   0.394263 0.895354 0.182562 -0.111579
C36   C     C_R   0.388882 0.836049 0.070993 -0.118998
C37   C     C_R   0.461331 0.835266 0.001072 -0.102415
C38   C     C_R   0.539135 0.894296 0.042319 -0.108332
C39   C     C_R   0.544802 0.953716 0.153841 -0.105203
C40   C     C_R   0.509836 0.046204 0.776023 0.012169
C41   C     C_R   0.437347 0.050165 0.847004 -0.098669
C42   C     C_R   0.444428 0.109902 0.958343 -0.107860
C43   C     C_R   0.523968 0.165330 0.999567 -0.101904
C44   C     C_R   0.596550 0.161124 0.929592 -0.116290
C45   C     C_R   0.494254 0.814023 0.535017 -0.024376
C46   C     C_R   0.589731 0.101563 0.818192 -0.109737
C47   C     C_3   0.308393 0.401458 0.778316 -0.281454
C48   C     C_3   0.612245 0.709397 0.238063 -0.283075
C49   C     C_R   0.493692 0.185770 0.466210 -0.020574
C50   C     C_R   0.479627 0.015206 0.344169 -0.015498
C51   C     C_R   0.501705 0.984495 0.657370 -0.016605
C52   C     C_R   0.485108 0.123704 0.356175 -0.138907
Cu1   Cu    Cu3+1 0.506660 0.507730 0.615930 0.956519
Cu2   Cu    Cu3+1 0.493340 0.492270 0.384070 0.955899
H1    H     H_    0.787403 0.573820 0.679060 0.116963
H2    H     H_    0.932619 0.617019 0.781583 0.103468
H3    H     H_    0.470916 0.810802 0.353338 0.135555
H4    H     H_    0.504027 0.188989 0.649562 0.140713
H5    H     H_    0.510240 0.840324 0.722090 0.126403
H6    H     H_    0.482032 0.159536 0.279050 0.125920
H7    H     H_    0.622966 0.632193 0.809938 0.120801
H8    H     H_    0.379408 0.364807 0.189677 0.120350
H9    H     H_    0.337816 0.895181 0.236117 0.110599
H10   H     H_    0.328594 0.790521 0.038801 0.105418
H11   H     H_    0.457094 0.789134 0.914894 0.112937
H12   H     H_    0.212386 0.430720 0.320756 0.118541
H13   H     H_    0.594998 0.894073 0.987836 0.108292
H14   H     H_    0.605547 0.998852 0.185032 0.106811
H15   H     H_    0.375418 0.007536 0.815864 0.107536
H16   H     H_    0.388411 0.112940 0.012849 0.105918
H17   H     H_    0.529440 0.211373 0.085774 0.112496
H18   H     H_    0.658081 0.204087 0.961664 0.105502
H19   H     H_    0.646276 0.099021 0.764513 0.109585
H20   H     H_    0.416496 0.305296 0.780819 0.229730
H21   H     H_    0.274604 0.350462 0.831016 0.097811
H22   H     H_    0.276754 0.381734 0.689495 0.166456
H23   H     H_    0.368461 0.342188 0.979667 0.107945
H24   H     H_    0.297096 0.484450 0.814265 0.138567
H25   H     H_    0.675137 0.567598 0.202988 0.224090
H26   H     H_    0.668379 0.741458 0.195256 0.100721
H27   H     H_    0.621613 0.741956 0.331658 0.166547
H28   H     H_    0.548873 0.735580 0.201834 0.159482
H29   H     H_    0.643584 0.642660 0.018308 0.107239
H30   H     H_    0.769320 0.435098 0.317191 0.117997
H31   H     H_    0.230877 0.580096 0.678874 0.113924
H32   H     H_    0.904722 0.395948 0.214739 0.103317
H33   H     H_    0.095460 0.618658 0.781883 0.102638
H34   H     H_    0.067473 0.394298 0.216148 0.103412
N1    N     N_R   0.516670 0.519360 0.790130 -0.210322
N2    N     N_R   0.483330 0.480640 0.209870 -0.209383
N3    N     N_2   0.402582 0.381419 0.774573 -0.456402
N4    N     N_2   0.613666 0.596469 0.222481 -0.459064
O1    O     O_R   0.504720 0.354460 0.582000 -0.480162
O2    O     O_R   0.495280 0.645540 0.418000 -0.484606
O3    O     O_R   0.493480 0.341410 0.386200 -0.519157
O4    O     O_R   0.506520 0.658590 0.613800 -0.517478
O5    O     O_R   0.375880 0.506510 0.597910 -0.482574
O6    O     O_R   0.624120 0.493490 0.402090 -0.478695
O7    O     O_R   0.364640 0.493450 0.402110 -0.511990
O8    O     O_R   0.635360 0.506550 0.597890 -0.513409

loop_
_geom_bond_atom_site_label_1
_geom_bond_atom_site_label_2
_ccdc_geom_bond_type
C25   C31   A    
C34   H2    S    
C16   C21   S    
C27   C29   A    
C8    H29   S    
C39   H14   S    
C35   C36   A    
C3    C49   A    
Cu1   Cu2   S    
C26   C32   A    
C33   C39   A    
C36   C37   A    
C19   C21   A    
C24   C26   A    
C47   H22   S    
Cu2   N2    S    
C38   C39   A    
C11   C14   A    
C16   O5    A    
C42   H16   S    
C17   C20   S    
C48   H27   S    
C19   H12   S    
C41   C42   A    
C52   H6    S    
C11   N4    S    
C10   N1    A    
C22   C25   A    
C37   H11   S    
C4    H3    S    
C50   C52   A    
C17   O6    A    
C7    H23   S    
C7    C15   A    
C2    C45   A    
C31   H32   S    
C13   N3    S    
Cu1   O4    S    
C12   O2    A    
C44   C46   A    
C4    C45   A    
Cu1   O8    S    
Cu1   O1    S    
C9    H8    S    
C23   C30   A    
C43   H17   S    
C4    C6    A    
C5    C51   A    
C2    H5    S    
Cu1   O5    S    
C33   C50   S    
C32   H33   S    
C29   C34   A    
C32   C34   A    
H20   N3    S    
C40   C46   A    
C43   C44   A    
C37   C38   A    
C1    O3    A    
C49   C52   A    
C22   H30   S    
Cu2   O3    S    
C18   C29   A    
C6    C50   A    
H25   N4    S    
C18   H1    S    
C8    C10   A    
C40   C41   A    
C20   C22   A    
C23   H34   S    
C13   C15   A    
Cu1   N1    S    
Cu2   O7    S    
C10   H7    S    
C42   C43   A    
C41   H15   S    
C24   H31   S    
C7    C9    A    
C8    C14   A    
C13   N1    A    
C47   N3    S    
C12   O4    A    
C12   C45   S    
C3    C5    A    
C9    N2    A    
C16   O7    A    
C25   C27   A    
C40   C51   S    
C26   C28   A    
C48   H26   S    
C28   C30   A    
C47   H21   S    
C11   N2    A    
C5    C6    A    
C33   C35   A    
C48   H28   S    
C44   H18   S    
C18   C20   A    
C17   O8    A    
Cu2   O2    S    
C2    C51   A    
C3    H4    S    
C38   H13   S    
C1    O1    A    
C48   N4    S    
C21   C24   A    
C27   C28   A    
C14   C15   A    
Cu2   O6    S    
C35   H9    S    
C47   H24   S    
C36   H10   S    
C19   C30   A    
C1    C49   S    
C46   H19   S    
C23   C31   A    
