data_mof_unit_56848.cif
_audit_creation_date              2012-12-11T17:01:17-0500
_audit_creation_method            fapswitch 2.2
_symmetry_space_group_name_H-M    P1
_symmetry_Int_Tables_number       1
_space_group_crystal_system       triclinic
_cell_length_a                    19.566783
_cell_length_b                    7.118206
_cell_length_c                    17.472204
_cell_angle_alpha                 89.999964
_cell_angle_beta                  108.665142
_cell_angle_gamma                 89.999968
_cell_volume                      2305.54401654

loop_
_atom_site_label
_atom_site_type_symbol
_atom_type_description
_atom_site_fract_x
_atom_site_fract_y
_atom_site_fract_z
_atom_type_partial_charge
O1    O     O_R   0.413720 0.494330 0.415730 -0.516903
O2    O     O_R   0.586280 0.994330 0.584270 -0.516902
O3    O     O_R   0.560210 0.819300 0.430070 -0.503786
O4    O     O_R   0.439790 0.319300 0.569930 -0.503786
C1    C     C_R   0.581852 0.655335 0.414839 0.798157
C2    C     C_R   0.418148 0.155334 0.585161 0.798151
O5    O     O_R   0.412670 0.823730 0.406310 -0.551544
O6    O     O_R   0.587330 0.323730 0.593690 -0.551547
O7    O     O_R   0.437690 0.998790 0.560340 -0.532729
O8    O     O_R   0.562310 0.498790 0.439660 -0.532730
C3    C     C_R   0.384981 0.655195 0.384119 0.701936
C4    C     C_R   0.615018 0.155195 0.615881 0.701932
O9    O     O_3   0.508380 0.662350 0.550560 -0.362683
O10   O     O_3   0.491620 0.162350 0.449440 -0.362680
V1    V     V_3+5 0.498450 0.935370 0.490620 1.617721
V2    V     V_3+5 0.501550 0.435370 0.509380 1.617717
C5    C     C_R   0.738167 0.012764 0.684526 -0.063127
C6    C     C_R   0.261833 0.512764 0.315475 -0.063133
C7    C     C_R   0.685219 0.147444 0.682050 -0.136045
C8    C     C_R   0.314781 0.647443 0.317950 -0.136049
C9    C     C_R   0.702282 0.278705 0.745511 -0.160414
C10   C     C_R   0.297718 0.778703 0.254488 -0.160411
H1    H     H_    0.662433 0.380367 0.747850 0.161089
H2    H     H_    0.337567 0.880365 0.252149 0.161088
C11   C     C_R   0.767927 0.268990 0.810001 -0.096469
C12   C     C_R   0.232073 0.768989 0.189999 -0.096471
H3    H     H_    0.777164 0.368275 0.859235 0.160200
H4    H     H_    0.222836 0.868273 0.140765 0.160202
C13   C     C_R   0.818604 0.124986 0.813554 -0.101893
C14   C     C_R   0.181396 0.624986 0.186446 -0.101890
C15   C     C_R   0.803788 0.005413 0.746651 -0.103323
C16   C     C_R   0.196212 0.505412 0.253348 -0.103321
C17   C     C_3   0.812035 0.798679 0.738000 0.986809
C18   C     C_3   0.187967 0.298678 0.261998 0.986812
C19   C     C_3   0.737222 0.803085 0.672419 0.674932
C20   C     C_3   0.262778 0.303085 0.327582 0.674930
C21   C     C_R   0.319592 0.296447 0.630187 0.596513
C22   C     C_R   0.680410 0.796444 0.369816 0.596506
C23   C     C_R   0.367797 0.146859 0.633720 -0.346450
C24   C     C_R   0.632203 0.646860 0.366280 -0.346447
C25   C     C_R   0.367324 0.989489 0.683309 0.395403
C26   C     C_R   0.632673 0.489495 0.316688 0.395416
C27   C     C_R   0.317515 0.979946 0.726945 -0.134492
C28   C     C_R   0.682485 0.479949 0.273055 -0.134500
C29   C     C_R   0.270453 0.132972 0.723653 -0.137721
C30   C     C_R   0.729548 0.632972 0.276349 -0.137721
C31   C     C_R   0.271364 0.290620 0.674946 0.040902
C32   C     C_R   0.728638 0.790619 0.325056 0.040900
C33   C     C_R   0.314219 0.822252 0.774937 0.647405
C34   C     C_R   0.685780 0.322254 0.225062 0.647411
C35   C     C_R   0.266668 0.819312 0.819806 -0.265968
C36   C     C_R   0.733332 0.319313 0.180194 -0.265972
C37   C     C_R   0.220983 0.971502 0.817910 0.011796
C38   C     C_R   0.779017 0.471502 0.182091 0.011797
C39   C     C_R   0.222460 0.128975 0.769603 0.043604
C40   C     C_R   0.777541 0.628975 0.230398 0.043605
C41   C     C_R   0.176212 0.282751 0.767533 0.005117
C42   C     C_R   0.823789 0.782749 0.232468 0.005117
C43   C     C_R   0.176994 0.436913 0.717757 -0.163126
C44   C     C_R   0.823007 0.936911 0.282245 -0.163123
C45   C     C_R   0.223700 0.440362 0.671746 -0.044757
C46   C     C_R   0.776301 0.940360 0.328256 -0.044763
C47   C     C_R   0.174002 0.968225 0.863877 -0.239585
C48   C     C_R   0.825999 0.468226 0.136123 -0.239585
C49   C     C_R   0.128780 0.121814 0.863708 -0.187545
C50   C     C_R   0.871220 0.621814 0.136292 -0.187546
C51   C     C_R   0.130053 0.279369 0.815109 0.564639
C52   C     C_R   0.869948 0.779369 0.184892 0.564639
H5    H     H_    0.265631 0.696809 0.856279 0.156422
H6    H     H_    0.734368 0.196811 0.143721 0.156421
H7    H     H_    0.173589 0.846561 0.901096 0.162345
H8    H     H_    0.826411 0.346562 0.098904 0.162344
H9    H     H_    0.141792 0.556166 0.714574 0.191931
H10   H     H_    0.858209 0.056164 0.285428 0.191931
H11   H     H_    0.223048 0.562360 0.634448 0.177652
H12   H     H_    0.776954 0.062358 0.365555 0.177651
O11   O     O_R   0.937800 0.775460 0.060470 -0.511902
O12   O     O_R   0.062200 0.275460 0.939530 -0.511901
O13   O     O_R   0.087350 0.441340 0.093710 -0.513063
O14   O     O_R   0.912650 0.941340 0.906290 -0.513064
C53   C     C_R   0.114333 0.610435 0.116637 0.711943
C54   C     C_R   0.885667 0.110435 0.883362 0.711943
O15   O     O_R   0.939820 0.446010 0.069950 -0.548040
O16   O     O_R   0.060180 0.946010 0.930050 -0.548040
O17   O     O_R   0.913690 0.271230 0.915700 -0.537815
O18   O     O_R   0.086310 0.771230 0.084300 -0.537816
C55   C     C_R   0.919429 0.614493 0.085704 0.750273
C56   C     C_R   0.080571 0.114493 0.914296 0.750275
O19   O     O_3   0.991670 0.603050 0.949510 -0.349662
O20   O     O_3   0.008330 0.103050 0.050490 -0.349663
V3    V     V_3+5 0.001550 0.329940 0.009370 1.658056
V4    V     V_3+5 0.998450 0.829940 0.990630 1.658054
F1    F     F_    0.085481 0.427381 0.812681 -0.669102
F2    F     F_    0.914520 0.927380 0.187320 -0.669102
F3    F     F_    0.815604 0.695631 0.806322 -0.716004
F4    F     F_    0.184401 0.195635 0.193676 -0.716005
F5    F     F_    0.868571 0.759265 0.708992 -0.648426
F6    F     F_    0.131429 0.259257 0.291003 -0.648428
O21   O     O_3   0.681474 0.700444 0.691219 -0.559394
C57   C     C_3   0.660749 0.774016 0.756119 -0.256506
H13   H     H_    0.618388 0.881312 0.733511 0.129040
H14   H     H_    0.705711 0.833375 0.806262 0.155491
H15   H     H_    0.636560 0.661067 0.782477 0.136756
O22   O     O_3   0.318527 0.200442 0.308784 -0.559394
C58   C     C_3   0.339256 0.274017 0.243887 -0.256481
H16   H     H_    0.381624 0.381294 0.266501 0.129052
H17   H     H_    0.294298 0.333403 0.193748 0.155473
H18   H     H_    0.363437 0.161065 0.217523 0.136762
O23   O     O_3   0.739941 0.762708 0.594016 -0.541658
C59   C     C_3   0.744185 0.567189 0.582666 -0.035164
H19   H     H_    0.690170 0.502761 0.569317 0.141085
H20   H     H_    0.783209 0.495600 0.635279 0.163133
H21   H     H_    0.762334 0.543218 0.529467 0.136661
O24   O     O_3   0.260056 0.262708 0.405984 -0.541661
C60   C     C_3   0.255813 0.067189 0.417334 -0.035165
H22   H     H_    0.309829 0.002763 0.430686 0.141085
H23   H     H_    0.216791 0.995598 0.364720 0.163134
H24   H     H_    0.237662 0.043218 0.470532 0.136663
F7    F     F_    0.318669 0.447141 0.581991 -0.639963
F8    F     F_    0.681334 0.947136 0.418013 -0.639968
O25   O     O_3   0.415811 0.844752 0.689166 -0.489192
C61   C     C_3   0.478623 0.884144 0.754283 -0.051985
H25   H     H_    0.514215 0.759432 0.764508 0.139466
H26   H     H_    0.466706 0.910325 0.811576 0.126786
H27   H     H_    0.507973 0.006397 0.740291 0.039830
O26   O     O_3   0.584178 0.344772 0.310820 -0.489196
C62   C     C_3   0.521373 0.384188 0.245696 -0.052018
H28   H     H_    0.485780 0.259473 0.235449 0.139471
H29   H     H_    0.533300 0.410407 0.188409 0.126769
H30   H     H_    0.492020 0.506428 0.259693 0.039849
F9    F     F_    0.356421 0.668882 0.778775 -0.666644
F10   F     F_    0.643577 0.168887 0.221224 -0.666637

loop_
_geom_bond_atom_site_label_1
_geom_bond_atom_site_label_2
_ccdc_geom_bond_type
O15   C55   A    
C47   C49   A    
O11   V4    S    
O4    V2    S    
O26   C62   S    
C60   H23   S    
C50   C52   A    
O1    C3    A    
C20   O24   S    
C2    O7    A    
O24   C60   S    
O17   V3    S    
C23   C25   A    
C45   H11   S    
O5    C3    A    
C58   H17   S    
C5    C19   S    
C7    C9    A    
C18   F4    S    
C17   C19   S    
C41   C43   A    
C42   C44   A    
C60   H22   S    
C6    C8    A    
C44   C46   A    
C25   O25   S    
C59   H19   S    
C35   H5    S    
C5    C7    A    
O12   C56   A    
C32   C46   A    
C28   C30   A    
C49   C51   A    
C34   C36   A    
C15   C17   S    
C21   C31   A    
C43   H9    S    
O13   V3    S    
C53   O18   A    
C19   O23   S    
C22   F8    S    
C29   C31   A    
O2    C4    A    
O6    V2    S    
C22   C24   A    
C25   C27   A    
C46   H12   S    
C26   C28   A    
C41   C51   A    
C19   O21   S    
C17   F3    S    
O22   C58   S    
C36   C38   A    
C30   C32   A    
C37   C39   A    
C11   C13   A    
C58   H18   S    
C38   C40   A    
C3    C8    S    
C43   C45   A    
O4    C2    A    
C50   C55   S    
O13   C53   A    
C27   C33   A    
O5    V1    S    
C33   C35   A    
C57   H15   S    
C52   F2    S    
C35   C37   A    
C48   C50   A    
O14   V4    S    
C62   H29   S    
C33   F9    S    
O20   V4    S    
O21   C57   S    
C21   F7    S    
O6    C4    A    
C60   H24   S    
C57   H14   S    
O1    V2    S    
O19   V4    S    
O2    V1    S    
C27   C29   A    
C59   H21   S    
C29   C39   A    
O25   C61   S    
C34   F10   S    
C42   C52   A    
C47   H7    S    
C12   C14   A    
C39   C41   A    
C5    C15   A    
C10   H2    S    
C1    C24   S    
C6    C16   A    
C61   H26   S    
C62   H28   S    
O3    V1    S    
C49   C56   S    
C28   C34   A    
C9    C11   A    
O10   V1    S    
C22   C32   A    
O16   C56   A    
C8    C10   A    
C24   C26   A    
O3    C1    A    
C31   C45   A    
O12   V3    S    
C11   H3    S    
C54   O17   A    
O15   V3    S    
C58   H16   S    
C12   H4    S    
C20   O22   S    
C61   H27   S    
C9    H1    S    
O7    V1    S    
C62   H30   S    
C1    O8    A    
C13   C15   A    
O8    V2    S    
O23   C59   S    
C14   C16   A    
C37   C47   A    
O20   V3    S    
C38   C48   A    
C14   C53   S    
C4    C7    S    
C44   H10   S    
C57   H13   S    
C18   F6    S    
O14   C54   A    
C40   C42   A    
C18   C20   S    
C48   H8    S    
C59   H20   S    
C36   H6    S    
C26   O26   S    
C13   C54   S    
O11   C55   A    
C21   C23   A    
O19   V3    S    
C10   C12   A    
O9    V2    S    
C30   C40   A    
C51   F1    S    
C2    C23   S    
O18   V4    S    
O16   V4    S    
C17   F5    S    
C61   H25   S    
C6    C20   S    
C16   C18   S    
