data_mof_unit_8039.cif
_audit_creation_date              2012-12-11T16:31:28-0500
_audit_creation_method            fapswitch 2.2
_symmetry_space_group_name_H-M    P1
_symmetry_Int_Tables_number       1
_space_group_crystal_system       triclinic
_cell_length_a                    6.942486
_cell_length_b                    18.291888
_cell_length_c                    20.17519
_cell_angle_alpha                 68.342598
_cell_angle_beta                  90.619274
_cell_angle_gamma                 90.776344
_cell_volume                      2380.94228752

loop_
_atom_site_label
_atom_site_type_symbol
_atom_type_description
_atom_site_fract_x
_atom_site_fract_y
_atom_site_fract_z
_atom_type_partial_charge
O1    O     O_R   0.488990 0.443920 0.942160 -0.540629
O2    O     O_R   0.823840 0.406530 0.087600 -0.538851
O3    O     O_R   0.999650 0.556080 0.057840 -0.541997
C1    C     C_R   0.655121 0.383574 0.115114 0.696064
O4    O     O_R   0.818390 0.434590 0.944530 -0.536534
O5    O     O_R   0.994160 0.584350 0.913750 -0.535969
C2    C     C_R   0.648767 0.420475 0.924053 0.722900
O6    O     O_R   0.494480 0.415650 0.086250 -0.535013
O7    O     O_3   0.662600 0.549100 0.990070 -0.367925
V1    V     V_3+5 0.935320 0.490890 0.001840 1.420254
O8    O     O_R   0.324240 0.593470 0.912400 -0.539090
C3    C     C_R   0.155290 0.616477 0.884917 0.693101
O9    O     O_R   0.329690 0.565410 0.055470 -0.534614
C4    C     C_R   0.162051 0.579518 0.075933 0.721960
V2    V     V_3+5 0.435990 0.509110 0.998160 1.423301
O10   O     O_3   0.158840 0.450900 0.009930 -0.367107
C5    C     C_3   0.933095 0.700762 0.242147 0.214448
C6    C     C_3   0.295081 0.678790 0.269036 0.252677
C7    C     C_3   0.285889 0.727115 0.318759 -0.372675
H1    H     H_    0.438798 0.690365 0.242964 0.114760
H2    H     H_    0.263275 0.687896 0.375294 0.187126
H3    H     H_    0.426786 0.757445 0.317274 0.110777
C8    C     C_1   0.110718 0.874233 0.378874 -0.194771
C9    C     C_3   0.138199 0.706971 0.208947 0.147027
C10   C     C_3   0.927985 0.746032 0.294805 0.261753
C11   C     C_3   0.123668 0.789204 0.293982 0.179638
C12   C     C_3   0.166375 0.843838 0.215777 -0.455780
C13   C     C_3   0.178052 0.795760 0.166349 -0.504279
C14   C     C_1   0.116575 0.835993 0.340820 -0.013964
C15   C     C_1   0.148386 0.662091 0.160508 -0.019523
C16   C     C_1   0.155430 0.624881 0.121604 -0.195744
H4    H     H_    0.071851 0.818999 0.121980 0.167480
H5    H     H_    0.323332 0.803935 0.141681 0.168868
H6    H     H_    0.051478 0.888705 0.195885 0.158146
H7    H     H_    0.828484 0.730198 0.198121 0.016131
H8    H     H_    0.813164 0.791511 0.276467 0.013104
H9    H     H_    0.304780 0.876108 0.213454 0.172741
H10   H     H_    0.432843 0.547077 0.693536 0.110887
C17   C     C_R   0.989645 0.764774 0.875406 -0.132001
C18   C     C_R   0.906980 0.834867 0.872545 -0.124852
C19   C     C_R   0.893858 0.898116 0.808038 -0.126586
C20   C     C_R   0.963510 0.891788 0.745901 -0.141839
C21   C     C_R   0.046377 0.821055 0.746871 0.068393
C22   C     C_R   0.059538 0.756127 0.813044 0.070408
C23   C     C_R   0.119327 0.814950 0.683679 -0.185809
C24   C     C_R   0.204968 0.743740 0.686745 0.067889
C25   C     C_R   0.218062 0.678799 0.752912 0.068810
C26   C     C_R   0.145284 0.684930 0.816120 -0.185820
C27   C     C_R   0.274745 0.735084 0.624370 -0.127995
C28   C     C_R   0.357070 0.664942 0.627202 -0.111519
C29   C     C_R   0.370019 0.601663 0.691697 -0.125148
C30   C     C_R   0.300614 0.608021 0.753855 -0.143302
H11   H     H_    0.999562 0.717949 0.927190 0.102538
H12   H     H_    0.854128 0.840300 0.920793 0.106578
H13   H     H_    0.830711 0.952655 0.806175 0.106951
H14   H     H_    0.952760 0.943255 0.697427 0.111072
H15   H     H_    0.264934 0.781936 0.572598 0.106954
H16   H     H_    0.409766 0.659492 0.578940 0.120064
H17   H     H_    0.311235 0.556535 0.802318 0.111721
H18   H     H_    0.954285 0.452855 0.305836 0.157087
C31   C     C_R   0.478988 0.235280 0.124919 -0.132106
C32   C     C_R   0.391851 0.165087 0.127897 -0.123433
C33   C     C_R   0.379746 0.101725 0.192370 -0.128713
C34   C     C_R   0.454812 0.108061 0.254358 -0.142437
C35   C     C_R   0.542246 0.178918 0.253286 0.069113
C36   C     C_R   0.554489 0.243930 0.187141 0.069358
C37   C     C_R   0.620652 0.185046 0.316332 -0.185210
C38   C     C_R   0.711275 0.256291 0.313117 0.070021
C39   C     C_R   0.723579 0.321301 0.246962 0.069126
C40   C     C_R   0.644968 0.315193 0.183937 -0.184464
C41   C     C_R   0.787012 0.264904 0.375318 -0.136214
C42   C     C_R   0.874684 0.335020 0.372298 -0.112917
C43   C     C_R   0.887020 0.398347 0.307810 -0.098138
C44   C     C_R   0.811464 0.392097 0.245852 -0.142003
H19   H     H_    0.487895 0.282173 0.073145 0.103835
H20   H     H_    0.334766 0.159655 0.079757 0.107962
H21   H     H_    0.313199 0.047089 0.194318 0.107993
H22   H     H_    0.444701 0.056473 0.302778 0.110485
H23   H     H_    0.778027 0.218019 0.427094 0.106052
H24   H     H_    0.932124 0.340404 0.420410 0.119265
H25   H     H_    0.821745 0.443662 0.197414 0.112185
O11   O     O_R   0.770890 0.084490 0.414040 -0.537039
O12   O     O_R   0.445980 0.065450 0.555510 -0.536231
O13   O     O_R   0.270670 0.915620 0.586180 -0.536472
C45   C     C_R   0.615408 0.079630 0.576112 0.723622
O14   O     O_R   0.441480 0.093500 0.412450 -0.538227
O15   O     O_R   0.266140 0.943870 0.442100 -0.541032
C46   C     C_R   0.610335 0.116632 0.385141 0.693363
O16   O     O_R   0.775410 0.056240 0.558120 -0.541434
O17   O     O_3   0.602660 0.950990 0.510100 -0.366620
V3    V     V_3+5 0.329740 0.009100 0.498130 1.422523
O18   O     O_R   0.936120 0.934420 0.444240 -0.534760
C47   C     C_R   0.103940 0.920303 0.423945 0.719525
O19   O     O_R   0.940610 0.906370 0.587310 -0.537873
C48   C     C_R   0.109483 0.883426 0.614900 0.694738
V4    V     V_3+5 0.829110 0.990690 0.501470 1.425795
O20   O     O_3   0.106080 0.049010 0.489880 -0.367570
C49   C     C_3   0.830622 0.248504 0.706825 -0.330389
C50   C     C_3   0.477145 0.274728 0.683216 -0.322724
C51   C     C_3   0.478200 0.322696 0.732903 -0.328760
H26   H     H_    0.868301 0.359038 0.724856 0.142003
H27   H     H_    0.866699 0.288225 0.651513 0.141981
H28   H     H_    0.331624 0.248224 0.683709 0.137050
H29   H     H_    0.506013 0.315001 0.627428 0.145065
H30   H     H_    0.507648 0.385813 0.700800 0.138971
H31   H     H_    0.333224 0.319015 0.757034 0.137052
C52   C     C_1   0.638643 0.374828 0.878595 -0.193956
C53   C     C_3   0.630905 0.209083 0.707569 0.288274
C54   C     C_3   0.831652 0.296466 0.756510 -0.327228
C55   C     C_3   0.632676 0.291090 0.792553 0.290265
C56   C     C_3   0.586963 0.203002 0.835342 -0.328324
C57   C     C_3   0.586014 0.155034 0.785649 -0.327983
C58   C     C_1   0.634401 0.337052 0.840076 -0.101868
C59   C     C_1   0.629195 0.163103 0.660058 -0.100387
C60   C     C_1   0.625102 0.125300 0.621560 -0.191411
H32   H     H_    0.694763 0.107515 0.805026 0.133951
H33   H     H_    0.442673 0.126179 0.788104 0.137808
H34   H     H_    0.696143 0.178331 0.878404 0.137418
H35   H     H_    0.944156 0.202813 0.724670 0.135030
H36   H     H_    0.945800 0.273627 0.797974 0.135081
H37   H     H_    0.444064 0.197028 0.861418 0.135312
O21   O     O_3   0.886193 0.694637 0.364745 -0.625766
H38   H     H_    0.745412 0.683849 0.366474 0.308846
O22   O     O_3   0.874871 0.621788 0.276589 -0.628196
H39   H     H_    0.820204 0.603683 0.239531 0.289245
O23   O     O_3   0.283933 0.597099 0.307653 -0.628454
H40   H     H_    0.178103 0.586432 0.342642 0.347752

loop_
_geom_bond_atom_site_label_1
_geom_bond_atom_site_label_2
_ccdc_geom_bond_type
C50   H28   S    
C51   C55   S    
O23   H40   S    
O15   V3    S    
C56   H37   S    
C19   C20   A    
C56   C57   S    
C4    C16   S    
C1    O6    A    
C1    C40   S    
C59   C60   T    
C27   H15   S    
C49   H35   S    
C17   H11   S    
C23   C24   A    
C31   H19   S    
C50   C53   S    
C24   C27   A    
C11   C12   S    
C56   H34   S    
C6    C9    S    
C8    C14   T    
C7    H2    S    
O14   V3    S    
O5    C3    A    
C15   C16   T    
O14   C46   A    
H26   C54   S    
V2    O10   S    
H18   C43   S    
O18   V4    S    
C49   C53   S    
C6    C7    S    
C43   C44   A    
C53   C59   S    
C7    C11   S    
C55   C56   S    
C52   C58   T    
C20   H14   S    
O8    V2    S    
C31   C36   A    
C19   H13   S    
C25   C26   A    
C38   C39   A    
C35   C37   A    
O1    V2    S    
O13   V3    S    
C10   O21   S    
C3    C26   S    
C53   C57   S    
C33   H21   S    
C50   H29   S    
C49   C54   S    
O9    C4    A    
C32   H20   S    
C39   C40   A    
C41   H23   S    
C12   H6    S    
C5    C9    S    
O11   V4    S    
C37   C38   A    
C28   H16   S    
C13   H4    S    
C7    H3    S    
C17   C18   A    
O4    C2    A    
C45   O16   A    
H10   C29   S    
C10   C11   S    
C49   H27   S    
O17   V4    S    
C29   C30   A    
O13   C48   A    
O2    C1    A    
C21   C22   A    
C32   C33   A    
C30   H17   S    
C5    O22   S    
C50   C51   S    
C45   C60   S    
V4    O20   S    
C28   C29   A    
C51   H30   S    
C39   C44   A    
V3    O20   S    
O19   V4    S    
C21   C23   A    
C55   C58   S    
C25   C30   A    
O3    C4    A    
C18   C19   A    
O12   C45   A    
C13   H5    S    
C35   C36   A    
O6    V2    S    
C18   H12   S    
O9    V2    S    
C2    C52   S    
C20   C21   A    
C44   H25   S    
O2    V1    S    
C57   H32   S    
O7    V1    S    
C24   C25   A    
O1    C2    A    
C34   H22   S    
C9    C13   S    
C42   C43   A    
O5    V1    S    
O8    C3    A    
C37   C46   S    
C17   C22   A    
O12   V3    S    
C51   H31   S    
C57   H33   S    
C5    C10   S    
C34   C35   A    
O16   V4    S    
O7    V2    S    
C41   C42   A    
C42   H24   S    
O3    V1    S    
V1    O10   S    
C54   C55   S    
C6    O23   S    
O17   V3    S    
C36   C40   A    
C12   H9    S    
C38   C41   A    
O11   C46   A    
O15   C47   A    
O18   C47   A    
C6    H1    S    
C31   C32   A    
C9    C15   S    
C10   H8    S    
C33   C34   A    
C8    C47   S    
O4    V1    S    
C11   C14   S    
C27   C28   A    
C12   C13   S    
C5    H7    S    
O21   H38   S    
O19   C48   A    
C22   C26   A    
C54   H36   S    
O22   H39   S    
C23   C48   S    
