data_mof_unit_61398.cif
_audit_creation_date              2012-12-10T18:08:20-0500
_audit_creation_method            fapswitch 2.2
_symmetry_space_group_name_H-M    P1
_symmetry_Int_Tables_number       1
_space_group_crystal_system       triclinic
_cell_length_a                    18.797606
_cell_length_b                    18.713275
_cell_length_c                    18.75222
_cell_angle_alpha                 109.322842
_cell_angle_beta                  109.53398
_cell_angle_gamma                 109.617639
_cell_volume                      5074.04780564

loop_
_atom_site_label
_atom_site_type_symbol
_atom_type_description
_atom_site_fract_x
_atom_site_fract_y
_atom_site_fract_z
_atom_type_partial_charge
C1    C     C_R   0.380343 0.500205 0.380034 0.958574
C2    C     C_R   0.314138 0.499791 0.314086 -0.312823
C3    C     C_R   0.319272 0.235924 0.493056 0.340067
C4    C     C_R   0.618318 0.619744 0.498272 0.995213
C5    C     C_R   0.253371 0.171598 0.491342 0.296334
C6    C     C_R   0.185655 0.184502 0.497559 -0.289111
C7    C     C_R   0.181565 0.259403 0.502073 0.355313
C8    C     C_R   0.247880 0.323467 0.505256 -0.263250
C9    C     C_R   0.316247 0.312225 0.501111 -0.263621
C10   C     C_R   0.761302 0.507085 0.681174 0.297472
C11   C     C_R   0.825035 0.506297 0.745074 0.091846
C12   C     C_R   0.830426 0.797192 0.566375 0.024700
C13   C     C_R   0.814470 0.502273 0.814878 -0.209861
C14   C     C_R   0.742990 0.502468 0.823313 0.313622
C15   C     C_R   0.678391 0.501348 0.758393 0.088815
C16   C     C_R   0.620730 0.500811 0.620201 0.991371
C17   C     C_R   0.687430 0.502050 0.687037 -0.219166
C18   C     C_R   0.999815 0.879934 0.379913 0.963376
C19   C     C_R   0.879794 0.877920 0.498094 0.975553
C20   C     C_R   0.999587 0.119569 0.620277 0.969441
C21   C     C_R   0.119917 0.119979 0.499616 0.932881
C22   C     C_R   0.999309 0.620441 0.119453 0.979941
C23   C     C_3   0.870009 0.862395 0.660860 0.482598
C24   C     C_R   0.120224 0.500148 0.120600 0.952475
C25   C     C_R   0.999054 0.379667 0.879266 0.945793
C26   C     C_R   0.879988 0.500900 0.880545 0.979782
C27   C     C_R   0.005926 0.826149 0.245205 0.102054
C28   C     C_R   0.381614 0.379533 0.501416 0.917172
C29   C     C_R   0.004255 0.761356 0.180170 0.369560
C30   C     C_R   0.999560 0.686958 0.185863 -0.236081
C31   C     C_R   0.994091 0.675358 0.254736 0.095516
C32   C     C_R   0.992330 0.738669 0.318037 0.325757
C33   C     C_R   0.999956 0.814209 0.313713 -0.239350
C34   C     C_3   0.796313 0.793705 0.660979 -0.096489
C35   C     C_R   0.919664 0.176166 0.678808 0.298312
C36   C     C_R   0.919337 0.239939 0.742601 0.275508
C37   C     C_R   0.999293 0.312488 0.814235 -0.247721
C38   C     C_R   0.079808 0.320626 0.824550 0.121857
C39   C     C_R   0.080170 0.256721 0.759938 0.115401
C40   C     C_R   0.765828 0.736441 0.567294 -0.048653
C41   C     C_R   0.999795 0.185576 0.686952 -0.235563
C42   C     C_R   0.682847 0.683159 0.494895 -0.160667
C43   C     C_R   0.667956 0.680068 0.414735 0.123129
C44   C     C_R   0.734077 0.742757 0.413533 0.356507
C45   C     C_R   0.237520 0.419980 0.248309 0.094576
C46   C     C_R   0.813960 0.805924 0.492434 -0.234724
C47   C     C_3   0.577956 0.542130 0.278293 -0.626090
C48   C     C_3   0.892112 0.425706 0.696320 -0.600217
C49   C     C_3   0.529925 0.413134 0.720800 -0.628055
C50   C     C_3   0.941854 0.901057 0.184488 -0.562738
C51   C     C_3   0.076120 0.609317 0.303787 -0.616760
C52   C     C_3   0.185561 0.383654 0.976169 -0.719163
C53   C     C_3   0.193446 0.299567 0.723089 -0.692772
C54   C     C_3   0.891539 0.002536 0.760534 -0.634856
C55   C     C_3   0.847404 0.802001 0.803557 -0.650987
C56   C     C_R   0.173452 0.419943 0.184168 0.337966
C57   C     C_3   0.235852 0.281546 0.188043 -0.569402
C58   C     C_R   0.186419 0.499904 0.187106 -0.359107
C59   C     C_R   0.263187 0.579749 0.253982 0.293804
C60   C     C_R   0.327931 0.579228 0.316668 0.324512
Cl1   Cl    Cl    0.427862 0.678176 0.396570 -0.486120
Cl2   Cl    Cl    0.818882 0.082191 0.591263 -0.481940
Cl3   Cl    Cl    0.817734 0.228589 0.730398 -0.487250
Cl4   Cl    Cl    0.979390 0.886028 0.723042 -0.550442
Cl5   Cl    Cl    0.077656 0.318192 0.101297 -0.573748
Cl6   Cl    Cl    0.278170 0.681947 0.263457 -0.465185
Cl7   Cl    Cl    0.405651 0.220586 0.487236 -0.476710
Cl8   Cl    Cl    0.253651 0.073067 0.476481 -0.479767
Cl9   Cl    Cl    0.095341 0.276508 0.504336 -0.579953
Cl10  Cl    Cl    0.775893 0.516992 0.595500 -0.583231
Cl11  Cl    Cl    0.734921 0.507025 0.916158 -0.577893
Cl12  Cl    Cl    0.715333 0.740826 0.313668 -0.559002
Cl13  Cl    Cl    0.006661 0.774355 0.091343 -0.540248
Cl14  Cl    Cl    0.979218 0.722132 0.401737 -0.551302
H1    H     H_    0.245196 0.381561 0.509170 0.211594
H2    H     H_    0.955188 0.434884 0.700561 0.232072
H3    H     H_    0.617360 0.539485 0.825775 0.277847
H4    H     H_    0.545339 0.376369 0.753754 0.273722
H5    H     H_    0.511647 0.376935 0.651516 0.248349
H6    H     H_    0.473352 0.418232 0.722731 0.224276
H7    H     H_    0.057954 0.962376 0.302981 0.240639
H8    H     H_    0.919821 0.938928 0.222129 0.223271
H9    H     H_    0.886839 0.832574 0.138530 0.247379
H10   H     H_    0.959075 0.930394 0.145871 0.250176
H11   H     H_    0.949782 0.573600 0.280240 0.285789
H12   H     H_    0.747468 0.811435 0.669079 0.166155
H13   H     H_    0.112416 0.660339 0.373797 0.270327
H14   H     H_    0.114487 0.627306 0.272410 0.239952
H15   H     H_    0.067860 0.546033 0.299106 0.237218
H16   H     H_    0.210487 0.417696 0.888697 0.240182
H17   H     H_    0.201320 0.330217 0.965034 0.229770
H18   H     H_    0.132435 0.368583 0.991915 0.261447
H19   H     H_    0.244082 0.445721 0.032920 0.243157
H20   H     H_    0.208113 0.285869 0.831771 0.238554
H21   H     H_    0.209155 0.368860 0.749676 0.237597
H22   H     H_    0.144372 0.261751 0.652718 0.261759
H23   H     H_    0.558059 0.648263 0.307297 0.287201
H24   H     H_    0.253448 0.296890 0.730354 0.238195
H25   H     H_    0.804861 0.928258 0.627072 0.240303
H26   H     H_    0.885259 0.059714 0.761469 0.257996
H27   H     H_    0.961055 0.026861 0.805044 0.274718
H28   H     H_    0.850437 0.971836 0.784491 0.225785
H29   H     H_    0.864572 0.732359 0.703497 0.304476
H30   H     H_    0.860320 0.763655 0.835373 0.248817
H31   H     H_    0.792955 0.810422 0.807873 0.231654
H32   H     H_    0.906982 0.867174 0.838745 0.267060
H33   H     H_    0.244311 0.343939 0.308783 0.221371
H34   H     H_    0.614796 0.558903 0.245252 0.268652
H35   H     H_    0.297381 0.283210 0.223957 0.222688
H36   H     H_    0.239231 0.299390 0.137780 0.231909
H37   H     H_    0.180753 0.213760 0.154404 0.253627
H38   H     H_    0.508407 0.494140 0.227887 0.223602
H39   H     H_    0.603991 0.510886 0.312834 0.258537
H40   H     H_    0.926338 0.552371 0.720220 0.283957
H41   H     H_    0.840680 0.388959 0.626441 0.277016
H42   H     H_    0.875559 0.387331 0.728158 0.240279
N1    N     N_2   0.584260 0.619542 0.338347 -0.290592
N2    N     N_2   0.222542 0.340050 0.248580 -0.254343
N3    N     N_2   0.900243 0.510113 0.740124 -0.282452
N4    N     N_2   0.604175 0.499833 0.764230 -0.284370
N5    N     N_2   0.018143 0.905043 0.243610 -0.254926
N6    N     N_2   0.991369 0.600252 0.260116 -0.277021
N7    N     N_2   0.159754 0.393456 0.899735 -0.283176
N8    N     N_2   0.160573 0.261927 0.769075 -0.288163
N9    N     N_2   0.863534 0.940475 0.672380 -0.325255
N10   N     N_2   0.824096 0.755631 0.713272 -0.265123
O1    O     O_R   0.408340 0.551690 0.460080 -0.580548
O2    O     O_R   0.051700 0.643420 0.091650 -0.566096
O3    O     O_R   0.039910 0.448390 0.091720 -0.577757
O4    O     O_R   0.408400 0.448280 0.356690 -0.639597
O5    O     O_R   0.143340 0.551810 0.091690 -0.578297
O6    O     O_R   0.948300 0.356760 0.908530 -0.569769
O7    O     O_R   0.051730 0.460180 0.908500 -0.613814
O8    O     O_R   0.856660 0.448370 0.908490 -0.566983
O9    O     O_R   0.960090 0.551790 0.908450 -0.602025
O10   O     O_R   0.591580 0.643330 0.551700 -0.615717
O11   O     O_R   0.591640 0.539920 0.448310 -0.606114
O12   O     O_R   0.948260 0.908480 0.356680 -0.631115
O13   O     O_R   0.591600 0.551720 0.643310 -0.616269
O14   O     O_R   0.591660 0.448310 0.539920 -0.557906
O15   O     O_R   0.408360 0.460080 0.551690 -0.629147
O16   O     O_R   0.408420 0.356670 0.448300 -0.582659
O17   O     O_R   0.051710 0.908420 0.460050 -0.556495
O18   O     O_R   0.960120 0.908380 0.551680 -0.570168
O19   O     O_R   0.856660 0.908440 0.448310 -0.562765
O20   O     O_R   0.051740 0.091590 0.643330 -0.602889
O21   O     O_R   0.948290 0.091650 0.539960 -0.567343
O22   O     O_R   0.143330 0.091630 0.551690 -0.590789
O23   O     O_R   0.039880 0.091690 0.448320 -0.594905
O24   O     O_R   0.948270 0.540000 0.091680 -0.595393
Zn1   Zn    Zn3+2 0.499960 0.569050 0.569040 1.043437
Zn2   Zn    Zn3+2 0.500040 0.430950 0.430960 1.063580
Zn3   Zn    Zn3+2 0.069080 0.999990 0.569020 1.138878
Zn4   Zn    Zn3+2 0.930920 0.000070 0.430980 1.116034
Zn5   Zn    Zn3+2 0.930940 0.431040 0.000110 1.135218
Zn6   Zn    Zn3+2 0.069060 0.569140 0.000070 1.106982

loop_
_geom_bond_atom_site_label_1
_geom_bond_atom_site_label_2
_ccdc_geom_bond_type
C45   N2    S    
C22   O24   A    
C19   O18   A    
C27   C29   A    
O7    Zn6   S    
H16   N7    S    
C48   H2    S    
C54   H27   S    
C35   C36   A    
C43   C44   A    
H3    N4    S    
C11   N3    S    
C20   C41   S    
C27   N5    S    
C19   C46   S    
C50   H10   S    
C7    C8    A    
C39   C41   A    
C57   H37   S    
C27   C33   A    
C12   C23   S    
O15   Zn1   S    
C29   C30   A    
C55   H31   S    
C3    C9    A    
O5    Zn6   S    
C59   Cl6   S    
C32   Cl14  S    
C30   C31   A    
C52   N7    S    
C2    C60   A    
O17   Zn3   S    
C49   N4    S    
C29   Cl13  S    
C10   C17   A    
C56   Cl5   S    
O6    Zn5   S    
C49   H4    S    
C18   O12   A    
C1    C2    S    
C14   Cl11  S    
O16   Zn2   S    
O18   Zn3   S    
H29   N10   S    
O21   Zn4   S    
C26   O9    A    
O1    Zn1   S    
C4    O11   A    
C24   O3    A    
C57   H35   S    
C31   C32   A    
C45   C56   A    
C8    C9    A    
O11   Zn2   S    
C21   O23   A    
C36   Cl3   S    
C25   O7    A    
O14   Zn2   S    
H33   N2    S    
C38   N7    S    
C4    O10   A    
C25   C37   S    
O12   Zn4   S    
C40   C42   A    
C59   C60   A    
C47   H39   S    
C13   C14   A    
C53   H22   S    
C54   H26   S    
C16   O14   A    
C50   N5    S    
C5    Cl8   S    
C44   C46   A    
C50   H9    S    
C48   N3    S    
C2    C45   A    
C38   C39   A    
C54   N9    S    
C55   H32   S    
C48   H42   S    
C21   O22   A    
C1    O1    A    
H11   N6    S    
H25   N9    S    
C1    O4    A    
C51   H13   S    
O3    Zn5   S    
O2    Zn6   S    
C16   C17   S    
C58   C59   A    
C6    C21   S    
C55   H30   S    
C8    H1    S    
O9    Zn6   S    
C49   H5    S    
H7    N5    S    
C60   Cl1   S    
C12   C40   A    
O23   Zn4   S    
C37   C38   A    
C26   O8    A    
C53   H21   S    
C15   N4    S    
C22   O2    A    
O8    Zn5   S    
C55   N10   S    
C34   N10   S    
C23   C34   S    
C20   O21   A    
C52   H19   S    
C19   O19   A    
C43   N1    S    
C48   H41   S    
O19   Zn4   S    
C10   Cl10  S    
C12   C46   A    
C23   Cl4   S    
O24   Zn5   S    
O4    Zn2   S    
C20   O20   A    
C13   C26   S    
C52   H18   S    
C16   O13   A    
C28   O16   A    
C42   C43   A    
O10   Zn1   S    
C50   H8    S    
C15   C17   A    
C18   O17   A    
C22   C30   S    
C54   H28   S    
C3    Cl7   S    
H40   N3    S    
C31   N6    S    
C3    C5    A    
C53   N8    S    
C51   H14   S    
C7    Cl9   S    
C34   H12   S    
C57   H36   S    
C6    C7    A    
C53   H24   S    
C49   H6    S    
C23   N9    S    
C32   C33   A    
C51   H15   S    
C11   C13   A    
C24   O5    A    
C5    C6    A    
O20   Zn3   S    
C4    C42   S    
O13   Zn1   S    
C56   C58   A    
C44   Cl12  S    
C35   Cl2   S    
H23   N1    S    
C35   C41   A    
C18   C33   S    
C10   C11   A    
C39   N8    S    
C47   N1    S    
C24   C58   S    
C36   C37   A    
C47   H34   S    
O22   Zn3   S    
C51   N6    S    
C14   C15   A    
C34   C40   S    
C52   H17   S    
C28   O15   A    
C25   O6    A    
C47   H38   S    
C9    C28   S    
C57   N2    S    
H20   N8    S    
