data_mof_unit_48014.cif
_audit_creation_date              2012-12-10T17:47:05-0500
_audit_creation_method            fapswitch 2.2
_symmetry_space_group_name_H-M    P1
_symmetry_Int_Tables_number       1
_space_group_crystal_system       triclinic
_cell_length_a                    9.899373
_cell_length_b                    10.686988
_cell_length_c                    13.641216
_cell_angle_alpha                 91.51702
_cell_angle_beta                  82.967222
_cell_angle_gamma                 89.135736
_cell_volume                      1431.56109917

loop_
_atom_site_label
_atom_site_type_symbol
_atom_type_description
_atom_site_fract_x
_atom_site_fract_y
_atom_site_fract_z
_atom_type_partial_charge
C1    C     C_R   0.498958 0.740584 0.494898 0.850632
C2    C     C_R   0.618310 0.935998 0.496316 -0.208092
C3    C     C_R   0.619497 0.063090 0.509731 -0.175963
C4    C     C_R   0.475523 0.500693 0.685547 0.868276
C5    C     C_R   0.496480 0.129616 0.529412 -0.104289
C6    C     C_R   0.836651 0.665636 0.629262 -0.121228
C7    C     C_R   0.895643 0.745622 0.693307 -0.125639
C8    C     C_R   0.035286 0.743670 0.694050 -0.166695
C9    C     C_R   0.116840 0.662328 0.630245 -0.146548
C10   C     C_R   0.060687 0.580548 0.563992 0.162802
C11   C     C_R   0.916049 0.581270 0.563691 0.165621
C12   C     C_1   0.456255 0.505087 0.789103 -0.175933
C13   C     C_R   0.939976 0.422013 0.439386 -0.094315
C14   C     C_R   0.083171 0.422168 0.439321 -0.061976
C15   C     C_R   0.498800 0.261425 0.511296 0.878903
C16   C     C_R   0.524406 0.499860 0.314430 0.916313
C17   C     C_1   0.542741 0.503302 0.210944 -0.190724
C18   C     C_2   0.554703 0.511773 0.019103 0.412808
C19   C     C_2   0.435345 0.515018 0.981461 0.105344
C20   C     C_1   0.442379 0.509783 0.876794 0.113634
C21   C     C_1   0.553356 0.507177 0.123447 -0.143170
C22   C     C_3   0.298087 0.514093 0.045888 -0.475686
C23   C     C_R   0.243579 0.898301 0.484260 -0.347804
C24   C     C_3   0.175755 0.536118 0.989444 -0.815339
C25   C     C_R   0.120240 0.962801 0.515384 0.288816
C26   C     C_R   0.122030 0.073229 0.573943 0.448765
C27   C     C_R   0.247011 0.124067 0.590877 0.377914
C28   C     C_R   0.371118 0.067003 0.545350 -0.133433
C29   C     C_R   0.369116 0.944448 0.508008 0.020379
C30   C     C_R   0.494428 0.875411 0.494275 -0.058926
H1    H     H_    0.728876 0.673176 0.633842 0.197513
H2    H     H_    0.184452 0.627220 0.951980 0.257534
H3    H     H_    0.168986 0.459434 0.933751 0.275121
H4    H     H_    0.080653 0.538028 0.041945 0.250427
H5    H     H_    0.286524 0.422426 0.082363 0.220781
H6    H     H_    0.295575 0.588730 0.104481 0.220883
H7    H     H_    0.752385 0.507926 0.999147 0.341887
H8    H     H_    0.014113 0.839017 0.452199 0.337967
H9    H     H_    0.923893 0.086973 0.600897 0.361799
H10   H     H_    0.334107 0.231257 0.680574 0.314286
H11   H     H_    0.832375 0.809545 0.742708 0.154157
H12   H     H_    0.080968 0.806153 0.743858 0.148844
H13   H     H_    0.223274 0.666706 0.634516 0.202462
H14   H     H_    0.146420 0.358501 0.389822 0.140386
H15   H     H_    0.715139 0.885849 0.484739 0.205354
H16   H     H_    0.239853 0.815817 0.437353 0.196250
H17   H     H_    0.716764 0.109290 0.501264 0.186957
H18   H     H_    0.895484 0.358284 0.389944 0.144028
N1    N     N_R   0.857120 0.501200 0.500900 -0.119662
N2    N     N_R   0.142720 0.501280 0.500940 -0.113222
O1    O     O_R   0.385310 0.683220 0.500000 -0.651224
O2    O     O_3   0.997645 0.918156 0.491765 -0.799205
O3    O     O_3   0.004198 0.135112 0.615204 -0.713916
O4    O     O_3   0.244042 0.225401 0.656212 -0.683522
O5    O     O_R   0.614640 0.683250 0.500010 -0.645409
O6    O     O_R   0.368830 0.499960 0.640340 -0.608410
O7    O     O_R   0.598160 0.499980 0.640350 -0.611488
O8    O     O_R   0.385360 0.316750 0.499990 -0.582769
O9    O     O_R   0.614690 0.316780 0.500000 -0.618130
O10   O     O_R   0.401840 0.500020 0.359650 -0.621854
O11   O     O_R   0.631170 0.500040 0.359660 -0.607509
O12   O     O_3   0.676920 0.510774 0.957552 -0.757949
Zn1   Zn    Zn3+2 0.346870 0.499980 0.499990 0.959669
Zn2   Zn    Zn3+2 0.653130 0.500020 0.500010 0.953517

loop_
_geom_bond_atom_site_label_1
_geom_bond_atom_site_label_2
_ccdc_geom_bond_type
C4    O7    A    
O11   Zn2   S    
C24   H2    S    
C6    C7    A    
C11   N1    A    
C2    C3    A    
C4    C12   S    
C18   C21   S    
C22   H6    S    
C9    C10   A    
C19   C20   S    
C2    C30   A    
O5    Zn2   S    
C12   C20   T    
C25   O2    S    
H7    O12   S    
C26   C27   A    
O6    Zn1   S    
O1    Zn1   S    
C7    C8    A    
N1    Zn2   S    
C14   N2    A    
C13   C14   A    
C4    O6    A    
C22   H5    S    
C1    O1    A    
C6    C11   A    
O9    Zn2   S    
H9    O3    S    
C27   O4    S    
C10   N2    A    
O10   Zn1   S    
C13   N1    A    
C23   C29   A    
C3    H17   S    
C1    C30   S    
C8    H12   S    
C6    H1    S    
H10   O4    S    
N2    Zn1   S    
C7    H11   S    
C2    H15   S    
C1    O5    A    
C15   O8    A    
C22   C24   S    
C9    H13   S    
C5    C15   S    
C10   C11   A    
C29   C30   A    
C5    C28   A    
C26   O3    S    
O8    Zn1   S    
C19   C22   S    
H8    O2    S    
O7    Zn2   S    
C14   H14   S    
C23   C25   A    
C16   O11   A    
C27   C28   A    
C23   H16   S    
C18   C19   D    
C28   C29   A    
C18   O12   S    
C25   C26   A    
C16   O10   A    
C15   O9    A    
C24   H4    S    
C24   H3    S    
C16   C17   S    
C8    C9    A    
C3    C5    A    
C13   H18   S    
C17   C21   T    
