data_mof_unit_9714.cif
_audit_creation_date              2012-10-26T19:57:56-0400
_audit_creation_method            fapswitch 2.2
_symmetry_space_group_name_H-M    P1
_symmetry_Int_Tables_number       1
_space_group_crystal_system       triclinic
_cell_length_a                    7.448578
_cell_length_b                    8.71446
_cell_length_c                    12.968169
_cell_angle_alpha                 87.950847
_cell_angle_beta                  79.717464
_cell_angle_gamma                 102.133204
_cell_volume                      807.394581278

loop_
_atom_site_label
_atom_site_type_symbol
_atom_type_description
_atom_site_fract_x
_atom_site_fract_y
_atom_site_fract_z
_atom_type_partial_charge
C1    C     C_R   0.454258 0.200511 0.506025 0.560584
C2    C     C_R   0.678121 0.639636 0.129758 -0.130442
C3    C     C_R   0.567391 0.597194 0.863428 0.013223
C4    C     C_R   0.432434 0.402937 0.136587 0.013278
C5    C     C_R   0.563847 0.567090 0.971456 0.041916
C6    C     C_R   0.436116 0.432945 0.028538 0.041666
C7    C     C_2   0.434904 0.035382 0.526446 -0.016809
C8    C     C_2   0.565094 0.964620 0.473589 -0.016804
C9    C     C_2   0.319031 0.254350 0.196301 0.245659
C10   C     C_2   0.680332 0.746006 0.803774 0.245796
C11   C     C_2   0.289445 0.961487 0.619800 0.221226
C12   C     C_R   0.545741 0.799489 0.493989 0.560439
C13   C     C_2   0.710580 0.038545 0.380257 0.221334
C14   C     C_R   0.468055 0.498426 0.700612 0.558093
C15   C     C_R   0.531945 0.501590 0.299386 0.558474
C16   C     C_R   0.547776 0.512951 0.186740 0.000583
C17   C     C_R   0.452219 0.487065 0.813254 0.000428
C18   C     C_R   0.311575 0.334703 0.976883 -0.086642
C19   C     C_R   0.688564 0.665189 0.023084 -0.086430
C20   C     C_R   0.322075 0.360226 0.870203 -0.130309
Cu1   Cu    Cu3+1 0.686350 0.517570 0.488220 0.996866
Cu2   Cu    Cu3+1 0.313650 0.482430 0.511780 0.996982
H1    H     H_    0.770349 0.721303 0.168603 0.142166
H2    H     H_    0.841350 0.999731 0.363417 0.119021
H3    H     H_    0.230025 0.278435 0.831329 0.142138
H4    H     H_    0.205456 0.236767 0.017714 0.178146
H5    H     H_    0.794852 0.762980 0.982225 0.178328
H6    H     H_    0.934689 0.376957 0.582394 0.243453
H7    H     H_    0.065311 0.623042 0.417606 0.243458
H8    H     H_    0.234872 0.256258 0.273337 0.142948
H9    H     H_    0.763450 0.744475 0.726377 0.143086
H10   H     H_    0.158819 0.000470 0.636738 0.119086
N1    N     N_2   0.033570 0.455950 0.529530 -0.257243
N2    N     N_2   0.966430 0.544050 0.470470 -0.257253
O1    O     O_R   0.621060 0.286250 0.492350 -0.472426
O2    O     O_2   0.675027 0.873186 0.839360 -0.483961
O3    O     O_2   0.318434 0.865034 0.681920 -0.472755
O4    O     O_2   0.681469 0.134842 0.318061 -0.472418
O5    O     O_R   0.378940 0.713750 0.507650 -0.472267
O6    O     O_R   0.306310 0.256580 0.512240 -0.533632
O7    O     O_R   0.693690 0.743420 0.487760 -0.533753
O8    O     O_R   0.631800 0.512400 0.642670 -0.533681
O9    O     O_R   0.368200 0.487600 0.357330 -0.533702
O10   O     O_R   0.317060 0.482730 0.662570 -0.477084
O11   O     O_R   0.682940 0.517270 0.337430 -0.477152
O12   O     O_2   0.324975 0.126996 0.161149 -0.483615

loop_
_geom_bond_atom_site_label_1
_geom_bond_atom_site_label_2
_ccdc_geom_bond_type
C4    C16   A    
C8    C13   S    
C5    C19   A    
C2    C16   A    
C18   C20   A    
Cu2   O9    S    
C18   H4    S    
C8    C12   S    
C14   O8    A    
Cu2   O6    S    
C12   O5    A    
N1    N2    D    
C2    C19   A    
C15   O9    A    
C9    O12   D    
C3    C10   S    
Cu1   Cu2   S    
C7    C11   S    
C14   C17   S    
C13   O4    D    
C12   O7    A    
C9    H8    S    
Cu1   O1    S    
Cu2   O5    S    
H7    N2    S    
C14   O10   A    
C11   H10   S    
C3    C17   A    
Cu1   O11   S    
C5    C6    A    
C6    C18   A    
Cu1   O7    S    
H6    N1    S    
C15   O11   A    
C15   C16   S    
C7    C8    D    
C17   C20   A    
C19   H5    S    
C1    O1    A    
C4    C6    A    
C20   H3    S    
C2    H1    S    
C11   O3    D    
Cu2   N1    S    
C10   O2    D    
Cu1   N2    S    
C1    O6    A    
C4    C9    S    
C1    C7    S    
C10   H9    S    
Cu2   O10   S    
Cu1   O8    S    
C13   H2    S    
C3    C5    A    
