data_mof_unit_8079.cif
_audit_creation_date              2012-12-10T18:37:08-0500
_audit_creation_method            fapswitch 2.2
_symmetry_space_group_name_H-M    P1
_symmetry_Int_Tables_number       1
_space_group_crystal_system       triclinic
_cell_length_a                    15.075994
_cell_length_b                    15.400683
_cell_length_c                    23.342467
_cell_angle_alpha                 91.176799
_cell_angle_beta                  105.094417
_cell_angle_gamma                 81.797236
_cell_volume                      5178.36200329

loop_
_atom_site_label
_atom_site_type_symbol
_atom_type_description
_atom_site_fract_x
_atom_site_fract_y
_atom_site_fract_z
_atom_type_partial_charge
C1    C     C_R   0.441606 0.661856 0.490746 0.942246
C2    C     C_R   0.467763 0.451601 0.284199 0.350847
C3    C     C_R   0.427374 0.540387 0.753967 0.482034
C4    C     C_R   0.470351 0.467650 0.224904 0.460987
C5    C     C_R   0.514617 0.526858 0.795526 0.066563
C6    C     C_R   0.503205 0.544337 0.211250 0.060335
C7    C     C_R   0.404876 0.753026 0.475199 -0.172916
C8    C     C_R   0.595918 0.246383 0.521849 -0.183752
C9    C     C_R   0.316228 0.861272 0.400366 0.582766
C10   C     C_R   0.689072 0.133397 0.591711 0.566629
C11   C     C_R   0.339079 0.774228 0.421395 -0.330210
C12   C     C_R   0.558434 0.338119 0.508967 0.969254
C13   C     C_R   0.661229 0.222197 0.575399 -0.362783
C14   C     C_R   0.447797 0.817994 0.508428 0.324198
C15   C     C_R   0.558498 0.182711 0.484160 0.348647
C16   C     C_R   0.501741 0.500972 0.610966 0.947126
C17   C     C_R   0.497828 0.501628 0.389251 1.045036
C18   C     C_R   0.444923 0.899019 0.481015 -0.058357
C19   C     C_R   0.565148 0.097649 0.506914 -0.082923
C20   C     C_R   0.371840 0.924678 0.429210 -0.107839
C21   C     C_R   0.638319 0.069905 0.558376 -0.111604
C22   C     C_R   0.513311 0.954190 0.503311 0.042070
C23   C     C_R   0.595518 0.505010 0.776885 -0.192740
C24   C     C_R   0.499113 0.041100 0.481674 0.033653
C25   C     C_R   0.416034 0.070660 0.438595 -0.173224
C26   C     C_R   0.598120 0.922934 0.544120 -0.151557
C27   C     C_R   0.356372 0.013077 0.409779 0.428827
C28   C     C_R   0.658087 0.979679 0.573519 0.429420
C29   C     C_R   0.848489 0.625339 0.599055 0.268093
C30   C     C_R   0.162285 0.348062 0.421193 0.260930
C31   C     C_R   0.757045 0.608163 0.579453 0.400087
C32   C     C_R   0.247954 0.377913 0.430802 0.360670
C33   C     C_R   0.793815 0.514767 0.504046 0.495452
C34   C     C_R   0.520560 0.609540 0.253202 -0.188985
C35   C     C_R   0.203609 0.493656 0.490644 0.549805
C36   C     C_R   0.890189 0.522101 0.526337 -0.176688
C37   C     C_R   0.118291 0.461133 0.487627 -0.178381
C38   C     C_R   0.915795 0.581655 0.572874 -0.060886
C39   C     C_R   0.097887 0.388165 0.450833 -0.072354
C40   C     C_R   0.581037 0.487391 0.137380 0.626306
C41   C     C_R   0.489094 0.612321 0.879412 0.611603
C42   C     C_R   0.961382 0.474001 0.503606 0.124012
C43   C     C_R   0.052020 0.498917 0.518347 0.133198
C44   C     C_R   0.075017 0.555686 0.566139 -0.193428
C45   C     C_R   0.591516 0.491812 0.717506 0.367407
C46   C     C_R   0.946928 0.397911 0.470305 -0.198411
C47   C     C_R   0.008587 0.595548 0.593098 -0.114687
C48   C     C_R   0.013694 0.355934 0.444548 -0.096785
C49   C     C_R   0.478866 0.623036 0.118220 0.537350
C50   C     C_R   0.563466 0.463907 0.894718 0.579974
C51   C     C_R   0.486435 0.624820 0.059823 -0.072074
C52   C     C_R   0.573088 0.470292 0.955723 -0.075536
C53   C     C_R   0.534131 0.551184 0.038516 -0.085004
C54   C     C_R   0.532110 0.547038 0.977901 -0.077711
C55   C     C_R   0.582346 0.481095 0.077548 -0.149481
C56   C     C_R   0.511220 0.597859 0.309804 0.258153
C57   C     C_R   0.488164 0.619006 0.939417 -0.134759
C58   C     C_R   0.443451 0.696429 0.021751 -0.237436
C59   C     C_R   0.621064 0.400940 0.994520 -0.234492
C60   C     C_R   0.443717 0.694312 0.961845 0.541719
C61   C     C_R   0.626087 0.405482 0.055086 0.532897
C62   C     C_3   0.161981 0.869483 0.354198 -0.179624
C63   C     C_3   0.840954 0.131803 0.642244 -0.139340
C64   C     C_3   0.175991 0.639761 0.471340 -0.328054
C65   C     C_3   0.756831 0.529327 0.403837 -0.203408
C66   C     C_3   0.304705 0.767440 0.910857 -0.205606
C67   C     C_R   0.505381 0.508893 0.674435 -0.302013
C68   C     C_3   0.616728 0.269802 0.087085 -0.157734
C69   C     C_3   0.334685 0.646853 0.630934 -0.186282
C70   C     C_3   0.387652 0.329793 0.266475 0.043148
C71   C     C_3   0.285668 0.620334 0.756896 -0.155532
C72   C     C_3   0.368782 0.432355 0.139380 -0.359811
C73   C     C_R   0.490146 0.517312 0.326480 -0.306370
C74   C     C_R   0.423376 0.537114 0.692755 0.343844
Cl1   Cl    Cl    0.327920 0.327323 0.394209 -0.497686
Cl2   Cl    Cl    0.482535 0.803489 0.586607 -0.574895
Cl3   Cl    Cl    0.675024 0.660483 0.614806 -0.397064
Cl4   Cl    Cl    0.877489 0.700100 0.657504 -0.459687
Cl5   Cl    Cl    0.137157 0.260597 0.371811 -0.487840
Cl6   Cl    Cl    0.696830 0.449329 0.700667 -0.534426
Cl7   Cl    Cl    0.528526 0.685984 0.359108 -0.617412
Cl8   Cl    Cl    0.261604 0.058637 0.351799 -0.436203
Cl9   Cl    Cl    0.758275 0.931379 0.626636 -0.437402
Cl10  Cl    Cl    0.531175 0.204414 0.406845 -0.520955
H1    H     H_    0.408664 0.754372 0.038100 0.208164
H2    H     H_    0.543705 0.668941 0.242131 0.228683
H3    H     H_    0.689777 0.272374 0.604859 0.209633
H4    H     H_    0.306885 0.722902 0.394994 0.180441
H5    H     H_    0.146711 0.906058 0.393015 0.154351
H6    H     H_    0.155783 0.798931 0.358131 0.119735
H7    H     H_    0.108299 0.896510 0.314080 0.219043
H8    H     H_    0.842186 0.203776 0.644374 0.151349
H9    H     H_    0.860467 0.104840 0.601838 0.148652
H10   H     H_    0.894610 0.101407 0.681312 0.211515
H11   H     H_    0.099280 0.644831 0.462483 0.163410
H12   H     H_    0.654680 0.342355 0.978113 0.210909
H13   H     H_    0.197092 0.628424 0.429165 0.166825
H14   H     H_    0.195940 0.703794 0.488627 0.190597
H15   H     H_    0.827628 0.535797 0.400191 0.147252
H16   H     H_    0.718158 0.595483 0.407623 0.197365
H17   H     H_    0.719912 0.500466 0.361995 0.206913
H18   H     H_    0.276601 0.782447 0.950077 0.154039
H19   H     H_    0.284854 0.704262 0.891167 0.144939
H20   H     H_    0.271914 0.819927 0.877023 0.206563
H21   H     H_    0.602607 0.241131 0.042027 0.137948
H22   H     H_    0.550326 0.295082 0.098221 0.178870
H23   H     H_    0.395497 0.139183 0.426744 0.249715
H24   H     H_    0.653223 0.216206 0.119314 0.210742
H25   H     H_    0.369256 0.647439 0.594522 0.210685
H26   H     H_    0.365569 0.691535 0.666365 0.150135
H27   H     H_    0.260766 0.674721 0.613000 0.182266
H28   H     H_    0.414355 0.290857 0.232512 0.186934
H29   H     H_    0.324857 0.377589 0.246738 0.106987
H30   H     H_    0.366220 0.280487 0.291890 0.235220
H31   H     H_    0.246691 0.635610 0.790956 0.170152
H32   H     H_    0.233754 0.609829 0.714873 0.191241
H33   H     H_    0.319956 0.678470 0.753063 0.170900
H34   H     H_    0.618864 0.853588 0.553840 0.238864
H35   H     H_    0.380315 0.475704 0.105463 0.185119
H36   H     H_    0.313503 0.465967 0.159149 0.163152
H37   H     H_    0.342626 0.373939 0.116080 0.203382
H38   H     H_    0.031317 0.637906 0.629939 0.194186
H39   H     H_    0.997850 0.297854 0.419334 0.210305
H40   H     H_    0.145374 0.566374 0.586123 0.225524
H41   H     H_    0.885901 0.366732 0.465873 0.213405
H42   H     H_    0.662137 0.494458 0.809464 0.221156
N1    N     N_R   0.523359 0.553347 0.155029 -0.333258
N2    N     N_R   0.521743 0.534269 0.857865 -0.319530
N3    N     N_R   0.731690 0.552740 0.533440 -0.193646
N4    N     N_R   0.268310 0.447260 0.466560 -0.195793
O1    O     O_R   0.383120 0.605620 0.483150 -0.619891
O2    O     O_2   0.458897 0.683110 0.842889 -0.506210
O3    O     O_2   0.424731 0.688630 0.137325 -0.539348
O4    O     O_2   0.594738 0.387648 0.872221 -0.530949
O5    O     O_3   0.249939 0.880491 0.347129 -0.539312
O6    O     O_3   0.753965 0.111009 0.645117 -0.544579
O7    O     O_3   0.221471 0.573941 0.514393 -0.584510
O8    O     O_3   0.759910 0.473159 0.451634 -0.591654
O9    O     O_3   0.401701 0.766758 0.925778 -0.550454
O10   O     O_3   0.674305 0.335670 0.091915 -0.555194
O11   O     O_3   0.339249 0.559960 0.651424 -0.585988
O12   O     O_R   0.616880 0.394380 0.516850 -0.596908
O13   O     O_3   0.458624 0.369769 0.304965 -0.552210
O14   O     O_3   0.348668 0.542863 0.774869 -0.591067
O15   O     O_3   0.452786 0.403961 0.182332 -0.603663
O16   O     O_R   0.531890 0.639510 0.504600 -0.546227
O17   O     O_R   0.468110 0.360490 0.495400 -0.566626
O18   O     O_R   0.425590 0.483070 0.573110 -0.565036
O19   O     O_R   0.574410 0.516930 0.426890 -0.563697
O20   O     O_R   0.574360 0.516970 0.594570 -0.541539
O21   O     O_R   0.425640 0.483030 0.405430 -0.571205
O22   O     O_2   0.634591 0.427166 0.177612 -0.462711
Zn1   Zn    Zn3+2 0.400660 0.477370 0.485670 1.052275
Zn2   Zn    Zn3+2 0.599340 0.522630 0.514330 1.088717

loop_
_geom_bond_atom_site_label_1
_geom_bond_atom_site_label_2
_ccdc_geom_bond_type
C34   C56   A    
C8    C13   A    
C23   C45   A    
C72   H37   S    
C66   H18   S    
C46   H41   S    
C36   C42   A    
C65   H17   S    
C43   C44   A    
C48   H39   S    
C32   N4    A    
C56   Cl7   S    
C53   C54   A    
C70   H30   S    
C15   C19   A    
C63   H10   S    
C70   O13   S    
C12   O17   A    
C35   C37   A    
C10   O6    S    
C6    N1    S    
C5    N2    S    
C42   C46   A    
N3    Zn2   S    
C64   H11   S    
C4    O15   S    
C69   O11   S    
C72   O15   S    
C62   H5    S    
C62   H6    S    
C33   C36   A    
C40   O22   S    
C34   H2    S    
C51   C58   A    
C3    C74   A    
C14   C18   A    
C69   H25   S    
C7    C14   A    
C29   Cl4   S    
C49   C51   A    
C5    C23   A    
C63   H8    S    
C45   C67   A    
C50   C52   A    
N4    Zn1   S    
C11   H4    S    
C44   C47   A    
C64   H14   S    
C70   H29   S    
C1    C7    S    
C28   Cl9   S    
C17   C73   S    
C2    O13   S    
C41   N2    A    
C72   H36   S    
C1    O16   A    
C17   O21   A    
C68   H22   S    
C32   Cl1   S    
O17   Zn1   S    
C52   C54   A    
C31   Cl3   S    
C64   O7    S    
C53   C55   A    
C10   C21   A    
C49   N1    A    
C46   C48   A    
C59   C61   A    
C71   H33   S    
C66   H20   S    
O1    Zn1   S    
C29   C38   A    
C24   C25   A    
C65   H15   S    
C4    C6    A    
C50   O4    S    
C67   C74   A    
C47   H38   S    
C1    O1    A    
C40   N1    A    
C44   H40   S    
C6    C34   A    
C51   C53   A    
C14   Cl2   S    
C62   O5    S    
C37   C43   A    
C7    C11   A    
O19   Zn2   S    
C52   C59   A    
C37   C39   A    
C69   H26   S    
C9    C20   A    
O16   Zn2   S    
C33   O8    S    
C8    C12   S    
C40   C55   A    
C62   H7    S    
C13   H3    S    
C71   H31   S    
C16   C67   S    
O12   Zn2   S    
C9    C11   A    
C35   N4    A    
C38   C47   A    
C2    C73   A    
C70   H28   S    
C23   H42   S    
C65   O8    S    
C9    O5    S    
C64   H13   S    
C21   C28   A    
C8    C15   A    
O20   Zn2   S    
C22   C24   A    
C68   O10   S    
C50   N2    A    
C42   C43   A    
C30   Cl5   S    
C58   H1    S    
C25   H23   S    
C33   N3    A    
C30   C39   A    
C49   O3    S    
C56   C73   A    
C19   C21   A    
C18   C22   A    
C66   H19   S    
C74   O11   S    
C27   Cl8   S    
C17   O19   A    
C3    O14   S    
C26   H34   S    
C65   H16   S    
C3    C5    A    
C10   C13   A    
C41   O2    S    
C61   O10   S    
C15   Cl10  S    
C20   C27   A    
C25   C27   A    
C63   H9    S    
C26   C28   A    
C16   O18   A    
C63   O6    S    
C36   C38   A    
C19   C24   A    
C41   C57   A    
C71   H32   S    
C29   C31   A    
C35   O7    S    
C30   C32   A    
C69   H27   S    
C2    C4    A    
C55   C61   A    
C72   H35   S    
C12   O12   A    
C59   H12   S    
C45   Cl6   S    
C18   C20   A    
O21   Zn1   S    
C66   O9    S    
C60   O9    S    
C22   C26   A    
C57   C60   A    
C31   N3    A    
C68   H21   S    
C39   C48   A    
C16   O20   A    
C68   H24   S    
O18   Zn1   S    
C58   C60   A    
C71   O14   S    
C54   C57   A    
