data_mof_unit_13307.cif
_audit_creation_date              2012-12-10T19:06:26-0500
_audit_creation_method            fapswitch 2.2
_symmetry_space_group_name_H-M    P1
_symmetry_Int_Tables_number       1
_space_group_crystal_system       triclinic
_cell_length_a                    23.457077
_cell_length_b                    10.807549
_cell_length_c                    9.545325
_cell_angle_alpha                 90.007967
_cell_angle_beta                  90.049863
_cell_angle_gamma                 89.992503
_cell_volume                      2419.86787556

loop_
_atom_site_label
_atom_site_type_symbol
_atom_type_description
_atom_site_fract_x
_atom_site_fract_y
_atom_site_fract_z
_atom_type_partial_charge
C1    C     C_R   0.501298 0.262326 0.499972 0.811870
C2    C     C_R   0.970134 0.326665 0.680471 -0.165230
C3    C     C_R   0.029630 0.327577 0.680618 -0.162161
C4    C     C_R   0.059718 0.411259 0.595734 -0.021429
C5    C     C_R   0.029418 0.494557 0.509925 -0.017919
C6    C     C_R   0.059136 0.579027 0.424530 -0.014229
C7    C     C_R   0.028524 0.661172 0.338739 -0.164606
C8    C     C_R   0.969060 0.659597 0.337772 -0.165695
C9    C     C_R   0.119517 0.413883 0.593969 0.546807
C10   C     C_R   0.118908 0.578967 0.427316 0.522639
C11   C     C_R   0.239960 0.560730 0.615906 0.199446
C12   C     C_R   0.390963 0.498706 0.499986 0.847757
C13   C     C_R   0.299614 0.559247 0.609858 -0.314944
C14   C     C_R   0.328309 0.498378 0.500835 -0.158319
C15   C     C_R   0.296958 0.438280 0.394767 0.404368
C16   C     C_R   0.237298 0.436797 0.402849 -0.234878
C17   C     C_R   0.208766 0.498627 0.510788 0.280916
C18   C     C_R   0.760035 0.399506 0.433119 0.490201
C19   C     C_R   0.700194 0.401941 0.432179 -0.347508
C20   C     C_R   0.670870 0.496668 0.501559 -0.054416
C21   C     C_R   0.701003 0.587248 0.575708 -0.284772
C22   C     C_R   0.760335 0.584485 0.578491 -0.200437
C23   C     C_R   0.501234 0.737687 0.499958 0.787931
C24   C     C_R   0.789935 0.490750 0.508019 0.287240
C25   C     C_R   0.508157 0.063665 0.625714 0.150498
C26   C     C_R   0.507517 0.129287 0.499828 -0.097494
C27   C     C_R   0.515466 0.064494 0.373571 -0.216198
C28   C     C_R   0.515429 0.935504 0.373573 -0.207696
C29   C     C_R   0.507426 0.870749 0.499825 -0.098390
C30   C     C_R   0.508088 0.936402 0.625705 0.126587
C31   C     C_3   0.468760 0.929866 0.748518 -0.477518
C32   C     C_3   0.468864 0.070429 0.748582 -0.448116
C33   C     C_R   0.538918 0.432913 0.073621 0.128478
C34   C     C_R   0.608793 0.499090 0.500204 0.826471
C35   C     C_R   0.459834 0.564867 0.074289 -0.051953
C36   C     C_R   0.459790 0.564767 0.925454 -0.086020
C37   C     C_R   0.538044 0.430458 0.926198 0.192067
C38   C     C_3   0.601284 0.438927 0.916710 0.155097
C39   C     C_3   0.602386 0.448477 0.076020 0.161493
C40   C     C_R   0.879228 0.573024 0.423917 0.534109
C41   C     C_R   0.879698 0.410032 0.593154 0.588941
C42   C     C_R   0.939507 0.409115 0.595047 -0.024998
C43   C     C_R   0.969258 0.493231 0.509271 -0.020818
C44   C     C_R   0.938991 0.576058 0.422842 -0.013958
Cu1   Cu    Cu3+1 0.500000 0.499980 0.640670 0.956802
Cu2   Cu    Cu3+1 0.500000 0.500020 0.359330 0.985670
H1    H     H_    0.948260 0.261132 0.747348 0.183551
H2    H     H_    0.676621 0.329750 0.378818 0.140233
H3    H     H_    0.678564 0.660124 0.630765 0.154511
H4    H     H_    0.783467 0.655176 0.635367 0.162960
H5    H     H_    0.518783 0.112706 0.274428 0.166619
H6    H     H_    0.518738 0.887270 0.274429 0.176022
H7    H     H_    0.426615 0.889103 0.721553 0.195514
H8    H     H_    0.489802 0.889240 0.842245 0.205268
H9    H     H_    0.426768 0.111493 0.721728 0.202274
H10   H     H_    0.490004 0.110876 0.842293 0.208152
H11   H     H_    0.428031 0.617949 0.129992 0.128846
H12   H     H_    0.051927 0.262708 0.747583 0.185915
H13   H     H_    0.427931 0.617792 0.869642 0.134404
H14   H     H_    0.615726 0.523499 0.860284 0.124799
H15   H     H_    0.623921 0.371296 0.132608 0.082575
H16   H     H_    0.050386 0.726863 0.272042 0.186980
H17   H     H_    0.946772 0.724141 0.270383 0.186240
H18   H     H_    0.323839 0.607538 0.689712 0.165864
H19   H     H_    0.212709 0.386046 0.325875 0.153602
N1    N     N_R   0.851006 0.491125 0.508450 -0.448064
N2    N     N_R   0.147655 0.497567 0.511522 -0.460625
N3    N     N_R   0.500360 0.500930 0.147930 -0.158646
N4    N     N_R   0.500360 0.500890 0.852020 -0.201283
O1    O     O_R   0.500000 0.319640 0.618810 -0.562482
O2    O     O_2   0.850409 0.331075 0.675526 -0.562164
O3    O     O_2   0.149356 0.333415 0.673398 -0.543941
O4    O     O_2   0.148164 0.659577 0.346840 -0.551094
O5    O     O_R   0.500010 0.319680 0.381230 -0.589953
O6    O     O_R   0.417880 0.499940 0.618820 -0.595180
O7    O     O_R   0.417880 0.499980 0.381240 -0.557084
O8    O     O_R   0.499990 0.680320 0.618770 -0.585856
O9    O     O_R   0.500000 0.680360 0.381190 -0.574355
O10   O     O_R   0.582120 0.500020 0.618760 -0.582010
O11   O     O_R   0.582120 0.500060 0.381180 -0.538161
O12   O     O_2   0.849472 0.650870 0.340937 -0.566331
O13   O     O_3   0.623659 0.326119 0.866083 -0.578269
C45   C     C_3   0.683500 0.334865 0.855063 0.048475
H20   H     H_    0.703212 0.343815 0.960450 0.110260
H21   H     H_    0.696438 0.415083 0.789635 0.164926
C46   C     C_3   0.706288 0.217974 0.786494 -0.704771
H22   H     H_    0.688244 0.208196 0.679422 0.249233
H23   H     H_    0.753441 0.222872 0.779088 0.240734
H24   H     H_    0.694415 0.135751 0.849859 0.233429
O14   O     O_3   0.617087 0.568857 0.121964 -0.545241
C47   C     C_3   0.676817 0.584189 0.118398 0.053484
H25   H     H_    0.692487 0.586066 0.008503 0.116715
H26   H     H_    0.698909 0.509106 0.176049 0.127488
C48   C     C_3   0.692229 0.706542 0.187329 -0.706040
H27   H     H_    0.676467 0.708315 0.296945 0.251597
H28   H     H_    0.739255 0.718345 0.188000 0.226761
H29   H     H_    0.672654 0.784359 0.128458 0.231491
C49   C     C_3   0.211018 0.631065 0.733097 -0.368157
C50   C     C_3   0.220884 0.568786 0.874701 -0.812839
H30   H     H_    0.205221 0.471869 0.872512 0.286854
H31   H     H_    0.266910 0.569085 0.901901 0.229392
H32   H     H_    0.197433 0.619962 0.957451 0.253073
H33   H     H_    0.228105 0.726930 0.736612 0.200643
H34   H     H_    0.164388 0.639039 0.715614 0.209112
O15   O     O_3   0.324824 0.368371 0.294251 -0.563167
C51   C     C_3   0.315902 0.421266 0.160674 0.081176
H35   H     H_    0.331503 0.518586 0.158076 0.133329
H36   H     H_    0.270062 0.419372 0.130776 0.145476
C52   C     C_3   0.348704 0.346844 0.051997 -0.753230
H37   H     H_    0.331262 0.251480 0.045708 0.249328
H38   H     H_    0.344776 0.391488 0.947620 0.199506
H39   H     H_    0.394470 0.341647 0.081132 0.254014
O16   O     O_3   0.789926 0.304564 0.369329 -0.559292
C53   C     C_3   0.783809 0.314089 0.222579 0.029425
H40   H     H_    0.794012 0.409305 0.185056 0.148296
H41   H     H_    0.739789 0.288629 0.190308 0.127744
C54   C     C_3   0.824898 0.224918 0.152088 -0.723774
H42   H     H_    0.815565 0.128563 0.185383 0.253238
H43   H     H_    0.820242 0.231424 0.036501 0.206328
H44   H     H_    0.869464 0.248455 0.181134 0.250468

loop_
_geom_bond_atom_site_label_1
_geom_bond_atom_site_label_2
_ccdc_geom_bond_type
C37   N4    A    
C11   C13   A    
C41   C42   A    
C19   C20   A    
C9    O3    S    
C36   H13   S    
C21   H3    S    
C53   H40   S    
C7    C8    A    
Cu1   Cu2   S    
C26   C27   A    
C29   C30   A    
C11   C49   S    
C18   C24   A    
C1    O5    A    
C23   C29   S    
C28   C29   A    
C52   H38   S    
C30   C31   S    
C10   O4    S    
C46   H23   S    
C51   H35   S    
C15   C16   A    
C18   C19   A    
C34   O11   A    
C45   H20   S    
C16   C17   A    
C13   C14   A    
C32   H9    S    
C24   N1    S    
C22   H4    S    
C20   C34   S    
C25   C32   S    
C5    C43   A    
C23   O9    A    
C40   N1    A    
C21   C22   A    
C38   O13   S    
C18   O16   S    
Cu2   O7    S    
C27   H5    S    
C38   C39   S    
C39   H15   S    
C17   N2    S    
Cu1   N4    S    
C54   H44   S    
C47   H25   S    
Cu2   O9    S    
C46   H22   S    
C48   H29   S    
C25   C26   A    
C10   N2    A    
C23   O8    A    
C35   C36   A    
C43   C44   A    
C9    N2    A    
C7    H16   S    
Cu2   N3    S    
C37   C38   S    
C34   O10   A    
C47   H26   S    
C50   H30   S    
C45   C46   S    
Cu1   O10   S    
C33   C39   S    
C31   H7    S    
C48   H28   S    
C41   N1    A    
C38   H14   S    
C45   H21   S    
C12   C14   S    
C49   C50   S    
C12   O7    A    
C1    C26   S    
C22   C24   A    
C52   H39   S    
C42   C43   A    
C3    C4    A    
Cu2   O5    S    
C36   N4    A    
O16   C53   S    
C25   C30   A    
C11   C17   A    
C39   O14   S    
C50   H31   S    
Cu1   O1    S    
C19   H2    S    
C40   O12   S    
C31   C32   S    
C8    C44   A    
C4    C5    A    
C46   H24   S    
C35   H11   S    
C6    C10   A    
C53   H41   S    
C6    C7    A    
C2    H1    S    
O15   C51   S    
C1    O1    A    
C41   O2    S    
Cu1   O6    S    
C15   O15   S    
C54   H43   S    
C2    C3    A    
C54   H42   S    
C47   C48   S    
Cu2   O11   S    
C28   H6    S    
O14   C47   S    
C5    C6    A    
C13   H18   S    
C51   H36   S    
C35   N3    A    
C2    C42   A    
C49   H34   S    
C31   H8    S    
C48   H27   S    
C33   C37   A    
C53   C54   S    
C8    H17   S    
C3    H12   S    
C40   C44   A    
C50   H32   S    
C20   C21   A    
O13   C45   S    
C12   O6    A    
C27   C28   A    
C14   C15   A    
Cu1   O8    S    
C16   H19   S    
C4    C9    A    
C52   H37   S    
C32   H10   S    
C49   H33   S    
C33   N3    A    
C51   C52   S    
