data_mof_unit_31884.cif
_audit_creation_date              2012-12-10T17:33:48-0500
_audit_creation_method            fapswitch 2.2
_symmetry_space_group_name_H-M    P1
_symmetry_Int_Tables_number       1
_space_group_crystal_system       triclinic
_cell_length_a                    10.6432
_cell_length_b                    11.977601
_cell_length_c                    12.867054
_cell_angle_alpha                 93.437552
_cell_angle_beta                  90.198062
_cell_angle_gamma                 86.019355
_cell_volume                      1633.39037604

loop_
_atom_site_label
_atom_site_type_symbol
_atom_type_description
_atom_site_fract_x
_atom_site_fract_y
_atom_site_fract_z
_atom_type_partial_charge
C1    C     C_R   0.498667 0.522094 0.700495 0.870674
C2    C     C_R   0.516665 0.444734 0.973845 0.097223
C3    C     C_R   0.469397 0.546842 0.025334 0.156079
C4    C     C_R   0.742388 0.499912 0.502161 0.876058
C5    C     C_R   0.459841 0.554494 0.131901 -0.278989
C6    C     C_R   0.541378 0.360328 0.138542 -0.251497
C7    C     C_R   0.550116 0.349231 0.030080 0.212250
C8    C     C_R   0.398601 0.953359 0.391029 -0.343013
C9    C     C_R   0.406017 0.837378 0.403049 0.019307
C10   C     C_R   0.540866 0.858998 0.548953 -0.060210
C11   C     C_R   0.535735 0.976229 0.540287 0.097774
C12   C     C_3   0.121949 0.499276 0.502770 0.035310
C13   C     C_R   0.464107 0.023800 0.459783 0.098239
C14   C     C_R   0.459702 0.140948 0.450671 -0.063934
C15   C     C_R   0.591409 0.162898 0.598442 0.018271
C16   C     C_R   0.500041 0.477712 0.299541 0.921816
C17   C     C_R   0.599772 0.046855 0.609949 -0.348759
C18   C     C_R   0.257927 0.499837 0.500375 0.879579
C19   C     C_3   0.922171 0.582194 0.591495 -0.424613
C20   C     C_3   0.067927 0.577539 0.596961 -0.003567
C21   C     C_3   0.938799 0.377289 0.520138 0.087979
C22   C     C_3   0.923272 0.534014 0.396376 -0.520825
C23   C     C_3   0.081847 0.378300 0.517539 -0.419872
C24   C     C_3   0.878991 0.498346 0.503614 0.038300
C25   C     C_3   0.150394 0.392338 0.272015 -0.786497
C26   C     C_3   0.653493 0.155835 0.032747 -0.815087
C27   C     C_3   0.100429 0.623321 0.783958 -0.807311
C28   C     C_3   0.911559 0.213525 0.623034 -0.823761
C29   C     C_3   0.065643 0.548080 0.400597 0.054205
C30   C     C_R   0.499294 0.463034 0.188217 -0.101985
C31   C     C_R   0.494388 0.534792 0.811875 -0.048210
C32   C     C_R   0.434825 0.641192 0.969892 -0.206391
C33   C     C_R   0.446973 0.635065 0.862750 -0.209996
C34   C     C_R   0.531424 0.441387 0.867109 -0.273985
H1    H     H_    0.880206 0.564131 0.667143 0.178091
H2    H     H_    0.638748 0.217491 0.653330 0.150663
H3    H     H_    0.342400 0.987495 0.328544 0.140380
H4    H     H_    0.654936 0.012930 0.673113 0.144990
H5    H     H_    0.355803 0.783150 0.349735 0.125800
H6    H     H_    0.596416 0.820791 0.609720 0.122888
H7    H     H_    0.098215 0.663840 0.588227 0.146864
H8    H     H_    0.123348 0.347237 0.590781 0.191262
H9    H     H_    0.899267 0.470836 0.333961 0.180296
H10   H     H_    0.873607 0.614978 0.376726 0.179774
H11   H     H_    0.075814 0.640277 0.408714 0.113418
H12   H     H_    0.909565 0.320981 0.453406 0.145843
H13   H     H_    0.102531 0.558589 0.241968 0.225672
H14   H     H_    0.178621 0.382471 0.188741 0.232411
H15   H     H_    0.063570 0.347762 0.281177 0.229103
H16   H     H_    0.229460 0.353865 0.316772 0.248943
H17   H     H_    0.119131 0.316719 0.455857 0.170324
H18   H     H_    0.528767 0.216876 0.919994 0.218772
H19   H     H_    0.692270 0.088408 0.976453 0.239123
H20   H     H_    0.585842 0.119364 0.084478 0.235183
H21   H     H_    0.733131 0.188233 0.078784 0.249406
H22   H     H_    0.200583 0.498112 0.696606 0.226230
H23   H     H_    0.424256 0.633007 0.171204 0.158001
H24   H     H_    0.126470 0.583396 0.857435 0.247739
H25   H     H_    0.002073 0.660226 0.791415 0.245527
H26   H     H_    0.164565 0.690983 0.772767 0.233819
H27   H     H_    0.925161 0.376827 0.684305 0.251826
H28   H     H_    0.868675 0.189775 0.696360 0.235922
H29   H     H_    0.012810 0.184035 0.622532 0.237472
H30   H     H_    0.863289 0.171335 0.556488 0.250569
H31   H     H_    0.568218 0.290229 0.184983 0.174349
H32   H     H_    0.398239 0.719172 0.009313 0.133523
H33   H     H_    0.417525 0.707450 0.819815 0.156094
H34   H     H_    0.571872 0.365903 0.826039 0.165468
H35   H     H_    0.404691 0.179121 0.389573 0.119093
H36   H     H_    0.886291 0.668970 0.575298 0.162900
N1    N     N_R   0.523380 0.207800 0.519350 -0.098924
N2    N     N_R   0.476620 0.792180 0.480650 -0.099896
N3    N     N_2   0.130081 0.510433 0.303026 -0.300389
N4    N     N_2   0.590332 0.244528 0.976407 -0.312612
N5    N     N_2   0.112606 0.540004 0.697594 -0.294407
N6    N     N_2   0.897127 0.334118 0.617201 -0.281523
O1    O     O_R   0.506240 0.421700 0.658830 -0.630585
O2    O     O_R   0.491240 0.609310 0.646410 -0.629135
O3    O     O_R   0.692710 0.406190 0.506230 -0.606309
O4    O     O_R   0.677700 0.593810 0.493810 -0.626730
O5    O     O_R   0.508760 0.390690 0.353590 -0.636382
O6    O     O_R   0.493760 0.578300 0.341170 -0.623609
O7    O     O_R   0.322300 0.406190 0.506190 -0.634977
O8    O     O_R   0.307290 0.593810 0.493770 -0.634481
Zn1   Zn    Zn3+2 0.510020 0.374730 0.508290 0.933950
Zn2   Zn    Zn3+2 0.489980 0.625270 0.491710 0.933710

loop_
_geom_bond_atom_site_label_1
_geom_bond_atom_site_label_2
_ccdc_geom_bond_type
C8    C13   A    
C22   C29   S    
C12   C29   S    
C1    O1    A    
C14   N1    A    
C19   C20   S    
C9    N2    A    
C1    C31   S    
C26   H21   S    
C20   H7    S    
C12   C23   S    
C23   H8    S    
O8    Zn2   S    
C4    O4    A    
H18   N4    S    
C27   H26   S    
C4    C24   S    
C29   N3    S    
C16   C30   S    
C9    H5    S    
C10   H6    S    
C25   H16   S    
O4    Zn2   S    
N1    Zn1   S    
C6    H31   S    
C22   H10   S    
C2    C7    A    
C8    C9    A    
C18   O8    A    
C31   C33   A    
O2    Zn2   S    
O1    Zn1   S    
H22   N5    S    
C13   C14   A    
C1    O2    A    
C27   N5    S    
C26   H20   S    
C7    N4    S    
H27   N6    S    
H13   N3    S    
C4    O3    A    
C34   H34   S    
O6    Zn2   S    
C20   N5    S    
C29   H11   S    
C23   H17   S    
C22   H9    S    
C21   N6    S    
C12   C20   S    
C16   O6    A    
C18   O7    A    
C31   C34   A    
C25   H14   S    
C28   H30   S    
C6    C30   A    
C21   C23   S    
C14   H35   S    
C22   C24   S    
C8    H3    S    
C28   N6    S    
C26   H19   S    
C15   H2    S    
O3    Zn1   S    
C33   H33   S    
C32   H32   S    
C21   H12   S    
C15   C17   A    
C11   C17   A    
O7    Zn1   S    
C3    C5    A    
C27   H24   S    
N2    Zn2   S    
C6    C7    A    
C15   N1    A    
C5    H23   S    
C32   C33   A    
C2    C3    A    
C19   H1    S    
C11   C13   A    
C2    C34   A    
C16   O5    A    
C26   N4    S    
C19   C24   S    
C25   N3    S    
C17   H4    S    
C3    C32   A    
C25   H15   S    
C10   C11   A    
C28   H29   S    
C5    C30   A    
C21   C24   S    
C12   C18   S    
C19   H36   S    
C27   H25   S    
O5    Zn1   S    
C28   H28   S    
C10   N2    A    
