data_mof_unit_47738.cif
_audit_creation_date              2012-12-10T20:34:54-0500
_audit_creation_method            fapswitch 2.2
_symmetry_space_group_name_H-M    P1
_symmetry_Int_Tables_number       1
_space_group_crystal_system       triclinic
_cell_length_a                    10.62326
_cell_length_b                    10.663363
_cell_length_c                    9.909229
_cell_angle_alpha                 88.962969
_cell_angle_beta                  88.029247
_cell_angle_gamma                 91.626156
_cell_volume                      1121.19407525

loop_
_atom_site_label
_atom_site_type_symbol
_atom_type_description
_atom_site_fract_x
_atom_site_fract_y
_atom_site_fract_z
_atom_type_partial_charge
C1    C     C_R   0.508981 0.260615 0.501116 0.887970
C2    C     C_3   0.877880 0.493092 0.496662 0.170561
C3    C     C_3   0.930050 0.629513 0.508523 -0.406382
C4    C     C_3   0.929958 0.433638 0.365399 -0.376736
C5    C     C_R   0.543241 0.061398 0.621339 0.038146
C6    C     C_R   0.541724 0.131753 0.502559 -0.126621
C7    C     C_R   0.574949 0.074388 0.381523 -0.143717
C8    C     C_R   0.562980 0.944308 0.371769 -0.021431
C9    C     C_R   0.533953 0.873277 0.493517 -0.200079
C10   C     C_R   0.543080 0.934036 0.616984 0.046390
C11   C     C_3   0.474356 0.919663 0.751523 0.357640
C12   C     C_R   0.257549 0.497160 0.500789 0.844557
C13   C     C_3   0.469188 0.062232 0.751822 -0.530103
C14   C     C_R   0.398127 0.456423 0.075644 0.027741
C15   C     C_R   0.598378 0.555057 0.068113 0.494598
C16   C     C_R   0.598150 0.551105 0.922306 -0.297362
C17   C     C_R   0.393800 0.463511 0.934052 0.196024
C18   C     C_3   0.324606 0.338380 0.933966 -0.288843
C19   C     C_3   0.337832 0.328584 0.085957 -0.215037
C20   C     C_R   0.506445 0.740616 0.497833 0.911567
C21   C     C_R   0.741811 0.495428 0.498422 0.816620
C22   C     C_3   0.064732 0.421587 0.622316 -0.399554
C23   C     C_3   0.921455 0.413168 0.617963 -0.386396
C24   C     C_3   0.074566 0.631379 0.500141 -0.402771
C25   C     C_3   0.073667 0.430898 0.368391 -0.381128
C26   C     C_3   0.120628 0.495166 0.498458 0.145365
H1    H     H_    0.089985 0.473863 0.713252 0.226420
H2    H     H_    0.902220 0.487954 0.275012 0.224259
H3    H     H_    0.108972 0.683006 0.406755 0.177997
H4    H     H_    0.894064 0.690535 0.427488 0.171906
H5    H     H_    0.595708 0.131098 0.291649 0.198728
H6    H     H_    0.536724 0.878920 0.828419 0.070734
H7    H     H_    0.372699 0.097476 0.739116 0.207516
H8    H     H_    0.523611 0.104663 0.834127 0.180241
H9    H     H_    0.103097 0.325668 0.626177 0.151637
H10   H     H_    0.676352 0.587667 0.859872 0.149474
H11   H     H_    0.376264 0.268852 0.873886 0.127134
H12   H     H_    0.248335 0.326618 0.147817 0.194771
H13   H     H_    0.889308 0.313543 0.608088 0.163719
H14   H     H_    0.881600 0.446959 0.715728 0.199167
H15   H     H_    0.112206 0.682537 0.587461 0.185580
H16   H     H_    0.897798 0.668998 0.606678 0.167708
H17   H     H_    0.113286 0.480347 0.275811 0.204347
H18   H     H_    0.104569 0.332044 0.365625 0.173174
H19   H     H_    0.890631 0.336387 0.356025 0.163940
N1    N     N_R   0.499150 0.499140 0.142800 -0.157694
N2    N     N_R   0.499150 0.499180 0.857150 -0.129096
O1    O     O_R   0.500020 0.316790 0.614690 -0.620919
O2    O     O_R   0.500000 0.316760 0.385350 -0.625355
O3    O     O_R   0.314800 0.500000 0.614670 -0.616009
O4    O     O_R   0.314790 0.499960 0.385330 -0.626608
O5    O     O_R   0.500000 0.683240 0.614650 -0.577830
O6    O     O_R   0.499980 0.683210 0.385310 -0.636869
O7    O     O_R   0.685210 0.500040 0.614670 -0.644618
O8    O     O_R   0.685200 0.500000 0.385330 -0.569080
Zn1   Zn    Zn3+2 0.500010 0.500020 0.653130 0.948133
Zn2   Zn    Zn3+2 0.499990 0.499980 0.346870 0.975810
C27   C     C_2   0.568384 0.893772 0.232417 0.451756
H20   H     H_    0.511560 0.813875 0.203375 0.106962
O9    O     O_2   0.633394 0.947090 0.143614 -0.626237
O10   O     O_3   0.354080 0.860779 0.742152 -0.582808
C28   C     C_3   0.306366 0.829065 0.873633 0.127281
H21   H     H_    0.291099 0.915389 0.933057 0.159762
H22   H     H_    0.371625 0.767035 0.927745 0.131077
C29   C     C_3   0.181087 0.757675 0.864724 -0.807728
H23   H     H_    0.195389 0.668318 0.811307 0.273255
H24   H     H_    0.141588 0.735550 0.967913 0.220463
H25   H     H_    0.113168 0.815094 0.809602 0.240122
O11   O     O_3   0.697562 0.608209 0.139149 -0.587534
C30   C     C_3   0.782662 0.684298 0.058082 0.063020
H26   H     H_    0.731394 0.755419 0.999258 0.162434
H27   H     H_    0.839749 0.625236 0.989258 0.150567
C31   C     C_3   0.874061 0.754685 0.146523 -0.769447
H28   H     H_    0.942270 0.689342 0.189144 0.226023
H29   H     H_    0.927864 0.827218 0.084794 0.215454
H30   H     H_    0.822328 0.801352 0.229815 0.268320
C32   C     C_2   0.187947 0.343348 0.901933 0.395181
H31   H     H_    0.146280 0.268830 0.843789 0.061446
O12   O     O_2   0.121060 0.424178 0.949448 -0.612986
C33   C     C_2   0.423646 0.225033 0.121323 0.439132
H32   H     H_    0.523869 0.233521 0.096242 0.070103
O13   O     O_2   0.379439 0.127889 0.172570 -0.594957

loop_
_geom_bond_atom_site_label_1
_geom_bond_atom_site_label_2
_ccdc_geom_bond_type
C3    H16   S    
C31   H28   S    
C25   H17   S    
C4    C25   S    
C7    C8    A    
C14   N1    A    
C32   H31   S    
C22   H9    S    
C18   H11   S    
C24   C26   S    
O11   C30   S    
C21   O7    A    
C27   O9    D    
C23   H14   S    
O2    Zn2   S    
C25   H18   S    
C18   C19   S    
C24   H3    S    
C28   H22   S    
C8    C27   S    
C8    C9    A    
C29   H24   S    
C30   H26   S    
O4    Zn2   S    
C9    C10   A    
C5    C13   S    
C24   H15   S    
C31   H29   S    
C14   C17   A    
C3    C24   S    
O10   C28   S    
C2    C21   S    
C16   N2    A    
C4    H2    S    
C4    H19   S    
C32   O12   D    
C15   O11   S    
O7    Zn1   S    
C7    H5    S    
C15   C16   A    
C1    C6    S    
C33   O13   D    
C21   O8    A    
O6    Zn2   S    
C20   O6    A    
C25   C26   S    
O3    Zn1   S    
C12   C26   S    
C3    H4    S    
C2    C4    S    
C13   H7    S    
C28   H21   S    
C19   H12   S    
C9    C20   S    
C29   H25   S    
C30   C31   S    
C17   C18   S    
C11   H6    S    
C22   H1    S    
O8    Zn2   S    
N1    Zn2   S    
C31   H30   S    
C12   O4    A    
O1    Zn1   S    
C28   C29   S    
C14   C19   S    
C17   N2    A    
C33   H32   S    
C11   O10   S    
C12   O3    A    
C1    O1    A    
C6    C7    A    
C2    C3    S    
C27   H20   S    
C13   H8    S    
C20   O5    A    
C16   H10   S    
C11   C13   S    
C5    C6    A    
C18   C32   S    
C23   H13   S    
C19   C33   S    
C10   C11   S    
C5    C10   A    
C29   H23   S    
C22   C26   S    
C2    C23   S    
C22   C23   S    
C30   H27   S    
C15   N1    A    
C1    O2    A    
O5    Zn1   S    
N2    Zn1   S    
