data_mof_unit_36209.cif
_audit_creation_date              2012-10-26T21:33:03-0400
_audit_creation_method            fapswitch 2.2
_symmetry_space_group_name_H-M    P1
_symmetry_Int_Tables_number       1
_space_group_crystal_system       triclinic
_cell_length_a                    28.247004
_cell_length_b                    18.397513
_cell_length_c                    17.0445
_cell_angle_alpha                 90.211665
_cell_angle_beta                  60.877442
_cell_angle_gamma                 90.529377
_cell_volume                      7737.48955319

loop_
_atom_site_label
_atom_site_type_symbol
_atom_type_description
_atom_site_fract_x
_atom_site_fract_y
_atom_site_fract_z
_atom_type_partial_charge
C1    C     C_R   0.701774 0.268471 0.675836 0.890647
C2    C     C_R   0.953897 0.633956 0.472921 0.457869
C3    C     C_R   0.074267 0.900613 0.933681 0.919706
C4    C     C_R   0.573611 0.600296 0.934461 0.923210
C5    C     C_R   0.425992 0.400118 0.066013 0.921360
C6    C     C_R   0.426019 0.599709 0.066065 0.919659
C7    C     C_R   0.574267 0.400613 0.933681 0.919706
C8    C     C_R   0.552846 0.003433 0.486549 -0.110887
C9    C     C_R   0.467333 0.004743 0.445127 -0.111114
C10   C     C_R   0.052847 0.503433 0.486547 -0.110886
C11   C     C_R   0.967333 0.504743 0.445127 -0.111116
C12   C     C_R   0.526394 0.070075 0.491800 -0.091976
C13   C     C_R   0.987126 0.384246 0.383437 0.434005
C14   C     C_R   0.497489 0.941049 0.430255 -0.060104
C15   C     C_R   0.482876 0.070630 0.471196 -0.092173
C16   C     C_R   0.539340 0.939228 0.454263 -0.087417
C17   C     C_R   0.026395 0.570075 0.491800 -0.091977
C18   C     C_R   0.997490 0.441049 0.430253 -0.060102
C19   C     C_R   0.982876 0.570630 0.471196 -0.092173
C20   C     C_R   0.039342 0.439228 0.454259 -0.087413
C21   C     C_R   0.627967 0.939659 0.490690 -0.102154
C22   C     C_R   0.396044 0.068161 0.431400 -0.107809
C23   C     C_R   0.399062 0.936182 0.423223 -0.040472
C24   C     C_R   0.045865 0.633056 0.516561 0.451071
C25   C     C_R   0.608776 0.064105 0.543402 -0.087127
C26   C     C_R   0.127968 0.439660 0.490689 -0.102152
C27   C     C_R   0.896044 0.568161 0.431401 -0.107809
C28   C     C_R   0.899062 0.436182 0.423223 -0.040472
C29   C     C_R   0.108776 0.564106 0.543403 -0.087127
C30   C     C_R   0.668452 0.938054 0.518203 -0.079818
C31   C     C_R   0.343422 0.065923 0.439416 -0.094062
C32   C     C_R   0.344670 0.935266 0.436940 -0.054926
C33   C     C_R   0.657508 0.064291 0.550046 -0.084919
C34   C     C_R   0.168452 0.438054 0.518204 -0.079820
C35   C     C_R   0.569184 0.875630 0.446557 0.463530
C36   C     C_R   0.843422 0.565923 0.439417 -0.094062
C37   C     C_R   0.844670 0.435266 0.436941 -0.054925
C38   C     C_R   0.157508 0.564291 0.550048 -0.084919
C39   C     C_R   0.682083 0.999995 0.548016 -0.295160
C40   C     C_R   0.319457 0.000108 0.440095 -0.289702
C41   C     C_R   0.182083 0.499995 0.548018 -0.295160
C42   C     C_R   0.819457 0.500108 0.440095 -0.289703
C43   C     C_R   0.595666 0.001863 0.508815 -0.082781
C44   C     C_R   0.420605 0.002908 0.433641 -0.092214
C45   C     C_R   0.095666 0.501863 0.508815 -0.082781
C46   C     C_R   0.453897 0.133956 0.472920 0.457869
C47   C     C_R   0.920605 0.502908 0.433641 -0.092215
C48   C     C_R   0.118652 0.381796 0.444966 0.434538
C49   C     C_R   0.924460 0.632999 0.427478 0.439821
C50   C     C_R   0.934795 0.376217 0.391701 0.386155
C51   C     C_R   0.075590 0.625650 0.561423 0.425790
C52   C     C_R   0.618649 0.881794 0.444971 0.434542
C53   C     C_R   0.424460 0.132999 0.427476 0.439819
C54   C     C_R   0.434795 0.876217 0.391701 0.386154
C55   C     C_R   0.575590 0.125650 0.561422 0.425791
C56   C     C_3   0.196590 0.377291 0.311534 -0.269056
C57   C     C_R   0.487125 0.884246 0.383439 0.434000
C58   C     C_3   0.937845 0.682603 0.295172 -0.266451
C59   C     C_3   0.935363 0.250985 0.376224 -0.127171
C60   C     C_3   0.052260 0.659726 0.704161 -0.283131
C61   C     C_3   0.696584 0.877283 0.311533 -0.269041
C62   C     C_3   0.437844 0.182603 0.295171 -0.266450
C63   C     C_3   0.435362 0.750984 0.376224 -0.127164
C64   C     C_3   0.552260 0.159726 0.704160 -0.283131
C65   C     C_3   0.014844 0.279976 0.519695 -0.318433
C66   C     C_3   0.911302 0.681915 0.612786 -0.220671
C67   C     C_3   0.062085 0.386161 0.244816 -0.239808
C68   C     C_R   0.545865 0.133056 0.516561 0.451069
C69   C     C_3   0.081057 0.711374 0.399016 -0.209530
C70   C     C_3   0.514831 0.779983 0.519708 -0.318434
C71   C     C_3   0.411302 0.181916 0.612785 -0.220669
C72   C     C_3   0.562086 0.886156 0.244820 -0.239811
C73   C     C_3   0.581057 0.211374 0.399016 -0.209529
C74   C     C_3   0.775754 0.418307 0.894036 -0.205410
C75   C     C_3   0.302702 0.569036 0.940157 -0.174987
C76   C     C_3   0.222731 0.424604 0.085387 -0.202031
C77   C     C_3   0.695817 0.566103 0.057379 -0.137558
C78   C     C_3   0.275754 0.918307 0.894035 -0.205409
C79   C     C_R   0.720860 0.265435 0.953267 -0.308823
C80   C     C_3   0.802704 0.069037 0.940155 -0.174996
C81   C     C_3   0.722732 0.924606 0.085384 -0.202011
C82   C     C_3   0.195817 0.066102 0.057378 -0.137558
C83   C     C_R   0.279057 0.732270 0.045763 -0.307899
C84   C     C_R   0.280433 0.261220 0.046351 -0.296496
C85   C     C_R   0.297940 0.730932 0.324275 0.911871
C86   C     C_R   0.722447 0.730517 0.952767 -0.294040
C87   C     C_R   0.220860 0.765435 0.953267 -0.308824
C88   C     C_R   0.779057 0.232270 0.045763 -0.307899
C89   C     C_R   0.780433 0.761221 0.046351 -0.296499
C90   C     C_R   0.222447 0.230516 0.952767 -0.294041
C91   C     C_R   0.731550 0.192883 0.964732 0.470773
C92   C     C_R   0.267842 0.804745 0.034926 0.487271
C93   C     C_R   0.268661 0.189067 0.034077 0.476932
C94   C     C_R   0.734784 0.802575 0.964145 0.466812
C95   C     C_R   0.231549 0.692883 0.964732 0.470773
C96   C     C_R   0.299028 0.266742 0.323703 0.876942
C97   C     C_R   0.767842 0.304745 0.034926 0.487272
C98   C     C_R   0.768660 0.689067 0.034078 0.476932
C99   C     C_R   0.234784 0.302575 0.964145 0.466814
C100  C     C_R   0.761832 0.175981 0.008354 0.348119
C101  C     C_R   0.240497 0.821565 0.986930 0.342813
C102  C     C_R   0.238260 0.173391 0.990159 0.343772
C103  C     C_R   0.761695 0.818384 0.013610 0.349348
C104  C     C_R   0.261831 0.675980 0.008355 0.348118
C105  C     C_R   0.740497 0.321566 0.986930 0.342813
C106  C     C_R   0.738260 0.673391 0.990160 0.343771
C107  C     C_R   0.702029 0.730984 0.675856 0.895396
C108  C     C_R   0.261695 0.318383 0.013610 0.349350
C109  C     C_R   0.643908 0.327389 0.945886 -0.138932
C110  C     C_R   0.356570 0.672786 0.053653 -0.149840
C111  C     C_R   0.357639 0.323489 0.053275 -0.132213
C112  C     C_R   0.643547 0.673509 0.946353 -0.152041
C113  C     C_R   0.143908 0.827388 0.945886 -0.138932
C114  C     C_R   0.856570 0.172787 0.053653 -0.149839
C115  C     C_R   0.857639 0.823489 0.053275 -0.132211
C116  C     C_R   0.143547 0.173509 0.946352 -0.152040
C117  C     C_R   0.616774 0.347544 0.898169 -0.107432
C118  C     C_R   0.201774 0.768471 0.675836 0.890647
C119  C     C_R   0.383427 0.652565 0.101685 -0.101832
C120  C     C_R   0.384374 0.345255 0.101102 -0.106271
C121  C     C_R   0.616191 0.653607 0.898908 -0.096350
C122  C     C_R   0.116774 0.847544 0.898169 -0.107432
C123  C     C_R   0.883427 0.152565 0.101685 -0.101832
C124  C     C_R   0.884374 0.845255 0.101102 -0.106271
C125  C     C_R   0.116191 0.153607 0.898908 -0.096350
C126  C     C_R   0.633217 0.321892 0.813155 -0.268139
C127  C     C_R   0.366477 0.677588 0.187058 -0.246066
C128  C     C_R   0.368175 0.319710 0.186077 -0.278918
C129  C     C_R   0.797940 0.230932 0.324275 0.911871
C130  C     C_R   0.633007 0.678659 0.813675 -0.264084
C131  C     C_R   0.133217 0.821892 0.813155 -0.268139
C132  C     C_R   0.866477 0.177587 0.187058 -0.246065
C133  C     C_R   0.868175 0.819711 0.186077 -0.278917
C134  C     C_R   0.133007 0.178659 0.813675 -0.264084
C135  C     C_R   0.679214 0.280802 0.771191 -0.086232
C136  C     C_R   0.320086 0.717878 0.229146 -0.084733
C137  C     C_R   0.322757 0.276636 0.227652 -0.100391
C138  C     C_R   0.680157 0.718096 0.770806 -0.091090
C139  C     C_R   0.179214 0.780802 0.771191 -0.086232
C140  C     C_R   0.799027 0.766742 0.323703 0.876937
C141  C     C_R   0.820086 0.217878 0.229146 -0.084733
C142  C     C_R   0.822757 0.776636 0.227652 -0.100388
C143  C     C_R   0.180157 0.218096 0.770805 -0.091090
C144  C     C_R   0.706920 0.259057 0.817760 -0.143503
C145  C     C_R   0.291902 0.738449 0.182822 -0.126690
C146  C     C_R   0.296074 0.251866 0.180145 -0.140569
C147  C     C_R   0.709296 0.737888 0.816204 -0.119409
C148  C     C_R   0.206920 0.759057 0.817760 -0.143504
C149  C     C_R   0.791902 0.238449 0.182822 -0.126689
C150  C     C_R   0.796074 0.751867 0.180146 -0.140573
C151  C     C_R   0.202029 0.230984 0.675856 0.895396
C152  C     C_R   0.209296 0.237888 0.816204 -0.119408
C153  C     C_R   0.689424 0.282612 0.905934 0.235839
C154  C     C_R   0.309993 0.715522 0.094168 0.248910
C155  C     C_R   0.312602 0.277123 0.092889 0.229111
C156  C     C_R   0.691031 0.715091 0.904884 0.246723
C157  C     C_R   0.189424 0.782612 0.905935 0.235840
C158  C     C_R   0.809993 0.215522 0.094168 0.248909
C159  C     C_R   0.812602 0.777123 0.092889 0.229114
C160  C     C_R   0.191032 0.215090 0.904884 0.246722
C161  C     C_R   0.690998 0.129402 0.535301 0.906717
C162  C     C_R   0.069188 0.375632 0.446550 0.463522
C163  C     C_R   0.309365 0.870327 0.462582 0.929563
C164  C     C_R   0.308563 0.129503 0.464483 0.887342
C165  C     C_R   0.696190 0.872383 0.518722 0.918717
C166  C     C_R   0.190998 0.629402 0.535301 0.906717
C167  C     C_R   0.809365 0.370327 0.462582 0.929563
C168  C     C_R   0.808563 0.629503 0.464483 0.887342
C169  C     C_R   0.196189 0.372383 0.518722 0.918720
C170  C     C_R   0.073611 0.100296 0.934461 0.923210
C171  C     C_R   0.925992 0.900118 0.066013 0.921361
C172  C     C_R   0.926020 0.099709 0.066065 0.919659
F1    F     F_    0.710530 0.138409 0.936807 -0.652419
F2    F     F_    0.285085 0.859786 0.068386 -0.629083
F3    F     F_    0.288794 0.133835 0.061374 -0.644379
F4    F     F_    0.719888 0.857783 0.928299 -0.654317
F5    F     F_    0.210530 0.638408 0.936808 -0.652419
F6    F     F_    0.785084 0.359786 0.068387 -0.629083
F7    F     F_    0.788793 0.633835 0.061375 -0.644379
F8    F     F_    0.219888 0.357782 0.928299 -0.654317
H1    H     H_    0.715478 0.999480 0.562492 0.191994
H2    H     H_    0.871100 0.153887 0.985594 0.153176
H3    H     H_    0.172349 0.022689 0.045909 0.193809
H4    H     H_    0.870676 0.844380 0.986402 0.174313
H5    H     H_    0.128922 0.154752 0.014493 0.154642
H6    H     H_    0.612264 0.338335 0.777137 0.186572
H7    H     H_    0.387521 0.661475 0.223054 0.180129
H8    H     H_    0.388500 0.338175 0.222653 0.184430
H9    H     H_    0.611374 0.662918 0.778221 0.181604
H10   H     H_    0.112264 0.838335 0.777137 0.186572
H11   H     H_    0.887521 0.161475 0.223054 0.180129
H12   H     H_    0.888499 0.838175 0.222653 0.184429
H13   H     H_    0.278544 0.999414 0.449938 0.195315
H14   H     H_    0.111374 0.162919 0.778221 0.181603
H15   H     H_    0.743544 0.227184 0.784305 0.167923
H16   H     H_    0.254787 0.769301 0.216559 0.171568
H17   H     H_    0.259954 0.218181 0.213240 0.185591
H18   H     H_    0.747147 0.767933 0.781800 0.174388
H19   H     H_    0.243544 0.727184 0.784305 0.167922
H20   H     H_    0.754787 0.269301 0.216559 0.171569
H21   H     H_    0.759953 0.718181 0.213240 0.185589
H22   H     H_    0.247148 0.267932 0.781800 0.174387
H23   H     H_    0.229722 0.398824 0.322620 0.158695
H24   H     H_    0.215477 0.499480 0.562495 0.191994
H25   H     H_    0.177675 0.422835 0.293741 0.116861
H26   H     H_    0.214323 0.341070 0.252549 0.191051
H27   H     H_    0.905755 0.651834 0.289115 0.154925
H28   H     H_    0.977120 0.653301 0.260332 0.143922
H29   H     H_    0.943374 0.735292 0.260193 0.187197
H30   H     H_    0.929044 0.250982 0.446112 0.109524
H31   H     H_    0.977194 0.234089 0.327799 0.194970
H32   H     H_    0.908095 0.208719 0.373444 0.168849
H33   H     H_    0.078387 0.619564 0.713176 0.154650
H34   H     H_    0.010815 0.636789 0.728333 0.151890
H35   H     H_    0.778544 0.499414 0.449939 0.195315
H36   H     H_    0.048503 0.707412 0.746793 0.193366
H37   H     H_    0.729719 0.898814 0.322611 0.158695
H38   H     H_    0.677669 0.922828 0.293743 0.116855
H39   H     H_    0.714313 0.841059 0.252550 0.191044
H40   H     H_    0.405755 0.151834 0.289114 0.154924
H41   H     H_    0.477120 0.153301 0.260331 0.143922
H42   H     H_    0.443374 0.235292 0.260192 0.187197
H43   H     H_    0.429045 0.750982 0.446111 0.109526
H44   H     H_    0.477193 0.734088 0.327798 0.194969
H45   H     H_    0.408093 0.708719 0.373446 0.168849
H46   H     H_    0.630570 0.347853 0.013062 0.171385
H47   H     H_    0.578388 0.119564 0.713175 0.154650
H48   H     H_    0.510816 0.136789 0.728332 0.151889
H49   H     H_    0.548504 0.207411 0.746792 0.193367
H50   H     H_    0.977800 0.314073 0.551008 0.136291
H51   H     H_    0.032539 0.275482 0.565302 0.157985
H52   H     H_    0.002353 0.224607 0.510722 0.185360
H53   H     H_    0.907265 0.731746 0.652328 0.194636
H54   H     H_    0.924536 0.637395 0.641596 0.136632
H55   H     H_    0.870676 0.669110 0.620302 0.141329
H56   H     H_    0.085385 0.426674 0.261283 0.142510
H57   H     H_    0.371100 0.653886 0.985594 0.153175
H58   H     H_    0.038136 0.413876 0.217800 0.159415
H59   H     H_    0.091811 0.350653 0.190925 0.185553
H60   H     H_    0.072778 0.674397 0.355197 0.137874
H61   H     H_    0.122833 0.702798 0.388064 0.141631
H62   H     H_    0.079011 0.767935 0.378638 0.191028
H63   H     H_    0.477788 0.814081 0.551005 0.136293
H64   H     H_    0.532519 0.775498 0.565327 0.157976
H65   H     H_    0.502343 0.724611 0.510739 0.185363
H66   H     H_    0.407265 0.231748 0.652326 0.194635
H67   H     H_    0.424536 0.137397 0.641595 0.136633
H68   H     H_    0.370676 0.344380 0.986402 0.174313
H69   H     H_    0.370677 0.169111 0.620300 0.141329
H70   H     H_    0.585385 0.926671 0.261288 0.142507
H71   H     H_    0.538139 0.913868 0.217799 0.159418
H72   H     H_    0.591814 0.850647 0.190933 0.185550
H73   H     H_    0.572779 0.174397 0.355197 0.137873
H74   H     H_    0.622834 0.202798 0.388064 0.141632
H75   H     H_    0.579011 0.267935 0.378637 0.191028
H76   H     H_    0.780203 0.385758 0.835650 0.122389
H77   H     H_    0.814164 0.417908 0.897273 0.189551
H78   H     H_    0.768042 0.475216 0.882605 0.222967
H79   H     H_    0.628922 0.654753 0.014493 0.154642
H80   H     H_    0.333909 0.605438 0.888140 0.099186
H81   H     H_    0.276921 0.544086 0.914627 0.242824
H82   H     H_    0.324721 0.524360 0.951681 0.203296
H83   H     H_    0.192598 0.387994 0.138534 0.102456
H84   H     H_    0.204772 0.448717 0.046356 0.240535
H85   H     H_    0.231503 0.469738 0.119852 0.197398
H86   H     H_    0.665835 0.602403 0.110617 0.100149
H87   H     H_    0.721560 0.539419 0.081249 0.253936
H88   H     H_    0.672348 0.522690 0.045910 0.193809
H89   H     H_    0.280203 0.885758 0.835649 0.122388
H90   H     H_    0.130570 0.847853 0.013062 0.171384
H91   H     H_    0.314165 0.917907 0.897272 0.189550
H92   H     H_    0.268043 0.975215 0.882604 0.222967
H93   H     H_    0.833911 0.105439 0.888139 0.099187
H94   H     H_    0.776922 0.044087 0.914624 0.242823
H95   H     H_    0.824722 0.024361 0.951679 0.203296
H96   H     H_    0.692597 0.887998 0.138528 0.102444
H97   H     H_    0.704776 0.948723 0.046349 0.240538
H98   H     H_    0.731503 0.969738 0.119852 0.197394
H99   H     H_    0.165835 0.102402 0.110616 0.100149
H100  H     H_    0.221560 0.039418 0.081248 0.253936
O1    O     O_R   0.746490 0.236330 0.638080 -0.644571
O2    O     O_R   0.325830 0.813840 0.483730 -0.609012
O3    O     O_R   0.325830 0.186160 0.483730 -0.571147
O4    O     O_R   0.674170 0.813840 0.516270 -0.582854
O5    O     O_R   0.174170 0.686160 0.516270 -0.572294
O6    O     O_R   0.825830 0.313840 0.483730 -0.609012
O7    O     O_R   0.825830 0.686160 0.483730 -0.571147
O8    O     O_R   0.174170 0.313840 0.516270 -0.582860
O9    O     O_R   0.739960 0.127620 0.525000 -0.637389
O10   O     O_R   0.260040 0.872380 0.475000 -0.636111
O11   O     O_R   0.260040 0.127620 0.475000 -0.639895
O12   O     O_R   0.253510 0.763670 0.361920 -0.642473
O13   O     O_R   0.739960 0.872380 0.525000 -0.639921
O14   O     O_R   0.239960 0.627620 0.525000 -0.637389
O15   O     O_R   0.760040 0.372380 0.475000 -0.636111
O16   O     O_R   0.760040 0.627620 0.475000 -0.639894
O17   O     O_R   0.239960 0.372380 0.525000 -0.639919
O18   O     O_R   0.680700 0.294870 0.629350 -0.607560
O19   O     O_R   0.319300 0.705130 0.370650 -0.634532
O20   O     O_R   0.319300 0.294870 0.370650 -0.619995
O21   O     O_R   0.680700 0.705130 0.629350 -0.632228
O22   O     O_R   0.180700 0.794870 0.629350 -0.607561
O23   O     O_R   0.253510 0.236330 0.361920 -0.601296
O24   O     O_R   0.819300 0.205130 0.370650 -0.634531
O25   O     O_R   0.819300 0.794870 0.370650 -0.619996
O26   O     O_R   0.180700 0.205130 0.629350 -0.632229
O27   O     O_R   0.062020 0.072840 0.007170 -0.629188
O28   O     O_R   0.937980 0.927160 0.992830 -0.624054
O29   O     O_R   0.937980 0.072840 0.992830 -0.629662
O30   O     O_R   0.062020 0.927160 0.007170 -0.627112
O31   O     O_R   0.562020 0.572840 0.007170 -0.629188
O32   O     O_R   0.437980 0.427160 0.992830 -0.624055
O33   O     O_R   0.437980 0.572840 0.992830 -0.629662
O34   O     O_R   0.746490 0.763670 0.638080 -0.635253
O35   O     O_R   0.562020 0.427160 0.007170 -0.627112
O36   O     O_R   0.947860 0.073950 0.109290 -0.624616
O37   O     O_R   0.052140 0.926050 0.890710 -0.620369
O38   O     O_R   0.052140 0.073950 0.890710 -0.623676
O39   O     O_R   0.947860 0.926050 0.109290 -0.623691
O40   O     O_R   0.447860 0.573950 0.109290 -0.624617
O41   O     O_R   0.552140 0.426050 0.890710 -0.620369
O42   O     O_R   0.552140 0.573950 0.890710 -0.623676
O43   O     O_R   0.447860 0.426050 0.109290 -0.623692
O44   O     O_3   0.159482 0.336332 0.386924 -0.549558
O45   O     O_R   0.246490 0.736330 0.638080 -0.644571
O46   O     O_3   0.922476 0.696717 0.385873 -0.552794
O47   O     O_3   0.923262 0.318487 0.350550 -0.594710
O48   O     O_3   0.075496 0.683159 0.614197 -0.550576
O49   O     O_3   0.659478 0.836328 0.386930 -0.549556
O50   O     O_3   0.422476 0.196717 0.385872 -0.552794
O51   O     O_3   0.423262 0.818486 0.350550 -0.594713
O52   O     O_3   0.575496 0.183159 0.614196 -0.550576
O53   O     O_3   0.053256 0.307140 0.434838 -0.524944
O54   O     O_3   0.949778 0.695466 0.522248 -0.523431
O55   O     O_3   0.028809 0.342482 0.319929 -0.557325
O56   O     O_R   0.753510 0.263670 0.361920 -0.642473
O57   O     O_3   0.042007 0.702604 0.490286 -0.519235
O58   O     O_3   0.553251 0.807139 0.434850 -0.524944
O59   O     O_3   0.449778 0.195466 0.522246 -0.523431
O60   O     O_3   0.528809 0.842479 0.319934 -0.557326
O61   O     O_3   0.542007 0.202604 0.490285 -0.519235
O62   O     O_3   0.731759 0.393527 0.975271 -0.582489
O63   O     O_3   0.270300 0.604336 0.022945 -0.597352
O64   O     O_3   0.271952 0.389733 0.027387 -0.598808
O65   O     O_3   0.728421 0.602156 0.974959 -0.599532
O66   O     O_3   0.231760 0.893526 0.975270 -0.582489
O67   O     O_R   0.753510 0.736330 0.361920 -0.601297
O68   O     O_3   0.770301 0.104336 0.022944 -0.597351
O69   O     O_3   0.771953 0.889734 0.027386 -0.598811
O70   O     O_3   0.228421 0.102155 0.974958 -0.599531
O71   O     O_R   0.246490 0.263670 0.638080 -0.635252
O72   O     O_R   0.674170 0.186160 0.516270 -0.572293
Zn1   Zn    Zn3+2 0.792340 0.208750 0.507670 0.937122
Zn2   Zn    Zn3+2 0.494040 0.500000 0.919480 0.947527
Zn3   Zn    Zn3+2 0.005960 1.000000 0.080520 0.941579
Zn4   Zn    Zn3+2 0.994040 0.000000 0.919480 0.947526
Zn5   Zn    Zn3+2 0.207660 0.791250 0.492330 1.017158
Zn6   Zn    Zn3+2 0.207660 0.208750 0.492330 1.015191
Zn7   Zn    Zn3+2 0.792340 0.791250 0.507670 1.024324
Zn8   Zn    Zn3+2 0.292340 0.708750 0.507670 0.937121
Zn9   Zn    Zn3+2 0.707660 0.291250 0.492330 1.017159
Zn10  Zn    Zn3+2 0.707660 0.708750 0.492330 1.015200
Zn11  Zn    Zn3+2 0.292340 0.291250 0.507670 1.024324
Zn12  Zn    Zn3+2 0.505960 0.500000 0.080520 0.941580

loop_
_geom_bond_atom_site_label_1
_geom_bond_atom_site_label_2
_ccdc_geom_bond_type
C50   O47   S    
C28   C47   A    
C36   C42   A    
O32   Zn2   S    
C110  H57   S    
C144  H15   S    
C91   F1    S    
C73   O61   S    
C65   H50   S    
C66   H54   S    
C81   H97   S    
C61   H37   S    
C112  H79   S    
C64   H49   S    
C69   H62   S    
C48   C162  A    
C51   O48   S    
C32   C163  S    
C36   C168  S    
C106  O65   S    
C118  O22   A    
C166  O14   A    
C62   H41   S    
C37   C42   A    
C86   C156  S    
O14   Zn8   S    
C134  C143  A    
C95   F5    S    
C113  C122  A    
C10   C20   A    
C111  H68   S    
C127  H7    S    
C96   O23   A    
C88   C158  S    
C91   C100  A    
C117  C126  A    
C88   C97   A    
C59   H30   S    
C97   C105  A    
C24   C51   A    
C143  C151  S    
C171  O39   A    
C8    C16   A    
O67   Zn10  S    
C108  O64   S    
C63   O51   S    
O29   Zn4   S    
C171  O28   A    
O10   Zn5   S    
C69   O57   S    
C150  C159  A    
C54   O51   S    
C61   H39   S    
C1    O18   A    
C127  C136  A    
C22   C31   A    
C83   C154  S    
C101  O66   S    
C29   C45   A    
O7    Zn7   S    
C33   C161  S    
C5    O32   A    
O3    Zn11  S    
C78   H91   S    
O71   Zn11  S    
C13   C18   A    
O26   Zn6   S    
O8    Zn6   S    
C130  C138  A    
C6    O40   A    
O15   Zn9   S    
C14   C57   A    
C65   H52   S    
C2    C19   A    
C82   H100  S    
C25   C55   A    
C166  O5    A    
C116  H5    S    
C76   O64   S    
C67   H58   S    
C98   C106  A    
C107  C138  S    
C9    C15   A    
C99   F8    S    
C16   C35   A    
C1    O1    A    
C6    O33   A    
O42   Zn2   S    
C97   F6    S    
C82   H3    S    
C46   C53   A    
C84   C93   A    
C3    O37   A    
C66   O54   S    
O18   Zn9   S    
C70   H65   S    
C73   H74   S    
C134  H14   S    
C52   O49   S    
O12   Zn5   S    
C147  H18   S    
C105  O62   S    
C150  H21   S    
C113  C157  A    
C111  C155  A    
C71   H69   S    
C75   H81   S    
C11   C18   A    
C123  C132  A    
C7    O41   A    
C169  O8    A    
C7    C117  S    
C121  C130  A    
C60   H33   S    
O36   Zn3   S    
C25   C43   A    
C115  H4    S    
C57   O60   S    
C63   H45   S    
C48   O44   S    
C99   C108  A    
C12   C68   A    
O6    Zn1   S    
C100  O68   S    
C133  C142  A    
C110  C154  A    
C151  O71   A    
C49   O46   S    
C167  O6    A    
C77   H86   S    
C124  C133  A    
C78   H89   S    
C60   H34   S    
C90   C102  A    
C145  H16   S    
C42   H35   S    
C107  O21   A    
C26   C45   A    
C87   C101  A    
C87   C95   A    
C29   C38   A    
C56   H26   S    
C149  C158  A    
C170  O27   A    
C79   C91   A    
C123  C172  S    
C76   H84   S    
C89   C103  A    
C165  O4    A    
C86   C106  A    
C59   H31   S    
C89   C159  S    
C40   H13   S    
C74   H78   S    
O27   Zn3   S    
C67   H56   S    
C56   H25   S    
C46   O59   S    
C63   H43   S    
C102  O70   S    
C38   C41   A    
C62   O50   S    
C165  O13   A    
C92   F2    S    
C93   F3    S    
C72   H72   S    
C87   C157  S    
C59   O47   S    
C161  O9    A    
C70   H63   S    
C79   C153  S    
C170  O38   A    
C58   H28   S    
C8    C12   A    
C20   C162  A    
C10   C45   A    
C103  O69   S    
C41   H24   S    
C77   O65   S    
C34   C169  S    
C145  C154  A    
C116  C125  A    
C3    O30   A    
C114  C123  A    
C122  C131  A    
O21   Zn10  S    
C29   C51   A    
C58   H29   S    
C27   C47   A    
C132  C141  A    
C85   O12   A    
C31   C164  S    
O17   Zn11  S    
C30   C165  S    
C110  C119  A    
C109  H46   S    
O35   Zn12  S    
C77   H88   S    
C89   C98   A    
C81   H96   S    
C60   H36   S    
C112  C121  A    
C69   H61   S    
C85   O19   A    
C28   C37   A    
C67   H59   S    
C80   H93   S    
C30   C39   A    
C148  C157  A    
C62   H42   S    
C72   H71   S    
C163  O10   A    
C131  C139  A    
C85   C136  S    
C13   C50   A    
C161  O72   A    
C67   O55   S    
C112  C156  A    
C60   O48   S    
C58   O46   S    
O34   Zn7   S    
C15   C46   A    
C1    C135  S    
C64   H47   S    
C27   C49   A    
C104  O63   S    
C25   C33   A    
C54   C57   A    
C119  C127  A    
C125  C134  A    
C2    O54   S    
C81   O69   S    
C90   C99   A    
C11   C47   A    
C8    C43   A    
O72   Zn9   S    
C55   C68   A    
C64   O52   S    
C109  C117  A    
C37   C167  S    
C56   H23   S    
C74   O62   S    
C11   C19   A    
C172  O36   A    
C55   O52   S    
C74   H77   S    
C140  C142  S    
C116  C160  A    
O45   Zn8   S    
C129  C141  S    
C31   C40   A    
C114  C158  A    
O39   Zn3   S    
O2    Zn8   S    
C118  O45   A    
C146  C155  A    
O4    Zn10  S    
C78   H92   S    
C109  C153  A    
C26   C48   A    
O23   Zn6   S    
C152  H22   S    
C34   C41   A    
C71   H67   S    
O40   Zn12  S    
C162  O53   S    
C70   O58   S    
O22   Zn5   S    
C65   H51   S    
C66   H53   S    
C81   H98   S    
C126  H6    S    
C61   H38   S    
C5    C120  S    
O43   Zn12  S    
C114  H2    S    
C80   H95   S    
C23   C44   A    
C115  C159  A    
C62   H40   S    
C9    C14   A    
C13   O55   S    
C95   C104  A    
C82   O70   S    
C137  C146  A    
C163  O2    A    
C5    O43   A    
C72   O60   S    
C125  C170  S    
C88   C100  A    
C92   C101  A    
C73   H73   S    
C143  C152  A    
C126  C135  A    
O30   Zn3   S    
C118  C139  S    
O16   Zn10  S    
C131  H10   S    
C38   C166  S    
C151  O26   A    
C115  C124  A    
C128  H8    S    
C93   C102  A    
C120  C128  A    
C148  H19   S    
C27   C36   A    
C21   C30   A    
C66   H55   S    
O31   Zn12  S    
C23   C32   A    
C142  C150  A    
C4    O31   A    
C68   O61   S    
C124  C171  S    
O56   Zn9   S    
C7    O35   A    
C84   C108  A    
C35   O58   S    
C4    C121  S    
O9    Zn1   S    
C139  C148  A    
C90   C160  S    
C69   H60   S    
C65   O53   S    
C149  H20   S    
C35   C52   A    
C71   H66   S    
C72   H70   S    
C98   F7    S    
C133  H12   S    
C94   F4    S    
C80   O68   S    
C24   O57   S    
C152  C160  A    
C82   H99   S    
O11   Zn6   S    
C141  C149  A    
O24   Zn1   S    
C33   C39   A    
C75   O63   S    
O41   Zn2   S    
C84   C155  S    
C10   C17   A    
C79   C105  A    
C96   O20   A    
C144  C153  A    
C129  O56   A    
O19   Zn8   S    
C168  O7    A    
C70   H64   S    
C21   C43   A    
C28   C50   A    
C26   C34   A    
C22   C44   A    
C12   C15   A    
C86   C94   A    
C140  O67   A    
C71   O59   S    
C136  C145  A    
C130  H9    S    
C140  O25   A    
C75   H82   S    
C73   H75   S    
C76   H85   S    
C4    O42   A    
C22   C53   A    
C167  O15   A    
C168  O16   A    
C17   C24   A    
C83   C104  A    
C113  H90   S    
C96   C137  S    
O13   Zn7   S    
C172  O29   A    
O28   Zn4   S    
C77   H87   S    
C164  O3    A    
C111  C120  A    
C128  C137  A    
C147  C156  A    
C2    C49   A    
C53   O50   S    
C138  C147  A    
C80   H94   S    
O5    Zn5   S    
C78   O66   S    
C132  H11   S    
C39   H1    S    
O38   Zn4   S    
O1    Zn1   S    
C135  C144  A    
C76   H83   S    
C14   C16   A    
O37   Zn4   S    
C64   H48   S    
C59   H32   S    
C23   C54   A    
O20   Zn11  S    
C9    C44   A    
C6    C119  S    
C63   H44   S    
O25   Zn7   S    
C164  O11   A    
C3    C122  S    
C129  O24   A    
C94   C103  A    
C146  H17   S    
C107  O34   A    
C58   H27   S    
O33   Zn2   S    
C17   C19   A    
C18   C20   A    
C32   C40   A    
C75   H80   S    
C83   C92   A    
C61   O49   S    
C56   O44   S    
C169  O17   A    
C21   C52   A    
C74   H76   S    
