data_mof_unit_34553.cif
_audit_creation_date              2013-03-05T16:14:04-0500
_audit_creation_method            fapswitch 2.2
_symmetry_space_group_name_H-M    P1
_symmetry_Int_Tables_number       1
_space_group_crystal_system       triclinic
_cell_length_a                    8.213334
_cell_length_b                    17.413638
_cell_length_c                    22.796235
_cell_angle_alpha                 99.74778
_cell_angle_beta                  89.702835
_cell_angle_gamma                 98.733156
_cell_volume                      3175.37792091

loop_
_atom_site_label
_atom_site_type_symbol
_atom_site_description
_atom_site_fract_x
_atom_site_fract_y
_atom_site_fract_z
_atom_type_partial_charge
P1    P     P_3+3 0.055640 0.433080 0.366120 0.478449
O1    O     O_2   0.889310 0.456460 0.358460 -0.359820
O2    O     O_3   0.129890 0.457280 0.429550 -0.410671
O3    O     O_3   0.674650 0.600620 0.400940 -0.338471
O4    O     O_2   0.805143 0.553704 0.297541 -0.380921
O5    O     O_3   0.020684 0.330273 0.346181 -0.559476
O6    O     O_3   0.732729 0.696682 0.314119 -0.535679
C1    C     C_3   0.628467 0.746605 0.231144 -1.019809
H1    H     H_    0.751335 0.780895 0.225892 0.238099
H2    H     H_    0.621366 0.689524 0.200523 0.244988
P2    P     P_3+3 0.671420 0.681950 0.554390 0.472087
P3    P     P_3+3 0.148863 0.742053 0.434418 0.464060
O7    O     O_2   0.849130 0.693580 0.537840 -0.364036
O8    O     O_3   0.093680 0.641380 0.431770 -0.353853
O9    O     O_2   0.062540 0.784231 0.488344 -0.388925
O10   O     O_3   0.672687 0.708658 0.631866 -0.562102
O11   O     O_3   0.059364 0.763495 0.370813 -0.478999
C2    C     C_3   0.167263 0.748494 0.323526 0.387834
H3    H     H_    0.197778 0.687567 0.318840 0.084466
H4    H     H_    0.280772 0.792626 0.331012 0.086951
C3    C     C_3   0.089704 0.756879 0.264987 -0.901278
H5    H     H_    0.986711 0.708079 0.251439 0.289063
H6    H     H_    0.045069 0.814543 0.269059 0.231158
C4    C     C_3   0.231870 0.701565 0.602223 0.446223
H7    H     H_    0.345454 0.678472 0.587102 0.082636
H8    H     H_    0.138943 0.686663 0.565423 0.142340
C5    C     C_3   0.269339 0.790853 0.619076 -0.962590
H9    H     H_    0.369195 0.807599 0.653600 0.272329
H10   H     H_    0.309140 0.817373 0.579450 0.222526
H11   H     H_    0.157197 0.814528 0.636617 0.268049
Ba1   Ba    Ba6+2 0.857050 0.537370 0.474190 1.572099
C6    C     C_3   0.962254 0.296056 0.394840 0.439304
H12   H     H_    0.844920 0.316011 0.408763 0.090013
H13   H     H_    0.052129 0.311770 0.432647 0.132810
C7    C     C_3   0.934225 0.206879 0.375951 -0.973691
H14   H     H_    0.838343 0.189361 0.340012 0.272627
H15   H     H_    0.893312 0.177503 0.414085 0.222754
H16   H     H_    0.050710 0.186707 0.359437 0.265605
C8    C     C_3   0.727724 0.650395 0.658288 0.413431
H17   H     H_    0.843702 0.634728 0.638259 0.104564
H18   H     H_    0.631437 0.597481 0.653130 0.101050
C9    C     C_3   0.760650 0.682801 0.724171 -0.924027
H19   H     H_    0.849294 0.738565 0.729574 0.279915
H20   H     H_    0.814429 0.640321 0.746307 0.223660
H21   H     H_    0.643855 0.694529 0.746184 0.262566
P4    P     P_3+3 0.134070 0.566990 0.633890 0.479388
O12   O     O_2   0.300380 0.543560 0.641570 -0.361831
O13   O     O_3   0.059830 0.542790 0.570460 -0.408388
O14   O     O_3   0.515070 0.399440 0.599070 -0.371747
O15   O     O_3   0.173098 0.670004 0.652174 -0.553171
P5    P     P_3+3 0.061433 0.257929 0.570311 0.462355
O16   O     O_3   0.612780 0.404640 0.465950 -0.395906
O17   O     O_3   0.096040 0.358680 0.568240 -0.387864
O18   O     O_2   0.193403 0.220769 0.531297 -0.390469
O19   O     O_3   0.102009 0.241845 0.642381 -0.479602
Ba2   Ba    Ba6+2 0.332790 0.462700 0.525820 1.557996
P6    P     P_3+3 0.666035 0.598810 0.324060 0.478281
C10   C     C_3   0.602971 0.732623 0.295511 1.110570
H22   H     H_    0.481419 0.695319 0.295345 -0.085035
H23   H     H_    0.531442 0.778679 0.217860 0.254663
O20   O     O_3   0.576930 0.595420 0.534060 -0.406103
C11   C     C_3   0.477652 0.343558 0.342208 0.413226
H24   H     H_    0.355680 0.356766 0.358437 0.099504
H25   H     H_    0.571676 0.397081 0.353701 0.118049
C12   C     C_3   0.466326 0.321061 0.274781 -0.931419
H26   H     H_    0.371582 0.268191 0.261774 0.272443
H27   H     H_    0.431435 0.370378 0.254964 0.224626
H28   H     H_    0.587336 0.308063 0.257163 0.266849
P7    P     P_3+3 0.524995 0.305468 0.444159 0.437379
O21   O     O_2   0.340570 0.306450 0.462190 -0.364994
O22   O     O_3   0.522186 0.280559 0.366449 -0.564362
H29   H     H_    0.183272 0.754021 0.229701 0.249040
C13   C     C_3   0.030488 0.294816 0.684597 0.238864
H30   H     H_    0.049955 0.355248 0.673806 0.076592
H31   H     H_    0.896482 0.274439 0.686960 0.088079
C14   C     C_3   0.112063 0.300649 0.745748 0.007506
H32   H     H_    0.079610 0.352490 0.776150 0.073604
H33   H     H_    0.247423 0.310594 0.741735 0.197645
P8    P     P_3+3 0.530539 0.410727 0.676500 0.475944
C15   C     C_3   0.538532 0.261423 0.645733 0.309178
H34   H     H_    0.665753 0.273479 0.629727 -0.084629
O23   O     O_2   0.369257 0.438935 0.700409 -0.416053
O24   O     O_3   0.518988 0.317044 0.696718 -0.512098
H35   H     H_    0.449752 0.263730 0.609701 0.130092
H36   H     H_    0.539968 0.138575 0.618065 -0.088188
C16   C     C_3   0.505636 0.177037 0.658941 0.611635
H37   H     H_    0.963318 0.311597 0.040195 0.178952
H38   H     H_    0.877111 0.310515 0.938318 0.198021
C17   C     C_R   0.347121 0.519908 0.333211 -0.481527
C18   C     C_R   0.102847 0.570321 0.944627 -0.057472
C19   C     C_R   0.056684 0.567958 0.884419 0.530573
O25   O     O_2   0.090168 0.627206 0.861964 -0.578267
N1    N     N_R   0.971313 0.499693 0.851165 -0.169893
C20   C     C_R   0.928929 0.433140 0.877421 0.510986
O26   O     O_2   0.848648 0.373829 0.849020 -0.533582
C21   C     C_R   0.978121 0.432870 0.936824 -0.066196
C22   C     C_R   0.064502 0.502082 0.970700 -0.014129
C23   C     C_R   0.185711 0.639567 0.979566 -0.112398
C24   C     C_R   0.228953 0.641113 0.039100 -0.121936
C25   C     C_R   0.193068 0.573143 0.065536 -0.044209
C26   C     C_R   0.111680 0.503213 0.031037 -0.016820
C27   C     C_R   0.942692 0.364841 0.963199 -0.074753
C28   C     C_R   0.992417 0.365453 0.021925 -0.111740
C29   C     C_R   0.076845 0.434481 0.056674 -0.059367
C30   C     C_R   0.127747 0.436140 0.116284 0.525120
N2    N     N_R   0.205500 0.505549 0.150613 -0.164541
C31   C     C_R   0.235962 0.573830 0.125736 0.520095
C32   C     C_2   0.763269 0.477587 0.770651 -0.155088
C33   C     C_3   0.714157 0.482814 0.707574 0.158459
C34   C     C_1   0.004523 0.517826 0.687277 0.292813
C35   C     C_2   0.049270 0.521541 0.744055 -0.224118
C36   C     C_2   0.923332 0.498589 0.789164 0.096880
C37   C     C_R   0.417274 0.540316 0.233100 -0.247400
C38   C     C_R   0.461524 0.548383 0.293552 0.146403
C39   C     C_R   0.190113 0.482285 0.313567 0.299932
C40   C     C_R   0.143073 0.477095 0.253464 -0.190618
C41   C     C_R   0.255405 0.507243 0.212482 0.159501
O27   O     O_2   0.104507 0.375418 0.137288 -0.583408
O28   O     O_2   0.298913 0.635703 0.156205 -0.625149
C42   C     C_2   0.859598 0.479349 0.666869 -0.482061
H39   H     H_    0.291693 0.695859 0.064336 0.169440
H40   H     H_    0.507619 0.560611 0.202308 0.149044
H41   H     H_    0.216675 0.693149 0.961064 0.174900
H42   H     H_    0.177616 0.539226 0.757838 0.180813
H43   H     H_    0.668031 0.463643 0.802054 0.166083
H44   H     H_    0.019542 0.449769 0.238764 0.174557
H45   H     H_    0.382447 0.524696 0.379486 0.170832
H46   H     H_    0.847199 0.442985 0.622971 0.171328
C43   C     C_2   0.452520 0.717086 0.477481 -0.400894
C44   C     C_3   0.378372 0.766801 0.439725 0.152990
C45   C     C_2   0.436275 0.853831 0.457357 -0.152923
C46   C     C_2   0.563707 0.880977 0.496456 0.095161
C47   C     C_2   0.640676 0.823575 0.524581 -0.239869
C48   C     C_1   0.578787 0.747733 0.514300 0.329975
C49   C     C_R   0.791544 0.137784 0.533620 -0.264344
C50   C     C_R   0.855559 0.217664 0.538508 0.236824
C51   C     C_R   0.618916 0.239369 0.484001 0.294288
C52   C     C_R   0.553788 0.159589 0.478890 -0.276230
C53   C     C_R   0.638191 0.108061 0.504160 0.119799
C54   C     C_2   0.640144 0.965265 0.508036 -0.169369
C55   C     C_2   0.560634 0.024355 0.498406 -0.177979
C56   C     C_R   0.766332 0.268431 0.515500 -0.505429
H47   H     H_    0.432030 0.011181 0.484343 0.130427
H48   H     H_    0.746827 0.844906 0.554362 0.153308
H49   H     H_    0.861472 0.100539 0.553271 0.151421
H50   H     H_    0.767194 0.977424 0.523641 0.140498
H51   H     H_    0.384100 0.892571 0.432680 0.120243
H52   H     H_    0.438884 0.137506 0.454345 0.152528
H53   H     H_    0.412065 0.653906 0.468247 0.157594
H54   H     H_    0.816079 0.330262 0.519129 0.165876
O29   O     O_3   0.587491 0.802989 0.335544 -0.678484
C57   C     C_3   0.728313 0.861241 0.338267 -0.191525
H55   H     H_    0.734033 0.890177 0.298312 0.138139
H56   H     H_    0.843645 0.837810 0.344492 0.214783
H57   H     H_    0.718148 0.907671 0.377348 0.165965
N3    N     N_R   0.062070 0.229760 0.771544 0.287033
O30   O     O_R   0.171282 0.186618 0.781874 -0.292405
O31   O     O_R   0.917371 0.217992 0.794646 -0.265160
O32   O     O_3   0.337283 0.157774 0.671902 -0.568160
C58   C     C_3   0.284580 0.075947 0.655532 0.023949
H58   H     H_    0.361792 0.041326 0.677513 0.129328
H59   H     H_    0.284778 0.057931 0.606320 0.077512
H60   H     H_    0.156046 0.062080 0.670180 0.180202
N4    N     N_R   0.608080 0.168638 0.708921 0.237744
O33   O     O_R   0.578563 0.201498 0.762758 -0.245555
O34   O     O_R   0.715707 0.120395 0.700696 -0.396277

loop_
_geom_bond_atom_site_label_1
_geom_bond_atom_site_label_2
_geom_bond_distance
_ccdc_geom_bond_type
O5    C6    1.395429 S    
C51   C56   1.391972 A    
C17   C39   1.393849 A    
N1    C20   1.390256 Am   
C21   C27   1.408644 A    
C5    H10   1.108364 S    
C2    C3    1.520183 S    
C53   C55   1.483863 S    
C13   H30   1.108906 S    
Ba1   O20   2.895574 S    
C30   N2    1.389821 Am   
C35   C36   1.513174 S    
C4    C5    1.520997 S    
Ba1   O16   2.802023 S    
C15   H35   1.110990 S    
C49   C50   1.396345 A    
C8    H18   1.109623 S    
H36   C16   1.113415 S    
C40   C41   1.417639 A    
C49   C53   1.413668 A    
P3    C44   1.868614 S    
N4    O33   1.301392 A    
C7    H15   1.107107 S    
C14   H33   1.104628 S    
C2    H3    1.114421 S    
P7    O21   1.569306 D    
C55   H47   1.084494 S    
N2    C31   1.390858 Am   
C39   C40   1.409833 A    
P1    Ba1   3.372036 S    
C32   C33   1.516620 S    
P1    O1    1.502660 D    
P5    C50   1.832210 S    
P7    O22   1.750435 S    
C34   C35   1.335627 D    
C11   H25   1.111101 S    
O16   P7    1.756153 S    
C1    C10   1.535734 S    
C17   C38   1.395568 A    
C37   H40   1.080363 S    
O32   C58   1.411144 S    
C52   H52   1.083521 S    
C46   C47   1.490971 S    
C12   H27   1.109580 S    
P3    O11   1.749260 S    
C15   C16   1.533424 S    
O29   C57   1.411995 S    
C57   H57   1.109146 S    
C4    H7    1.102043 S    
C45   H51   1.083513 S    
C32   H43   1.085657 S    
C16   O32   1.414305 S    
O8    Ba1   2.738152 S    
C18   C22   1.409992 A    
P5    O19   1.754577 S    
C24   H39   1.083276 S    
P2    Ba1   3.403491 S    
C40   H44   1.082159 S    
C3    H5    1.108439 S    
C5    H11   1.110800 S    
P7    C51   1.837330 S    
C13   H31   1.107917 S    
C27   C28   1.399496 A    
C9    H20   1.106738 S    
C15   O24   1.406708 S    
C31   O28   1.221386 D    
C29   C30   1.418146 A    
C8    C9    1.522540 S    
C4    O15   1.399056 S    
C23   H41   1.083172 S    
P4    O13   1.537851 S    
P8    C33   1.867366 S    
C3    H29   1.109841 S    
P1    O5    1.750352 S    
O3    Ba1   2.719475 S    
C6    C7    1.521813 S    
C7    H16   1.110844 S    
C54   C55   1.347392 D    
P2    C48   1.831028 S    
C34   C42   1.319172 D    
C8    H17   1.105663 S    
C43   C44   1.509634 S    
C1    H1    1.108714 S    
N1    C36   1.465475 S    
C49   H49   1.079514 S    
C10   H22   1.104974 S    
C14   N3    1.458644 S    
C32   C36   1.359281 D    
O1    Ba1   2.804080 S    
P1    O2    1.537880 S    
C9    H21   1.110645 S    
C6    H13   1.108132 S    
O3    P6    1.749112 S    
C20   C21   1.416112 A    
C58   H60   1.109299 S    
C43   H53   1.084632 S    
C11   H24   1.109351 S    
C19   N1    1.388045 Am   
O2    Ba2   2.742691 S    
C24   C25   1.408816 A    
P3    O9    1.548122 D    
C12   H28   1.110755 S    
C21   C22   1.408250 A    
O11   C2    1.407361 S    
C14   H32   1.107070 S    
O2    Ba1   2.906406 S    
C25   C31   1.416232 A    
C50   C56   1.396948 A    
C37   C41   1.415068 A    
C57   H56   1.105569 S    
C23   C24   1.399450 A    
C26   C29   1.409629 A    
Ba2   O21   2.868218 S    
Ba1   O13   2.742094 S    
C3    H6    1.109582 S    
N2    C41   1.465032 S    
C47   C48   1.322909 D    
Ba1   Ba2   4.522456 S    
C13   C14   1.530868 S    
H37   C28   1.083173 S    
C30   O27   1.221869 D    
C16   N4    1.459892 S    
C9    H19   1.110819 S    
C54   H50   1.082374 S    
C45   C46   1.352808 D    
C19   O25   1.222005 D    
C10   O29   1.420512 S    
C37   C38   1.405382 A    
C17   H45   1.081654 S    
O17   Ba2   2.738855 S    
O13   Ba2   2.907236 S    
P4    O12   1.502953 D    
N3    O30   1.300450 A    
C47   H48   1.086917 S    
O6    C10   1.415835 S    
C11   C12   1.520284 S    
C35   H42   1.084842 S    
O7    Ba1   2.867965 S    
C4    H8    1.107446 S    
C15   H34   1.106529 S    
P2    O20   1.581041 S    
P8    O23   1.546785 D    
H38   C27   1.083287 S    
C42   H46   1.086124 S    
P6    C38   1.853011 S    
C46   C54   1.486217 S    
O14   Ba2   2.718976 S    
C51   C52   1.396395 A    
P4    O15   1.751556 S    
O4    P6    1.546734 D    
P5    O18   1.546842 D    
C6    H12   1.100625 S    
C56   H54   1.081509 S    
N3    O31   1.299185 A    
C44   C45   1.503782 S    
P3    O8    1.733641 S    
P4    C34   1.846348 S    
C58   H58   1.112838 S    
P8    O24   1.757814 S    
P2    O7    1.498050 D    
C18   C19   1.418024 A    
N4    O34   1.301059 A    
C25   C26   1.407911 A    
C18   C23   1.408109 A    
C11   O22   1.404243 S    
C2    H4    1.108404 S    
C20   O26   1.221416 D    
C22   C26   1.427045 A    
P2    O10   1.748233 S    
C52   C53   1.409106 A    
O10   C8    1.394820 S    
C43   C48   1.324416 D    
O19   C13   1.407180 S    
O14   P8    1.745750 S    
C57   H55   1.110623 S    
C1    H2    1.107491 S    
C12   H26   1.110624 S    
P4    Ba2   3.372636 S    
C28   C29   1.408330 A    
Ba2   O20   2.801271 S    
C7    H14   1.110656 S    
P1    C39   1.853577 S    
P5    O17   1.742854 S    
O6    P6    1.761275 S    
C1    H23   1.110704 S    
O16   Ba2   2.894740 S    
C33   C42   1.510980 S    
C58   H59   1.112616 S    
O12   Ba2   2.804366 S    
C5    H9    1.110601 S    
