data_mof_unit_8611.cif
_audit_creation_date              2012-12-10T18:57:08-0500
_audit_creation_method            fapswitch 2.2
_symmetry_space_group_name_H-M    P1
_symmetry_Int_Tables_number       1
_space_group_crystal_system       triclinic
_cell_length_a                    10.704055
_cell_length_b                    9.921789
_cell_length_c                    10.677733
_cell_angle_alpha                 90.011142
_cell_angle_beta                  92.84705
_cell_angle_gamma                 89.983447
_cell_volume                      1132.6114922

loop_
_atom_site_label
_atom_site_type_symbol
_atom_type_description
_atom_site_fract_x
_atom_site_fract_y
_atom_site_fract_z
_atom_type_partial_charge
C1    C     C_R   0.260176 0.499970 0.501049 0.894565
C2    C     C_R   0.739792 0.500084 0.499686 0.884273
C3    C     C_R   0.581420 0.068485 0.580081 0.408991
C4    C     C_R   0.421096 0.068530 0.417390 0.413578
C5    C     C_R   0.578108 0.925890 0.579559 -0.147441
C6    C     C_R   0.421956 0.925908 0.420352 -0.150419
C7    C     C_R   0.504267 0.500232 0.260466 0.902771
C8    C     C_R   0.502355 0.500100 0.740099 0.902757
C9    C     C_R   0.519445 0.623174 0.064894 0.119050
C10   C     C_R   0.518338 0.622879 0.937079 0.128418
C11   C     C_R   0.523842 0.501619 0.130104 -0.132816
C12   C     C_R   0.520239 0.500888 0.872739 -0.122735
C13   C     C_R   0.550729 0.381770 0.067664 -0.174229
C14   C     C_R   0.546526 0.380754 0.938199 -0.155850
C15   C     C_3   0.426613 0.736521 0.926178 -0.442488
C16   C     C_3   0.427832 0.736734 0.068269 -0.411668
C17   C     C_R   0.062273 0.381655 0.470923 -0.138044
C18   C     C_R   0.934313 0.382622 0.468017 -0.135822
C19   C     C_R   0.872316 0.500465 0.499977 -0.049198
C20   C     C_R   0.127574 0.499859 0.502107 -0.051275
C21   C     C_R   0.937439 0.618347 0.532797 -0.160081
C22   C     C_R   0.065549 0.618208 0.533295 -0.176232
H1    H     H_    0.566458 0.287995 0.117595 0.221897
H2    H     H_    0.556045 0.285272 0.890629 0.231480
H3    H     H_    0.468403 0.828892 0.886743 0.230583
H4    H     H_    0.337078 0.706080 0.105972 0.207864
H5    H     H_    0.335121 0.705804 0.881049 0.202458
H6    H     H_    0.470315 0.829196 0.110979 0.242672
H7    H     H_    0.109331 0.289160 0.447394 0.220270
H8    H     H_    0.884215 0.291949 0.439820 0.205648
H9    H     H_    0.889795 0.709917 0.558536 0.183319
H10   H     H_    0.115687 0.709806 0.558919 0.176458
H11   H     H_    0.642289 0.868126 0.639914 0.199537
H12   H     H_    0.362900 0.868147 0.354980 0.197830
N1    N     N_R   0.500000 0.857200 0.500000 -0.146826
N2    N     N_R   0.500000 0.142810 0.500000 -0.208037
O1    O     O_R   0.316770 0.614620 0.499990 -0.633289
O2    O     O_R   0.683230 0.614620 0.500010 -0.630475
O3    O     O_R   0.316800 0.385290 0.500000 -0.570743
O4    O     O_R   0.683200 0.385290 0.500000 -0.561600
O5    O     O_R   0.500000 0.614690 0.316780 -0.625275
O6    O     O_R   0.500000 0.614690 0.683220 -0.628322
O7    O     O_R   0.500020 0.385360 0.316780 -0.557651
O8    O     O_R   0.499980 0.385360 0.683220 -0.571416
Zn1   Zn    Zn3+2 0.500000 0.653120 0.500000 0.963799
Zn2   Zn    Zn3+2 0.500000 0.346880 0.500000 1.072292
S1    S     S_3+6 0.712535 0.131230 0.672823 0.019786
O9    O     O_2   0.725029 0.047555 0.790235 -0.327330
O10   O     O_2   0.826423 0.106654 0.599265 -0.326097
O11   O     O_3   0.714068 0.292514 0.718255 -0.547525
H13   H     H_    0.797698 0.306736 0.760120 0.372413
S2    S     S_3+6 0.329428 0.131765 0.285540 0.018349
O12   O     O_2   0.404875 0.111096 0.172175 -0.343464
O13   O     O_2   0.213878 0.045986 0.269758 -0.319254
O14   O     O_3   0.281216 0.292099 0.286339 -0.545894
H14   H     H_    0.241637 0.307796 0.201759 0.370438

loop_
_geom_bond_atom_site_label_1
_geom_bond_atom_site_label_2
_ccdc_geom_bond_type
C16   H6    S    
C8    O6    A    
O4    Zn2   S    
O14   H14   S    
C4    N2    A    
C2    O4    A    
N2    Zn2   S    
C18   H8    S    
C7    O7    A    
C21   H9    S    
C9    C10   A    
C2    O2    A    
C15   H5    S    
S1    O9    D    
S2    O14   S    
C1    O1    A    
C8    C12   S    
O11   H13   S    
C12   C14   A    
S1    O10   D    
C21   C22   A    
C6    N1    A    
C7    C11   S    
C11   C13   A    
C9    C11   A    
C22   H10   S    
C3    N2    A    
C4    S2    S    
O3    Zn2   S    
C10   C12   A    
C3    S1    S    
C19   C21   A    
C9    C16   S    
S2    O13   D    
C17   C18   A    
S1    O11   S    
C10   C15   S    
C7    O5    A    
C16   H4    S    
C8    O8    A    
O7    Zn2   S    
C15   H3    S    
C1    O3    A    
O1    Zn1   S    
C15   C16   S    
N1    Zn1   S    
C5    N1    A    
C17   C20   A    
C17   H7    S    
S2    O12   D    
C13   H1    S    
C4    C6    A    
C18   C19   A    
C14   H2    S    
O5    Zn1   S    
C1    C20   S    
O8    Zn2   S    
C3    C5    A    
C2    C19   S    
C13   C14   A    
C6    H12   S    
C20   C22   A    
O2    Zn1   S    
O6    Zn1   S    
C5    H11   S    
