data_mof_unit_19875.cif
_audit_creation_date              2012-12-11T14:06:38-0500
_audit_creation_method            fapswitch 2.2
_symmetry_space_group_name_H-M    P1
_symmetry_Int_Tables_number       1
_space_group_crystal_system       triclinic
_cell_length_a                    11.929168
_cell_length_b                    12.069194
_cell_length_c                    19.585566
_cell_angle_alpha                 90.206144
_cell_angle_beta                  89.924094
_cell_angle_gamma                 120.253856
_cell_volume                      2435.76661286

loop_
_atom_site_label
_atom_site_type_symbol
_atom_type_description
_atom_site_fract_x
_atom_site_fract_y
_atom_site_fract_z
_atom_type_partial_charge
C1    C     C_R   0.552393 0.476009 0.597387 0.538490
C2    C     C_R   0.409365 0.854830 0.134224 0.558108
C3    C     C_R   0.070296 0.521751 0.119295 0.568853
C4    C     C_R   0.441311 0.591410 0.133698 0.563526
C5    C     C_R   0.551520 0.475289 0.404991 0.602798
C6    C     C_R   0.521986 0.075748 0.404458 0.552602
C7    C     C_R   0.920530 0.445160 0.403017 0.593009
C8    C     C_1   0.036584 0.514757 0.858362 0.007590
C9    C     C_1   0.456334 0.560945 0.848702 -0.000679
C10   C     C_1   0.439493 0.896678 0.848606 -0.003213
C11   C     C_1   0.991972 0.493264 0.726853 -0.021559
C12   C     C_R   0.523571 0.076697 0.597460 0.525526
C13   C     C_1   0.489133 0.518594 0.720425 -0.016851
C14   C     C_1   0.480865 0.971783 0.720435 -0.016212
C15   C     C_1   0.013958 0.505688 0.797998 -0.026501
C16   C     C_1   0.469160 0.540661 0.789447 -0.021433
C17   C     C_1   0.459512 0.929914 0.789421 -0.021564
C18   C     C_1   0.967155 0.476738 0.666756 0.022305
C19   C     C_1   0.512922 0.499778 0.662872 0.022080
C20   C     C_1   0.499299 0.014006 0.662926 0.018356
C21   C     C_2   0.980799 0.480557 0.337095 0.186029
C22   C     C_2   0.500952 0.501333 0.345850 0.202613
C23   C     C_R   0.920443 0.445646 0.597970 0.539560
C24   C     C_2   0.480148 0.992365 0.346284 0.169027
C25   C     C_2   0.001588 0.488214 0.182585 -0.159324
C26   C     C_2   0.459801 0.554570 0.200052 -0.068459
C27   C     C_2   0.441180 0.918656 0.199038 -0.083136
C28   C     C_2   0.001102 0.398612 0.224141 0.255118
C29   C     C_2   0.566116 0.621980 0.238137 0.267076
C30   C     C_2   0.360982 0.944539 0.235346 0.256259
C31   C     C_3   0.747856 0.202327 0.274321 -0.070235
C32   C     C_3   0.726049 0.508130 0.234817 -0.065552
C33   C     C_3   0.467657 0.221033 0.261008 -0.058338
C34   C     C_2   0.945237 0.383009 0.291080 0.224416
C35   C     C_2   0.585131 0.553475 0.293100 0.210130
C36   C     C_2   0.414912 0.018557 0.297061 0.243092
C37   C     C_R   0.410946 0.855547 0.918831 0.520897
C38   C     C_R   0.078419 0.528272 0.928006 0.538586
C39   C     C_R   0.443587 0.588807 0.919064 0.518505
Cr1   Cr    Cr6+3 0.468420 0.238090 0.499960 1.142263
Cr2   Cr    Cr6+3 0.761910 0.230330 0.499960 1.120858
Cr3   Cr    Cr6+3 0.769670 0.531580 0.499960 1.138235
Cr4   Cr    Cr6+3 0.515700 0.760130 0.026360 1.129890
Cr5   Cr    Cr6+3 0.239870 0.755570 0.026360 1.111479
Cr6   Cr    Cr6+3 0.244430 0.484300 0.026360 1.127333
H1    H     H_    0.965907 0.549354 0.199455 0.095467
H2    H     H_    0.640249 0.456238 0.200573 0.061929
H3    H     H_    0.757875 0.439711 0.248554 0.073321
H4    H     H_    0.804771 0.586884 0.205697 0.229880
H5    H     H_    0.405516 0.251958 0.235240 0.214377
H6    H     H_    0.518844 0.198847 0.220259 0.057755
H7    H     H_    0.539184 0.301629 0.292372 0.106629
H8    H     H_    0.184910 0.693860 0.226318 0.357107
H9    H     H_    0.258298 0.559883 0.347829 0.433177
H10   H     H_    0.452162 0.821176 0.463464 0.345575
H11   H     H_    0.391726 0.456745 0.214069 0.154445
H12   H     H_    0.537823 0.953107 0.217612 0.120846
H13   H     H_    0.012060 0.098006 0.239514 0.377798
H14   H     H_    0.821617 0.921178 0.291150 0.390735
H15   H     H_    0.049215 0.928754 0.252707 0.394159
H16   H     H_    0.758316 0.227744 0.219209 0.109712
H17   H     H_    0.683610 0.230610 0.299625 0.066067
H18   H     H_    0.704384 0.097415 0.277220 0.191897
O1    O     O_R   0.434830 0.101190 0.575190 -0.498377
O2    O     O_R   0.664850 0.560590 0.424150 -0.441301
O3    O     O_R   0.484380 0.363570 0.430280 -0.461781
O4    O     O_R   0.636430 0.120810 0.430280 -0.477811
O5    O     O_R   0.879190 0.515620 0.430280 -0.452356
O6    O     O_3   0.666667 0.333333 0.499980 -0.343893
O7    O     O_R   0.548200 0.655360 0.951320 -0.481293
O8    O     O_R   0.344640 0.892840 0.951320 -0.463970
O9    O     O_R   0.107160 0.451800 0.951320 -0.504399
O10   O     O_R   0.505020 0.871000 0.955840 -0.489341
O11   O     O_R   0.129000 0.634020 0.955840 -0.520873
O12   O     O_R   0.898810 0.333640 0.575190 -0.493935
O13   O     O_R   0.365980 0.494980 0.955840 -0.469049
O14   O     O_R   0.543640 0.655270 0.102360 -0.436107
O15   O     O_R   0.344730 0.888370 0.102360 -0.427548
O16   O     O_R   0.111630 0.456360 0.102360 -0.435119
O17   O     O_R   0.500790 0.870920 0.095850 -0.453968
O18   O     O_R   0.129080 0.629870 0.095850 -0.493552
O19   O     O_R   0.370130 0.499210 0.095850 -0.454380
O20   O     O_2   0.944088 0.201764 0.137871 -0.267318
O21   O     O_2   0.168510 0.322252 0.178055 -0.225741
O22   O     O_3   0.997020 0.163946 0.260618 -0.405393
O23   O     O_R   0.666360 0.565170 0.575190 -0.502501
O24   O     O_2   0.782103 0.758289 0.160578 -0.247321
O25   O     O_2   0.667580 0.867832 0.193793 -0.288654
O26   O     O_3   0.800900 0.831184 0.286492 -0.427659
O27   O     O_2   0.260012 0.053711 0.154871 -0.249592
O28   O     O_2   0.125376 0.822362 0.166274 -0.276193
O29   O     O_3   0.139410 0.964250 0.268979 -0.383522
O30   O     O_3   0.864677 0.256685 0.310799 -0.472514
O31   O     O_3   0.703940 0.557458 0.295804 -0.505677
O32   O     O_3   0.391453 0.119675 0.305963 -0.467905
O33   O     O_2   0.001881 0.699593 0.293591 -0.229962
O34   O     O_3   0.333333 0.666667 0.026340 -0.362101
O35   O     O_2   0.135584 0.714024 0.390475 -0.193520
O36   O     O_3   0.207474 0.680084 0.272224 -0.508796
O37   O     O_2   0.267578 0.303153 0.311245 -0.198589
O38   O     O_2   0.281309 0.409068 0.419110 -0.256545
O39   O     O_3   0.279694 0.522034 0.308665 -0.471164
O40   O     O_2   0.458324 0.769736 0.294738 -0.253996
O41   O     O_2   0.637159 0.899108 0.371996 -0.265298
O42   O     O_3   0.406581 0.769892 0.422494 -0.461800
O43   O     O_R   0.480130 0.360720 0.570290 -0.491484
O44   O     O_R   0.639280 0.119410 0.570290 -0.501347
O45   O     O_R   0.880590 0.519870 0.570290 -0.497252
O46   O     O_R   0.439410 0.104260 0.424150 -0.438638
O47   O     O_R   0.895740 0.335150 0.424150 -0.439695
S1    S     S_3+6 0.029662 0.270713 0.197996 0.129402
S2    S     S_3+6 0.705414 0.773454 0.217012 0.103149
S3    S     S_3+6 0.218125 0.943489 0.203349 0.116557
S4    S     S_3+6 0.082069 0.647805 0.323276 0.039446
S5    S     S_3+6 0.328899 0.431126 0.346425 0.047107
S6    S     S_3+6 0.497874 0.855466 0.355870 0.031139

loop_
_geom_bond_atom_site_label_1
_geom_bond_atom_site_label_2
_ccdc_geom_bond_type
Cr4   O10   S    
C32   O31   S    
C11   C18   T    
C31   H16   S    
C29   S2    S    
Cr6   O19   S    
C31   H17   S    
C34   O30   S    
C3    O16   A    
O36   S4    S    
Cr2   O4    S    
H8    O36   S    
C33   H7    S    
C22   C35   D    
O26   S2    S    
C24   C36   D    
H10   O42   S    
Cr6   O13   S    
Cr1   O43   S    
C9    C16   T    
C12   O1    A    
O35   S4    D    
C10   C17   T    
C9    C39   S    
Cr5   O8    S    
H14   O26   S    
O27   S3    D    
O39   S5    S    
O42   S6    S    
C7    O5    A    
O41   S6    D    
C11   C15   S    
C5    C22   S    
C3    O18   A    
Cr3   O2    S    
C2    C27   S    
Cr3   O23   S    
O29   S3    S    
C1    O43   A    
C28   C34   S    
Cr1   O3    S    
C27   C30   D    
Cr3   O5    S    
C32   H3    S    
C14   C17   S    
O33   S4    D    
O37   S5    D    
C8    C38   S    
C33   O32   S    
H15   O29   S    
C28   S1    S    
C38   O9    A    
C1    C19   S    
O21   S1    D    
Cr1   O6    S    
C13   C19   T    
C18   C23   S    
C14   C20   T    
C3    C25   S    
C5    O2    A    
Cr5   O18   S    
C27   H12   S    
C5    O3    A    
C21   C34   D    
C33   H5    S    
C31   O30   S    
Cr3   O6    S    
C33   H6    S    
O28   S3    D    
C25   C28   D    
C2    O15   A    
C31   H18   S    
Cr2   O12   S    
Cr5   O34   S    
C6    C24   S    
C12   C20   S    
Cr6   O16   S    
C39   O13   A    
Cr5   O11   S    
C22   S5    S    
C24   S6    S    
C8    C15   T    
Cr2   O47   S    
C37   O8    A    
O38   S5    D    
C6    O46   A    
O20   S1    D    
Cr4   O14   S    
H13   O22   S    
Cr2   O6    S    
C38   O11   A    
C35   O31   S    
C1    O23   A    
C37   O10   A    
C6    O4    A    
Cr2   O44   S    
H9    O39   S    
Cr4   O34   S    
C23   O12   A    
C21   S4    S    
O22   S1    S    
C26   H11   S    
C12   O44   A    
C4    C26   S    
Cr1   O46   S    
O24   S2    D    
C10   C37   S    
Cr4   O7    S    
C29   C35   S    
Cr1   O1    S    
C7    O47   A    
C30   C36   S    
Cr5   O15   S    
O40   S6    D    
Cr4   O17   S    
C4    O14   A    
C7    C21   S    
C36   O32   S    
C23   O45   A    
C32   H2    S    
C39   O7    A    
C32   H4    S    
C2    O17   A    
O25   S2    D    
C4    O19   A    
C26   C29   D    
C13   C16   S    
Cr6   O34   S    
Cr3   O45   S    
C25   H1    S    
Cr6   O9    S    
C30   S3    S    
