data_mof_unit_51196.cif
_audit_creation_date              2012-12-10T20:53:10-0500
_audit_creation_method            fapswitch 2.2
_symmetry_space_group_name_H-M    P1
_symmetry_Int_Tables_number       1
_space_group_crystal_system       triclinic
_cell_length_a                    18.329225
_cell_length_b                    18.359756
_cell_length_c                    18.376024
_cell_angle_alpha                 59.737871
_cell_angle_beta                  59.798166
_cell_angle_gamma                 59.853533
_cell_volume                      4352.47144024

loop_
_atom_site_label
_atom_site_type_symbol
_atom_type_description
_atom_site_fract_x
_atom_site_fract_y
_atom_site_fract_z
_atom_type_partial_charge
C1    C     C_R   0.390157 0.107938 0.112030 0.805261
C2    C     C_R   0.455331 0.743740 0.709213 -0.174491
C3    C     C_R   0.032121 0.573114 0.914505 0.043290
C4    C     C_R   0.419784 0.053251 0.998373 0.022644
C5    C     C_R   0.576455 0.916151 0.030971 0.041144
C6    C     C_R   0.927368 0.965269 0.547991 -0.188244
C7    C     C_R   0.042901 0.065439 0.444913 -0.171679
C8    C     C_R   0.961344 0.548120 0.931756 -0.187737
C9    C     C_R   0.064101 0.445582 0.044649 -0.174863
C10   C     C_R   0.547951 0.926799 0.965835 -0.188903
C11   C     C_R   0.444812 0.042847 0.065261 -0.177770
C12   C     C_3   0.892936 0.954748 0.395091 -0.352103
C13   C     C_R   0.190180 0.208347 0.630665 -0.173993
C14   C     C_3   0.818101 0.038385 0.416747 -0.839132
C15   C     C_3   0.941872 0.262009 0.456122 -0.413598
C16   C     C_3   0.893097 0.290532 0.394152 -0.908120
C17   C     C_3   0.931698 0.392425 0.920003 -0.345045
C18   C     C_3   0.021473 0.399417 0.846198 -0.832852
C19   C     C_3   0.263021 0.452123 0.942947 -0.423153
C20   C     C_3   0.288498 0.380888 0.906701 -0.897693
C21   C     C_3   0.396080 0.886881 0.958858 -0.354165
C22   C     C_3   0.419806 0.812533 0.041757 -0.841659
C23   C     C_3   0.457707 0.943248 0.260750 -0.414575
C24   C     C_R   0.761167 0.715532 0.447432 -0.165124
C25   C     C_3   0.390506 0.901271 0.286789 -0.903579
C26   C     C_3   0.057024 0.650249 0.085757 -0.396490
C27   C     C_3   0.997282 0.741139 0.041924 -0.918065
C28   C     C_3   0.891313 0.224480 0.898165 -0.428714
C29   C     C_3   0.992425 0.179490 0.878663 -0.918511
C30   C     C_3   0.665564 0.090346 0.050909 -0.402474
C31   C     C_3   0.757216 0.061314 0.983009 -0.914674
C32   C     C_3   0.220936 0.860566 0.842017 -0.447202
C33   C     C_3   0.210158 0.921558 0.882714 -0.884202
C34   C     C_3   0.092148 0.052662 0.656261 -0.421965
C35   C     C_R   0.129037 0.639099 0.282308 -0.175506
C36   C     C_3   0.021301 0.042805 0.749414 -0.902500
C37   C     C_3   0.866274 0.859397 0.213745 -0.447291
C38   C     C_3   0.919030 0.910365 0.200751 -0.880268
C39   C     C_R   0.792059 0.461697 0.694267 -0.127307
C40   C     C_R   0.634630 0.284934 0.139369 -0.183416
C41   C     C_R   0.488331 0.673655 0.777177 -0.130987
C42   C     C_R   0.282081 0.163508 0.599658 -0.165052
C43   C     C_R   0.686209 0.779869 0.482374 -0.116766
C44   C     C_R   0.071853 0.593552 0.309922 0.117015
C45   C     C_R   0.608891 0.884685 0.895606 0.804194
C46   C     C_R   0.884870 0.423981 0.677031 0.105495
C47   C     C_R   0.591584 0.311976 0.080301 0.111416
C48   C     C_R   0.435673 0.664776 0.867244 0.111619
C49   C     C_R   0.312573 0.082658 0.586657 0.117002
C50   C     C_R   0.670100 0.871373 0.431717 0.108622
C51   C     C_R   0.043693 0.602522 0.246322 -0.136384
C52   C     C_R   0.919047 0.347360 0.742427 -0.164992
C53   C     C_R   0.605225 0.248912 0.048641 -0.130486
C54   C     C_R   0.349395 0.727159 0.888031 -0.198744
C55   C     C_R   0.250375 0.045100 0.609066 -0.142569
C56   C     C_R   0.107733 0.112419 0.390087 0.802062
C57   C     C_R   0.730400 0.897035 0.345027 -0.201274
C58   C     C_R   0.076781 0.651360 0.155545 0.222259
C59   C     C_R   0.860665 0.307981 0.824482 0.213552
C60   C     C_R   0.657868 0.159272 0.078449 0.225569
C61   C     C_R   0.315504 0.797122 0.819674 0.233286
C62   C     C_R   0.158151 0.089537 0.640540 0.242888
C63   C     C_R   0.805221 0.832309 0.308938 0.228362
C64   C     C_R   0.133902 0.696230 0.129508 -0.139553
C65   C     C_R   0.768212 0.347759 0.839817 -0.198799
C66   C     C_R   0.700776 0.133739 0.136939 -0.158205
C67   C     C_R   0.884877 0.895343 0.608953 0.802493
C68   C     C_R   0.369307 0.804708 0.730260 -0.152662
C69   C     C_R   0.128741 0.172483 0.648958 -0.113476
C70   C     C_R   0.819899 0.741470 0.360968 -0.164643
C71   C     C_R   0.984129 0.592324 0.463976 -0.262743
C72   C     C_R   0.002400 0.411814 0.532901 -0.275583
C73   C     C_R   0.590615 0.465856 0.991891 -0.268229
C74   C     C_R   0.414279 0.530319 0.998046 -0.264868
C75   C     C_R   0.464812 0.988934 0.591051 -0.253891
C76   C     C_R   0.531756 0.998383 0.413359 -0.265645
C77   C     C_R   0.939996 0.553577 0.554268 -0.058026
C78   C     C_R   0.113031 0.390119 0.107384 0.807419
C79   C     C_R   0.049115 0.449764 0.443035 -0.051337
C80   C     C_R   0.554319 0.553606 0.940811 -0.054064
C81   C     C_R   0.449842 0.442930 0.050716 -0.051209
C82   C     C_R   0.553545 0.939261 0.554439 -0.054979
C83   C     C_R   0.444008 0.050427 0.448971 -0.051661
C84   C     C_R   0.945410 0.463282 0.588451 0.008675
C85   C     C_R   0.035688 0.543075 0.406532 0.001978
C86   C     C_R   0.467470 0.584363 0.938749 0.016861
C87   C     C_R   0.541544 0.408048 0.042846 0.004555
C88   C     C_R   0.585907 0.939039 0.466485 0.016333
C89   C     C_R   0.893952 0.608881 0.886429 0.802956
C90   C     C_R   0.408523 0.041586 0.540593 -0.000307
C91   C     C_R   0.109080 0.390919 0.389477 0.792152
C92   C     C_R   0.888072 0.609753 0.610147 0.797805
C93   C     C_R   0.390917 0.389425 0.109655 0.792680
C94   C     C_R   0.609925 0.610040 0.888446 0.797904
C95   C     C_R   0.389738 0.109481 0.390668 0.794423
C96   C     C_R   0.609962 0.888064 0.609987 0.798543
C97   C     C_R   0.135115 0.960152 0.359139 -0.137285
C98   C     C_R   0.849544 0.045479 0.656672 -0.165121
C99   C     C_R   0.951664 0.368161 0.146985 -0.141695
C100  C     C_R   0.159366 0.690545 0.192677 -0.182835
C101  C     C_R   0.049234 0.651377 0.844369 -0.169036
C102  C     C_R   0.355221 0.131285 0.963424 -0.139121
C103  C     C_R   0.658404 0.851835 0.043965 -0.163476
C104  C     C_R   0.137689 0.905196 0.325917 -0.167546
C105  C     C_R   0.833108 0.116112 0.677970 -0.191846
C106  C     C_R   0.888026 0.339905 0.157994 -0.165363
C107  C     C_R   0.122526 0.671154 0.823948 -0.194525
C108  C     C_R   0.320737 0.131981 0.910667 -0.167333
C109  C     C_R   0.680181 0.836110 0.114038 -0.188644
C110  C     C_R   0.058955 0.893843 0.347122 -0.230209
C111  C     C_R   0.734102 0.424056 0.775594 -0.150575
C112  C     C_R   0.872618 0.181002 0.614916 -0.176640
C113  C     C_R   0.870118 0.360087 0.083658 -0.231102
C114  C     C_R   0.186529 0.608901 0.864545 -0.191898
C115  C     C_R   0.343119 0.052774 0.899948 -0.227354
C116  C     C_R   0.616897 0.874845 0.179220 -0.205175
C117  C     C_R   0.979293 0.929978 0.408740 0.218908
C118  C     C_R   0.932953 0.174031 0.530632 0.195502
C119  C     C_R   0.910057 0.415110 0.999568 0.204058
C120  C     C_R   0.176526 0.526828 0.929467 0.200193
C121  C     C_R   0.407044 0.974597 0.934330 0.219469
C122  C     C_R   0.689148 0.196219 0.167287 -0.192276
C123  C     C_R   0.532159 0.934416 0.172669 0.209011
C124  C     C_R   0.984551 0.964878 0.459618 0.075255
C125  C     C_R   0.964875 0.091593 0.515905 0.052691
C126  C     C_R   0.954398 0.463293 0.995738 0.076365
C127  C     C_R   0.092130 0.513978 0.964043 0.057867
C128  C     C_R   0.458499 0.981991 0.967204 0.076201
C129  C     C_R   0.516915 0.965903 0.090588 0.061277
C130  C     C_R   0.055414 0.996552 0.421540 0.023305
C131  C     C_R   0.915145 0.031739 0.575553 0.044128
C132  C     C_R   0.989969 0.426026 0.063379 0.027893
H1    H     H_    0.850503 0.240374 0.629875 0.135452
H2    H     H_    0.346749 0.554087 0.998230 0.155893
H3    H     H_    0.973619 0.109436 0.754888 0.261352
H4    H     H_    0.982669 0.004521 0.761286 0.271616
H5    H     H_    0.058435 0.098516 0.605670 0.237938
H6    H     H_    0.127294 0.986292 0.647163 0.194870
H7    H     H_    0.873161 0.974160 0.214039 0.246860
H8    H     H_    0.959409 0.868673 0.245994 0.259345
H9    H     H_    0.965197 0.926104 0.130618 0.256721
H10   H     H_    0.915230 0.799301 0.194545 0.227075
H11   H     H_    0.826190 0.901078 0.168170 0.203941
H12   H     H_    0.438414 0.985647 0.659968 0.169712
H13   H     H_    0.556125 0.999875 0.345394 0.156982
H14   H     H_    0.195485 0.973885 0.335612 0.146746
H15   H     H_    0.807011 0.005212 0.703578 0.174808
H16   H     H_    0.970562 0.344604 0.203972 0.143803
H17   H     H_    0.009066 0.697345 0.801717 0.172682
H18   H     H_    0.330854 0.191868 0.976630 0.149812
H19   H     H_    0.705540 0.809516 0.003790 0.175493
H20   H     H_    0.198726 0.878193 0.277626 0.147152
H21   H     H_    0.058665 0.862492 0.310711 0.133404
H22   H     H_    0.783575 0.124693 0.741000 0.150624
H23   H     H_    0.859159 0.295536 0.222230 0.146821
H24   H     H_    0.133449 0.732222 0.771086 0.148424
H25   H     H_    0.270746 0.191857 0.884899 0.147816
H26   H     H_    0.743726 0.787395 0.122174 0.147825
H27   H     H_    0.159469 0.734757 0.060084 0.127374
H28   H     H_    0.722280 0.319146 0.901922 0.141867
H29   H     H_    0.742964 0.065357 0.159036 0.134246
H30   H     H_    0.344529 0.856668 0.676568 0.120498
H31   H     H_    0.058141 0.209593 0.668522 0.121471
H32   H     H_    0.247354 0.622659 0.840252 0.136386
H33   H     H_    0.876050 0.690431 0.334378 0.131229
H34   H     H_    0.203462 0.725405 0.171936 0.139166
H35   H     H_    0.662536 0.453637 0.788737 0.132033
H36   H     H_    0.722608 0.175845 0.212406 0.141663
H37   H     H_    0.495423 0.749577 0.640069 0.128061
H38   H     H_    0.166503 0.272199 0.638076 0.136538
H39   H     H_    0.772930 0.645262 0.486856 0.128846
H40   H     H_    0.149823 0.635001 0.330359 0.133212
H41   H     H_    0.764668 0.520191 0.644456 0.095609
H42   H     H_    0.626975 0.332870 0.162678 0.134340
H43   H     H_    0.831836 0.326219 0.090019 0.132687
H44   H     H_    0.554064 0.624946 0.759581 0.096148
H45   H     H_    0.329208 0.193446 0.582285 0.129313
H46   H     H_    0.640208 0.758095 0.548638 0.092118
H47   H     H_    0.997947 0.569272 0.267390 0.112412
H48   H     H_    0.990437 0.319975 0.728811 0.129732
H49   H     H_    0.574631 0.269930 0.000732 0.117556
H50   H     H_    0.308109 0.719938 0.957258 0.128411
H51   H     H_    0.273664 0.985351 0.594508 0.095226
H52   H     H_    0.718054 0.967179 0.305335 0.130938
H53   H     H_    0.844001 0.094943 0.382327 0.246804
H54   H     H_    0.632290 0.853107 0.238262 0.136013
H55   H     H_    0.763795 0.057838 0.392903 0.236988
H56   H     H_    0.788387 0.026217 0.489600 0.261013
H57   H     H_    0.908416 0.971072 0.323057 0.184196
H58   H     H_    0.868586 0.897106 0.430356 0.249695
H59   H     H_    0.822559 0.292396 0.433188 0.269873
H60   H     H_    0.892769 0.358651 0.345776 0.239396
H61   H     H_    0.926877 0.243219 0.357112 0.260024
H62   H     H_    0.910781 0.316230 0.484345 0.191295
H63   H     H_    0.011003 0.261980 0.416739 0.219127
H64   H     H_    0.076509 0.358601 0.874882 0.245722
H65   H     H_    0.306061 0.050876 0.870311 0.137293
H66   H     H_    0.035648 0.373921 0.795467 0.231060
H67   H     H_    0.020844 0.469417 0.811039 0.264425
H68   H     H_    0.937771 0.321440 0.944478 0.193497
H69   H     H_    0.875989 0.430543 0.892616 0.247104
H70   H     H_    0.294197 0.411603 0.835068 0.267824
H71   H     H_    0.354320 0.330373 0.912446 0.236095
H72   H     H_    0.237565 0.347175 0.944831 0.260187
H73   H     H_    0.319570 0.478656 0.905832 0.191362
H74   H     H_    0.262330 0.421213 0.012221 0.223226
H75   H     H_    0.384854 0.837975 0.098517 0.247247
H76   H     H_    0.976836 0.662605 0.437037 0.175167
H77   H     H_    0.397972 0.756730 0.061378 0.238033
H78   H     H_    0.492909 0.785132 0.028571 0.259768
H79   H     H_    0.324271 0.899929 0.975526 0.179613
H80   H     H_    0.431941 0.863063 0.900998 0.250053
H81   H     H_    0.354556 0.938416 0.237955 0.260084
H82   H     H_    0.425348 0.830438 0.289486 0.268792
H83   H     H_    0.340876 0.903041 0.353942 0.237703
H84   H     H_    0.485746 0.907467 0.315933 0.191026
H85   H     H_    0.422479 0.012041 0.261886 0.223836
H86   H     H_    0.928079 0.756247 0.089843 0.250184
H87   H     H_    0.006541 0.342725 0.558763 0.158035
H88   H     H_    0.023622 0.795046 0.017947 0.262109
H89   H     H_    0.994608 0.739440 0.983783 0.275393
H90   H     H_    0.121495 0.629830 0.033689 0.216692
H91   H     H_    0.023892 0.600159 0.115298 0.218688
H92   H     H_    0.023047 0.152257 0.824335 0.268862
H93   H     H_    0.024752 0.226310 0.860504 0.264435
H94   H     H_    0.005590 0.122741 0.939296 0.258425
H95   H     H_    0.860943 0.241281 0.959832 0.206453
H96   H     H_    0.864499 0.174272 0.913190 0.220066
H97   H     H_    0.766974 0.118841 0.920162 0.253861
H98   H     H_    0.659309 0.440799 0.989199 0.166741
H99   H     H_    0.811328 0.034482 0.010147 0.261892
H100  H     H_    0.761303 0.007994 0.967411 0.271010
H101  H     H_    0.654149 0.031248 0.111184 0.214325
H102  H     H_    0.613363 0.116875 0.021322 0.217365
H103  H     H_    0.220510 0.881757 0.948468 0.246598
H104  H     H_    0.258882 0.958212 0.837204 0.262496
H105  H     H_    0.141413 0.971021 0.893203 0.254264
H106  H     H_    0.201854 0.902789 0.780867 0.216305
H107  H     H_    0.174222 0.821817 0.889473 0.204258
H108  H     H_    0.052711 0.006609 0.801816 0.265259
O1    O     O_3   0.250000 0.250000 0.250000 -0.474021
O2    O     O_R   0.865800 0.694910 0.573470 -0.649153
O3    O     O_R   0.305090 0.426530 0.134200 -0.648024
O4    O     O_R   0.694910 0.573470 0.865800 -0.652692
O5    O     O_R   0.426530 0.134200 0.305090 -0.649207
O6    O     O_R   0.573470 0.865800 0.694910 -0.648452
O7    O     O_R   0.134190 0.426530 0.134200 -0.674251
O8    O     O_R   0.865810 0.573470 0.865800 -0.648053
O9    O     O_R   0.426530 0.134200 0.134190 -0.668443
O10   O     O_R   0.573470 0.865800 0.865810 -0.647553
O11   O     O_R   0.134200 0.134190 0.426530 -0.671347
O12   O     O_3   0.750000 0.750000 0.750000 -0.470772
O13   O     O_R   0.865800 0.865810 0.573470 -0.646660
O14   O     O_R   0.426530 0.305080 0.134210 -0.641969
O15   O     O_R   0.573470 0.694920 0.865790 -0.638331
O16   O     O_R   0.305080 0.134210 0.426530 -0.633874
O17   O     O_R   0.694920 0.865790 0.573470 -0.638515
O18   O     O_R   0.134210 0.426530 0.305080 -0.641613
O19   O     O_R   0.865790 0.573470 0.694920 -0.635273
O20   O     O_R   0.305080 0.134200 0.134200 -0.634081
O21   O     O_R   0.694920 0.865800 0.865800 -0.655510
O22   O     O_R   0.134200 0.134200 0.305080 -0.631383
O23   O     O_R   0.865800 0.865800 0.694920 -0.654320
O24   O     O_R   0.134200 0.305080 0.134200 -0.631808
O25   O     O_R   0.865800 0.694920 0.865800 -0.653813
O26   O     O_R   0.134200 0.305090 0.426530 -0.646639
Zn1   Zn    Zn3+2 0.206620 0.206630 0.380140 0.945473
Zn2   Zn    Zn3+2 0.793380 0.793370 0.619860 0.947677
Zn3   Zn    Zn3+2 0.206630 0.380140 0.206620 0.941369
Zn4   Zn    Zn3+2 0.793370 0.619860 0.793380 0.946397
Zn5   Zn    Zn3+2 0.380140 0.206620 0.206630 0.944986
Zn6   Zn    Zn3+2 0.619860 0.793380 0.793370 0.947402
Zn7   Zn    Zn3+2 0.206620 0.206620 0.206620 0.956680
Zn8   Zn    Zn3+2 0.793380 0.793380 0.793380 0.938945

loop_
_geom_bond_atom_site_label_1
_geom_bond_atom_site_label_2
_ccdc_geom_bond_type
C36   H108  S    
C29   H92   S    
C104  C110  A    
C99   H16   S    
C5    C103  A    
C77   C92   S    
C101  C107  A    
C89   O8    A    
C115  C121  A    
C116  C123  A    
C40   C47   A    
C71   C77   A    
C97   H14   S    
O9    Zn5   S    
C13   C42   A    
C19   C20   S    
C1    C11   S    
O10   Zn6   S    
C112  H1    S    
C39   H41   S    
C28   H96   S    
O3    Zn3   S    
C120  C127  A    
C24   C70   A    
C43   H46   S    
C48   C54   A    
C12   H57   S    
C115  H65   S    
C28   C29   S    
C26   C27   S    
C9    C127  A    
C98   C105  A    
C32   H106  S    
C99   C132  A    
O4    Zn4   S    
C29   H94   S    
C108  C115  A    
C25   H82   S    
C16   H59   S    
C117  C124  A    
C32   C61   S    
C31   H97   S    
C72   C79   A    
C2    C68   A    
C30   C31   S    
O7    Zn3   S    
C3    C127  A    
C28   C59   S    
C98   H15   S    
C42   H45   S    
C15   C16   S    
C99   C106  A    
C56   O11   A    
C46   C52   A    
O14   Zn5   S    
C34   C62   S    
C14   H56   S    
C76   C83   A    
C17   H68   S    
C100  H34   S    
O1    Zn7   S    
C83   C90   A    
C24   H39   S    
C94   O4    A    
C65   C111  A    
C7    C130  A    
C80   C86   A    
C16   H61   S    
C16   H60   S    
C109  C116  A    
C76   H13   S    
C71   C85   A    
C15   H62   S    
C92   O2    A    
C72   H87   S    
C73   C87   A    
C96   O17   A    
C4    C102  A    
C98   C131  A    
C18   H66   S    
C19   H74   S    
C38   H7    S    
C54   H50   S    
C102  C108  A    
C118  C125  A    
C6    C124  A    
C68   H30   S    
C36   H4    S    
C91   O26   A    
C49   C90   S    
C79   C91   S    
C107  H24   S    
C75   C90   A    
C103  H19   S    
C113  H43   S    
C1    O20   A    
C15   H63   S    
C3    C101  A    
C39   C111  A    
C105  H22   S    
C60   C66   A    
C27   H88   S    
C113  C119  A    
C29   H93   S    
C123  C129  A    
C35   H40   S    
O17   Zn2   S    
C7    C56   S    
C65   H28   S    
C51   H47   S    
C109  H26   S    
C11   C129  A    
C28   H95   S    
C96   O6    A    
C73   H98   S    
C37   C63   S    
C53   C60   A    
O12   Zn2   S    
C57   C63   A    
O15   Zn6   S    
C67   O13   A    
O13   Zn2   S    
C58   C64   A    
C27   H89   S    
C82   C96   S    
C37   H10   S    
C4    C128  A    
C106  C113  A    
C18   H64   S    
C25   H83   S    
C122  H36   S    
C20   H72   S    
C121  C128  A    
C3    C8    A    
C93   O3    A    
C1    O9    A    
C14   H53   S    
C93   O14   A    
O12   Zn6   S    
C23   C123  S    
C108  H25   S    
C42   C49   A    
C77   C84   A    
C49   C55   A    
C116  H54   S    
C34   H6    S    
C75   H12   S    
C30   H102  S    
C21   H79   S    
C62   C69   A    
C30   C60   S    
C47   C87   S    
C56   O22   A    
C52   H48   S    
C107  C114  A    
C26   H90   S    
C37   C38   S    
C52   C59   A    
C53   H49   S    
C45   O10   A    
C112  C118  A    
C81   C93   S    
C125  C131  A    
C114  H32   S    
C63   C70   A    
C126  C132  A    
O23   Zn8   S    
C83   C95   S    
C31   H100  S    
C10   C45   S    
C66   C122  A    
C17   C18   S    
C124  C130  A    
C75   C82   A    
C51   C58   A    
C72   C84   A    
C97   C130  A    
C74   C86   A    
C4    C11   A    
C17   H69   S    
C35   C44   A    
C26   C58   S    
C81   C87   A    
C33   H104  S    
C102  H18   S    
C39   C46   A    
C46   C84   S    
O20   Zn7   S    
C44   C51   A    
C8    C126  A    
C71   H76   S    
C7    C125  A    
O16   Zn1   S    
C78   O7    A    
C19   C120  S    
C26   H91   S    
O2    Zn2   S    
C41   C48   A    
O18   Zn3   S    
C38   H9    S    
C48   C86   S    
C22   H77   S    
C70   H33   S    
C111  H35   S    
C101  H17   S    
C74   C81   A    
C80   C94   S    
C44   C85   S    
C36   H3    S    
O11   Zn1   S    
C79   C85   A    
C92   O19   A    
C12   H58   S    
C19   H73   S    
C9    C132  A    
O22   Zn7   S    
C76   C88   A    
C13   H38   S    
C38   H8    S    
C37   H11   S    
O5    Zn5   S    
C45   O21   A    
C50   C57   A    
C78   O24   A    
C105  C112  A    
C69   H31   S    
C20   H71   S    
C12   C14   S    
C6    C131  A    
C89   O25   A    
C54   C61   A    
C33   H103  S    
C74   H2    S    
C67   O23   A    
C15   C118  S    
C43   C50   A    
C10   C128  A    
O21   Zn8   S    
C32   H107  S    
C50   C88   S    
C40   C122  A    
C34   H5    S    
O6    Zn6   S    
O24   Zn7   S    
C21   H80   S    
C47   C53   A    
C103  C109  A    
C32   C33   S    
C104  H20   S    
C25   H81   S    
C20   H70   S    
C5    C10   A    
C91   O18   A    
C6    C67   S    
C94   O15   A    
C95   O5    A    
C23   H84   S    
C40   H42   S    
C14   H55   S    
C61   C68   A    
O12   Zn4   S    
O1    Zn1   S    
C13   C69   A    
C110  C117  A    
C22   H78   S    
C64   H27   S    
C5    C129  A    
C73   C80   A    
O1    Zn3   S    
C22   H75   S    
O19   Zn4   S    
C34   C36   S    
C9    C78   S    
C23   C25   S    
C30   H101  S    
C21   C121  S    
C23   H85   S    
C114  C120  A    
C97   C104  A    
C33   H105  S    
O26   Zn1   S    
C17   C119  S    
C2    H37   S    
C41   H44   S    
C12   C117  S    
C119  C126  A    
O1    Zn5   S    
O25   Zn8   S    
C64   C100  A    
O8    Zn4   S    
C55   C62   A    
C66   H29   S    
C27   H86   S    
C106  H23   S    
C31   H99   S    
C18   H67   S    
C110  H21   S    
C24   C43   A    
C55   H51   S    
C8    C89   S    
C2    C41   A    
C21   C22   S    
O12   Zn8   S    
C95   O16   A    
C57   H52   S    
C59   C65   A    
C82   C88   A    
C35   C100  A    
