data_mof_unit_39254.cif
_audit_creation_date              2012-12-10T17:35:38-0500
_audit_creation_method            fapswitch 2.2
_symmetry_space_group_name_H-M    P1
_symmetry_Int_Tables_number       1
_space_group_crystal_system       triclinic
_cell_length_a                    10.711909
_cell_length_b                    12.322056
_cell_length_c                    13.196956
_cell_angle_alpha                 116.688994
_cell_angle_beta                  77.454941
_cell_angle_gamma                 101.336977
_cell_volume                      1509.33613658

loop_
_atom_site_label
_atom_site_type_symbol
_atom_type_description
_atom_site_fract_x
_atom_site_fract_y
_atom_site_fract_z
_atom_type_partial_charge
C1    C     C_R   0.511598 0.854875 0.286606 0.771978
C2    C     C_R   0.500028 0.566548 0.009421 0.083354
C3    C     C_R   0.460942 0.650495 0.123549 0.083518
C4    C     C_R   0.739886 0.999310 0.499601 0.751241
C5    C     C_R   0.457264 0.440109 0.975985 0.078937
C6    C     C_R   0.366841 0.401194 0.052572 0.168105
C7    C     C_R   0.318131 0.487117 0.159366 -0.234739
C8    C     C_R   0.362986 0.610039 0.193820 -0.203276
C9    C     C_R   0.502498 0.350743 0.868790 -0.237921
C10   C     C_R   0.366049 0.190373 0.911239 -0.195774
C11   C     C_R   0.519966 0.773077 0.163611 -0.108045
C12   C     C_3   0.121813 0.999279 0.499751 0.144777
C13   C     C_R   0.706246 0.344108 0.326153 0.298266
C14   C     C_R   0.323593 0.758695 0.643352 -0.031975
C15   C     C_R   0.274698 0.656368 0.664272 -0.251177
C16   C     C_R   0.480769 0.145108 0.713384 0.799937
C17   C     C_R   0.331199 0.547697 0.601677 0.399873
C18   C     C_R   0.449096 0.545621 0.525814 -0.094674
C19   C     C_R   0.490656 0.651255 0.502956 0.247221
C20   C     C_R   0.525945 0.444132 0.470206 -0.071265
C21   C     C_R   0.632173 0.444654 0.383954 0.075372
C22   C     C_R   0.661757 0.544654 0.356576 -0.279150
C23   C     C_3   0.074128 0.120952 0.593597 -0.369604
C24   C     C_R   0.596080 0.646421 0.417346 -0.162761
C25   C     C_R   0.505577 0.343665 0.499220 -0.032463
C26   C     C_R   0.671160 0.244018 0.352416 0.052736
C27   C     C_R   0.260050 1.000000 0.499931 0.750499
C28   C     C_3   0.955933 0.983220 0.381258 -0.383493
C29   C     C_3   0.100104 0.983679 0.381354 -0.375165
C30   C     C_3   0.929989 0.120504 0.593613 -0.368700
C31   C     C_3   0.897612 0.891439 0.524036 -0.371221
C32   C     C_3   0.877766 0.998536 0.499635 0.151776
C33   C     C_3   0.040496 0.891967 0.524298 -0.366143
C34   C     C_R   0.323683 0.276649 0.020297 -0.181153
C35   C     C_R   0.453362 0.228029 0.834449 -0.050951
C36   C     C_R   0.599357 0.814921 0.085776 -0.189791
C37   C     C_R   0.625814 0.735806 0.971003 -0.146992
C38   C     C_R   0.579148 0.612677 0.933056 -0.175040
Cu1   Cu    Cu3+1 0.529690 0.098270 0.475420 0.928908
Cu2   Cu    Cu3+1 0.470310 0.901730 0.524580 0.916798
H1    H     H_    0.943825 0.058814 0.361162 0.174349
H2    H     H_    0.604453 0.556905 0.842899 0.130278
H3    H     H_    0.686319 0.769364 0.911516 0.141244
H4    H     H_    0.919864 0.895892 0.312723 0.149154
H5    H     H_    0.317043 0.672818 0.275137 0.169480
H6    H     H_    0.724422 0.165335 0.307050 0.141394
H7    H     H_    0.737720 0.547109 0.288406 0.156788
H8    H     H_    0.437373 0.341775 0.571617 0.194070
H9    H     H_    0.274997 0.840297 0.688716 0.143009
H10   H     H_    0.187052 0.659055 0.724122 0.165860
H11   H     H_    0.631266 0.719396 0.392858 0.201656
H12   H     H_    0.053733 0.900746 0.609174 0.165783
H13   H     H_    0.133919 0.896563 0.312885 0.151034
H14   H     H_    0.156685 0.059523 0.361405 0.174872
H15   H     H_    0.917277 0.199160 0.578266 0.181225
H16   H     H_    0.130156 0.199600 0.578047 0.196559
H17   H     H_    0.842542 0.899717 0.608641 0.176037
H18   H     H_    0.861567 0.802433 0.457411 0.163599
H19   H     H_    0.072574 0.803003 0.458052 0.168308
H20   H     H_    0.862010 0.421445 0.268861 0.315970
H21   H     H_    0.264043 0.379201 0.529336 0.308639
H22   H     H_    0.875093 0.132881 0.679296 0.155826
H23   H     H_    0.089104 0.133632 0.679286 0.157732
H24   H     H_    0.326638 0.095429 0.885450 0.146544
H25   H     H_    0.244963 0.459232 0.216726 0.146493
H26   H     H_    0.254364 0.246479 0.078255 0.137800
H27   H     H_    0.575297 0.373937 0.809039 0.144583
H28   H     H_    0.643906 0.908622 0.114116 0.156331
N1    N     N_R   0.574690 0.246280 0.438200 -0.222223
N2    N     N_R   0.426100 0.754320 0.561190 -0.199747
O1    O     O_R   0.537340 0.972510 0.318130 -0.578821
O2    O     O_3   0.260622 0.444623 0.608656 -0.758231
O3    O     O_R   0.487200 0.806530 0.359650 -0.598532
O4    O     O_R   0.707380 0.082980 0.479220 -0.586136
O5    O     O_R   0.657240 0.917000 0.520740 -0.602530
O6    O     O_R   0.512800 0.193470 0.640350 -0.581438
O7    O     O_R   0.462660 0.027490 0.681870 -0.581943
O8    O     O_R   0.342760 0.083000 0.479260 -0.580877
O9    O     O_R   0.292620 0.917020 0.520780 -0.596940
O10   O     O_3   0.812295 0.339447 0.244099 -0.749018

loop_
_geom_bond_atom_site_label_1
_geom_bond_atom_site_label_2
_ccdc_geom_bond_type
C12   C29   S    
C1    C11   S    
C27   O8    A    
C34   H26   S    
C23   H16   S    
C33   H12   S    
C12   C23   S    
C28   C29   S    
C1    O1    A    
Cu2   N2    S    
C31   H18   S    
C36   C37   A    
C38   H2    S    
C27   O9    A    
C16   C35   S    
C5    C6    A    
C15   H10   S    
C14   H9    S    
C20   C25   A    
C28   H1    S    
Cu2   O3    S    
C18   C19   A    
Cu1   O4    S    
C8    H5    S    
C4    O5    A    
C31   C33   S    
C10   C35   A    
C4    O4    A    
C24   H11   S    
C23   H23   S    
C22   H7    S    
C13   O10   S    
C33   H19   S    
C21   C22   A    
C14   N2    A    
C12   C27   S    
C23   C30   S    
C28   C32   S    
C3    C11   A    
C3    C8    A    
Cu1   Cu2   S    
C28   H4    S    
C6    C34   A    
C11   C36   A    
C37   H3    S    
C9    H27   S    
C5    C9    A    
C37   C38   A    
C7    H25   S    
C2    C38   A    
C31   C32   S    
C17   C18   A    
Cu1   N1    S    
Cu2   O9    S    
C13   C21   A    
C10   C34   A    
Cu1   O6    S    
C25   H8    S    
C4    C32   S    
H21   O2    S    
C30   H22   S    
C22   C24   A    
C13   C26   A    
C2    C5    A    
C25   N1    A    
C15   C17   A    
H20   O10   S    
C16   O6    A    
C10   H24   S    
C36   H28   S    
C6    C7    A    
C30   H15   S    
Cu2   O5    S    
C1    O3    A    
C31   H17   S    
C19   C24   A    
C12   C33   S    
C30   C32   S    
C29   H13   S    
C2    C3    A    
C18   C20   A    
Cu2   O7    S    
C7    C8    A    
C26   H6    S    
C20   C21   A    
C17   O2    S    
C29   H14   S    
C9    C35   A    
C26   N1    A    
Cu1   O1    S    
C14   C15   A    
C16   O7    A    
C19   N2    A    
Cu1   O8    S    
