data_mof_unit_67937.cif
_audit_creation_date              2013-03-05T16:22:14-0500
_audit_creation_method            fapswitch 2.2
_symmetry_space_group_name_H-M    P1
_symmetry_Int_Tables_number       1
_space_group_crystal_system       triclinic
_cell_length_a                    10.652241
_cell_length_b                    10.825115
_cell_length_c                    10.030259
_cell_angle_alpha                 89.3448
_cell_angle_beta                  90.199583
_cell_angle_gamma                 87.463826
_cell_volume                      1155.38887816

loop_
_atom_site_label
_atom_site_type_symbol
_atom_site_description
_atom_site_fract_x
_atom_site_fract_y
_atom_site_fract_z
_atom_type_partial_charge
O1    O     O_R   0.500010 0.313960 0.616610 -0.531252
O2    O     O_R   0.499990 0.686040 0.383390 -0.538599
O3    O     O_R   0.500060 0.313950 0.383350 -0.632807
O4    O     O_R   0.499940 0.686050 0.616650 -0.630210
C1    C     C_R   0.499677 0.258149 0.501615 0.981585
C2    C     C_R   0.491136 0.742366 0.500110 0.981531
O5    O     O_R   0.313930 0.499970 0.616610 -0.575380
O6    O     O_R   0.686070 0.500030 0.383390 -0.574021
O7    O     O_R   0.313980 0.499960 0.383350 -0.563096
O8    O     O_R   0.686020 0.500040 0.616650 -0.585101
C3    C     C_R   0.258977 0.492181 0.499242 0.969779
C4    C     C_R   0.741091 0.508587 0.499741 0.987045
Zn1   Zn    Zn3+2 0.499970 0.500010 0.655740 1.111806
Zn2   Zn    Zn3+2 0.500030 0.499990 0.344260 1.114430
C5    C     C_3   0.040160 0.439536 0.607355 0.321993
C6    C     C_3   0.960481 0.561678 0.385672 0.396874
C7    C     C_3   0.951985 0.390038 0.499101 -0.319398
C8    C     C_3   0.048651 0.611317 0.492675 -0.260831
H1    H     H_    0.908404 0.298636 0.499833 0.279552
H2    H     H_    0.093237 0.701794 0.487981 0.280191
C9    C     C_3   0.876824 0.515082 0.497657 -0.367028
C10   C     C_3   0.123526 0.486469 0.495964 -0.336741
C11   C     C_3   0.963114 0.564503 0.605104 0.328215
C12   C     C_3   0.037261 0.438155 0.387760 0.401827
C13   C     C_3   0.502751 0.036968 0.631347 0.403644
C14   C     C_3   0.465653 0.965616 0.381068 0.394832
C15   C     C_3   0.593217 0.948304 0.553636 -0.375620
C16   C     C_3   0.378935 0.055487 0.460669 -0.361996
H3    H     H_    0.680611 0.903884 0.594438 0.273874
H4    H     H_    0.290617 0.102491 0.424850 0.265745
C17   C     C_3   0.479351 0.879483 0.502972 -0.327767
C18   C     C_3   0.494972 0.123008 0.507712 -0.338647
C19   C     C_3   0.390379 0.966914 0.581528 0.394664
C20   C     C_3   0.581588 0.033737 0.428492 0.342172
C21   C     C_3   0.493472 0.391109 0.049559 -0.197762
C22   C     C_3   0.507899 0.609241 0.948977 -0.163717
C23   C     C_3   0.593179 0.434729 0.954875 0.463914
C24   C     C_3   0.406613 0.566070 0.043718 0.501477
N1    N     N_3   0.499910 0.500030 0.863290 -0.180528
N2    N     N_3   0.500090 0.499970 0.136710 -0.179058
C25   C     C_3   0.399952 0.453867 0.950897 -0.137553
C26   C     C_3   0.601436 0.544005 0.048514 -0.205120
H5    H     H_    0.319088 0.408658 0.907336 0.264142
H6    H     H_    0.687858 0.580982 0.090207 0.260595
S1    S     S_3+6 0.091763 0.325375 0.728864 0.090151
O9    O     O_2   0.217440 0.269349 0.689314 -0.239158
O10   O     O_2   0.101958 0.381696 0.863657 -0.242151
O11   O     O_3   0.987714 0.212946 0.735555 -0.469123
H7    H     H_    0.993179 0.179559 0.827839 0.397054
S2    S     S_3+6 0.911504 0.663925 0.251916 0.122106
O12   O     O_2   0.921202 0.597191 0.121879 -0.176650
O13   O     O_2   0.778430 0.710878 0.273706 -0.280360
O14   O     O_3   0.003436 0.786140 0.247532 -0.466210
H8    H     H_    0.971234 0.837632 0.171553 0.367737
S3    S     S_3+6 0.919764 0.685184 0.718540 0.090174
O15   O     O_2   0.885156 0.799683 0.638413 -0.252953
O16   O     O_2   0.809772 0.652499 0.802089 -0.315303
O17   O     O_3   0.041224 0.715606 0.816944 -0.419791
H9    H     H_    0.009828 0.784859 0.873194 0.374513
S4    S     S_3+6 0.078614 0.333318 0.257377 0.116428
O18   O     O_2   0.194452 0.371161 0.185858 -0.258082
O19   O     O_2   0.102081 0.206705 0.317414 -0.309316
O20   O     O_3   0.958919 0.328551 0.149154 -0.398802
H10   H     H_    0.984147 0.261264 0.087351 0.405704
S5    S     S_3+6 0.519985 0.076309 0.802280 0.119797
O21   O     O_2   0.656875 0.062825 0.838407 -0.237582
O22   O     O_2   0.469734 0.204566 0.828904 -0.258608
O23   O     O_3   0.438492 0.983053 0.899387 -0.450962
H11   H     H_    0.487099 0.980876 0.983154 0.427918
S6    S     S_3+6 0.387797 0.911775 0.239735 0.087546
O24   O     O_2   0.476814 0.831756 0.159231 -0.256535
O25   O     O_2   0.285880 0.836311 0.296272 -0.247707
O26   O     O_3   0.317198 0.024825 0.146157 -0.519683
H12   H     H_    0.227581 0.027749 0.172302 0.397773
S7    S     S_3+6 0.252822 0.920040 0.666267 0.138976
O27   O     O_2   0.147596 0.913129 0.567001 -0.212383
O28   O     O_2   0.278874 0.794977 0.729186 -0.250732
O29   O     O_3   0.209946 0.022419 0.784004 -0.408253
H13   H     H_    0.144205 0.981861 0.836285 0.371584
S8    S     S_3+6 0.721105 0.063570 0.336140 0.101230
O30   O     O_2   0.731003 0.199911 0.311452 -0.282788
O31   O     O_2   0.834336 0.016123 0.414083 -0.184702
O32   O     O_3   0.716880 0.989711 0.189749 -0.484034
H14   H     H_    0.795952 0.009826 0.144362 0.394542
S9    S     S_3+6 0.728272 0.343604 0.906323 0.118172
O33   O     O_2   0.749107 0.235793 0.000389 -0.249667
O34   O     O_2   0.715176 0.296826 0.766949 -0.237994
O35   O     O_3   0.852663 0.431048 0.916273 -0.429724
H15   H     H_    0.877810 0.440939 0.822737 0.404386
S10   S     S_3+6 0.256091 0.641219 0.070468 0.170740
O36   O     O_2   0.159829 0.575832 0.992674 -0.167065
O37   O     O_2   0.217735 0.637030 0.212900 -0.203059
O38   O     O_3   0.256546 0.787721 0.014010 -0.445030
H16   H     H_    0.172843 0.824487 0.037105 0.373372
C27   C     C_1   0.495688 0.267273 0.105525 0.551923
N3    N     N_1   0.502056 0.168719 0.149658 -0.051229
C28   C     C_1   0.554066 0.721617 0.890987 0.525355
N4    N     N_1   0.599496 0.805624 0.842618 -0.079202

loop_
_geom_bond_atom_site_label_1
_geom_bond_atom_site_label_2
_geom_bond_distance
_ccdc_geom_bond_type
S3    O15   1.500939 D    
C6    C9    1.531011 S    
C15   H3    1.103900 S    
O26   H12   0.990121 S    
C22   C26   1.550128 S    
C27   N3    1.149481 T    
O7    Zn2   2.021614 S    
C28   N4    1.151980 T    
N1    C25   1.482966 S    
S9    O33   1.500645 D    
O5    C3    1.318133 A    
O38   H16   0.989545 S    
S4    O20   1.674555 S    
O1    C1    1.308253 A    
C23   S9    1.780814 S    
C21   C23   1.514639 S    
C6    S2    1.790878 S    
S1    O11   1.682920 S    
O4    Zn1   2.047297 S    
S4    O19   1.501140 D    
C23   C26   1.524222 S    
C20   S8    1.793395 S    
C14   C20   1.542630 S    
C5    C10   1.526077 S    
O23   H11   0.984893 S    
S5    O22   1.493046 D    
S2    O13   1.502142 D    
C17   C19   1.535486 S    
S6    O24   1.500048 D    
C12   S4    1.784922 S    
C1    C18   1.466572 S    
C13   C18   1.542157 S    
C5    C11   1.550809 S    
C2    C17   1.484676 S    
C14   C17   1.531780 S    
C6    C12   1.536163 S    
C25   H5    1.100890 S    
O2    C2    1.327888 A    
C26   H6    1.102881 S    
S8    O32   1.681336 S    
C21   C25   1.533346 S    
C19   S7    1.786501 S    
S1    O10   1.495033 D    
C15   C20   1.551922 S    
S2    O14   1.680734 S    
S9    O34   1.500415 D    
C15   C17   1.539083 S    
C8    C11   1.547146 S    
C7    C12   1.542502 S    
C16   C18   1.538992 S    
C13   S5    1.782130 S    
C24   C25   1.542766 S    
S8    O31   1.503084 D    
O29   H13   0.991289 S    
O17   H9    0.990443 S    
O14   H8    0.990299 S    
C4    C9    1.450888 S    
C7    C9    1.541770 S    
S4    O18   1.499727 D    
C18   C20   1.536337 S    
S7    O27   1.501570 D    
O7    C3    1.307093 A    
S10   O37   1.488016 D    
O32   H14   0.990332 S    
O6    C4    1.310181 A    
S5    O23   1.668031 S    
S6    O26   1.682725 S    
S2    O12   1.499874 D    
S7    O28   1.501373 D    
C22   C28   1.448700 S    
O3    Zn2   2.047297 S    
O8    C4    1.317140 A    
O4    C2    1.313284 A    
O11   H7    0.990418 S    
C16   C19   1.538102 S    
C9    C11   1.530488 S    
C14   S6    1.758006 S    
C10   C12   1.531155 S    
O1    Zn1   2.056283 S    
C5    S1    1.793195 S    
C22   C24   1.525491 S    
S10   O38   1.678075 S    
S9    O35   1.665528 S    
C5    C7    1.548885 S    
O6    Zn2   2.018913 S    
C8    C10   1.538561 S    
C22   N1    1.474860 S    
S8    O30   1.502112 D    
O3    C1    1.325098 A    
O8    Zn1   2.021613 S    
C11   S3    1.788501 S    
C21   C27   1.446589 S    
C13   C15   1.548518 S    
C24   S10   1.788078 S    
C3    C10   1.447180 S    
C14   C16   1.542922 S    
S3    O16   1.495654 D    
C21   N2    1.479286 S    
C16   H4    1.106416 S    
C23   N1    1.499094 S    
C24   N2    1.512844 S    
S10   O36   1.494197 D    
N2    C26   1.489228 S    
C7    H1    1.111331 S    
C8    H2    1.107844 S    
O2    Zn2   2.056283 S    
S7    O29   1.679381 S    
Zn1   N1    2.081784 S    
Zn2   N2    2.081784 S    
O20   H10   0.990554 S    
S1    O9    1.501587 D    
O5    Zn1   2.018914 S    
O35   H15   0.982549 S    
C6    C8    1.540654 S    
S5    O21   1.501726 D    
S3    O17   1.671191 S    
S6    O25   1.496568 D    
C13   C19   1.530513 S    
