data_mof_unit_32451.cif
_audit_creation_date              2012-12-11T16:53:42-0500
_audit_creation_method            fapswitch 2.2
_symmetry_space_group_name_H-M    P1
_symmetry_Int_Tables_number       1
_space_group_crystal_system       triclinic
_cell_length_a                    14.860875
_cell_length_b                    14.786206
_cell_length_c                    16.982254
_cell_angle_alpha                 108.889143
_cell_angle_beta                  106.181772
_cell_angle_gamma                 108.21101
_cell_volume                      3039.53342774

loop_
_atom_site_label
_atom_site_type_symbol
_atom_type_description
_atom_site_fract_x
_atom_site_fract_y
_atom_site_fract_z
_atom_type_partial_charge
C1    C     C_R   0.088220 0.282182 0.069357 -0.127400
C2    C     C_R   0.029275 0.465281 0.725187 -0.061555
C3    C     C_R   0.666667 0.216082 0.743043 0.060171
C4    C     C_R   0.361194 0.561748 0.055299 0.042129
C5    C     C_R   0.218670 0.702978 0.264985 -0.092663
C6    C     C_R   0.752810 0.567954 0.977726 -0.133142
C7    C     C_R   0.891565 0.397352 0.176538 -0.140014
C8    C     C_R   0.084023 0.800808 0.004162 -0.147562
C9    C     C_R   0.913236 0.717107 0.927771 -0.133675
C10   C     C_R   0.064471 0.482064 0.253821 -0.078651
C11   C     C_R   0.220207 0.797828 0.186407 -0.141409
C12   C     C_R   0.936635 0.449525 0.735619 -0.222698
C13   C     C_R   0.743824 0.469980 0.053703 -0.112076
C14   C     C_R   0.237118 0.804489 0.273182 0.105352
C15   C     C_R   0.717476 0.547729 0.040370 0.072158
C16   C     C_R   0.973044 0.422576 0.256016 0.074674
C17   C     C_R   0.998905 0.812738 0.958270 0.073797
C18   C     C_R   0.527259 0.658434 0.049759 0.136184
C19   C     C_R   0.474160 0.600330 0.086839 0.035741
C20   C     C_R   0.529174 0.565451 0.142593 -0.192185
C21   C     C_R   0.621699 0.563374 0.139509 -0.185689
C22   C     C_R   0.657481 0.594504 0.079508 0.038767
C23   C     C_R   0.721614 0.213023 0.822163 -0.125952
C24   C     C_R   0.617338 0.654752 0.045297 0.168507
C25   C     C_3   0.587623 0.653410 0.952851 -0.539742
C26   C     C_3   0.490343 0.659295 0.958700 -0.476474
C27   C     C_R   0.964552 0.382669 0.323445 0.105108
C28   C     C_R   0.036843 0.420569 0.637593 0.148788
C29   C     C_R   0.140206 0.430589 0.550084 -0.200423
C30   C     C_R   0.134156 0.444991 0.633195 -0.141025
C31   C     C_R   0.945182 0.362115 0.555718 -0.262698
C32   C     C_R   0.950569 0.351709 0.473301 0.177667
C33   C     C_R   0.049093 0.392336 0.471719 0.193182
C34   C     C_R   0.302045 0.596053 0.005336 -0.090009
C35   C     C_R   0.055308 0.405098 0.395656 -0.255782
C36   C     C_R   0.866180 0.330860 0.321213 -0.164331
C37   C     C_R   0.859238 0.314004 0.395470 -0.218146
C38   C     C_R   0.559349 0.143192 0.673717 0.129598
C39   C     C_R   0.280854 0.903370 0.358086 0.031702
C40   C     C_R   0.408273 0.087945 0.438441 -0.136899
C41   C     C_R   0.334805 0.999739 0.357554 -0.150696
C42   C     C_R   0.286908 0.902493 0.442473 0.234285
C43   C     C_R   0.369878 0.987907 0.524032 0.081155
C44   C     C_R   0.432297 0.079102 0.520014 0.136794
C45   C     C_R   0.727642 0.311066 0.747060 -0.139537
C46   C     C_R   0.523966 0.156539 0.594903 -0.233957
C47   C     C_R   0.494470 0.057334 0.681359 -0.197191
C48   C     C_R   0.398974 0.981035 0.607439 -0.141982
C49   C     C_R   0.068323 0.129972 0.156306 0.089764
C50   C     C_R   0.996353 0.103844 0.069242 0.055780
C51   C     C_R   0.909964 0.002055 0.020802 -0.214957
C52   C     C_R   0.890126 0.935812 0.063891 -0.182545
C53   C     C_R   0.955125 0.970641 0.155848 0.036853
C54   C     C_R   0.047320 0.064861 0.198986 0.115067
C55   C     C_3   0.087708 0.157747 0.289858 0.220871
C56   C     C_R   0.295670 0.496749 0.078895 -0.118362
C57   C     C_3   0.113259 0.228954 0.244005 -0.623228
C58   C     C_R   0.110061 0.539605 0.811312 0.511928
C59   C     C_R   0.915012 0.197210 0.991228 -0.131661
C60   C     C_R   0.001321 0.185826 0.036456 0.066850
H1    H     H_    0.166072 0.307234 0.118751 0.102958
H2    H     H_    0.749586 0.626472 0.954140 0.105037
H3    H     H_    0.811590 0.338487 0.148522 0.082599
H4    H     H_    0.164628 0.854558 0.026338 0.085957
H5    H     H_    0.835354 0.693393 0.879314 0.091843
H6    H     H_    0.143380 0.502439 0.297438 0.085309
H7    H     H_    0.227775 0.861205 0.166948 0.102399
H8    H     H_    0.728900 0.434884 0.098136 0.093833
H9    H     H_    0.495254 0.527533 0.178906 0.127134
H10   H     H_    0.655761 0.524310 0.173992 0.131016
H11   H     H_    0.641503 0.726153 0.954236 0.188132
H12   H     H_    0.857844 0.398860 0.683774 0.131793
H13   H     H_    0.569389 0.576645 0.896517 0.207091
H14   H     H_    0.490046 0.736573 0.966082 0.187289
H15   H     H_    0.417942 0.586843 0.904984 0.225980
H16   H     H_    0.131669 0.441151 0.397225 0.131952
H17   H     H_    0.794456 0.309788 0.265529 0.115191
H18   H     H_    0.216306 0.457901 0.548907 0.147967
H19   H     H_    0.782983 0.280747 0.395313 0.126659
H20   H     H_    0.206193 0.480624 0.693720 0.183658
H21   H     H_    0.868916 0.335179 0.556052 0.120083
H22   H     H_    0.571893 0.221863 0.586942 0.109437
H23   H     H_    0.692107 0.157868 0.848106 0.086539
H24   H     H_    0.518777 0.046664 0.742615 0.119162
H25   H     H_    0.453916 0.159191 0.435620 0.137006
H26   H     H_    0.353279 0.913169 0.614010 0.174350
H27   H     H_    0.327986 0.006053 0.294791 0.133139
H28   H     H_    0.853914 0.976880 0.952266 0.131534
H29   H     H_    0.820572 0.860645 0.027956 0.124737
H30   H     H_    0.025630 0.161423 0.313450 0.106828
H31   H     H_    0.066391 0.274156 0.240911 0.189509
H32   H     H_    0.331730 0.663716 0.992589 0.131470
H33   H     H_    0.198279 0.277011 0.267446 0.227276
H34   H     H_    0.703885 0.349905 0.706918 0.092204
H35   H     H_    0.318414 0.468207 0.128673 0.088729
H36   H     H_    0.834129 0.145158 0.970301 0.093993
H37   H     H_    0.229680 0.678125 0.318494 0.142620
N1    N     N_R   0.055640 0.348550 0.045600 -0.042971
N2    N     N_R   0.798340 0.505430 0.954400 -0.039052
N3    N     N_R   0.931580 0.439470 0.128350 -0.036411
N4    N     N_R   0.051950 0.704140 0.002340 -0.040507
N5    N     N_R   0.944360 0.651450 0.954400 -0.035186
N6    N     N_R   0.039170 0.492150 0.176290 -0.038698
N7    N     N_R   0.188710 0.696600 0.128350 -0.046517
N8    N     N_R   0.794820 0.447010 0.002340 -0.042133
N9    N     N_R   0.960830 0.507850 0.823710 -0.064432
N10   N     N_R   0.811290 0.303400 0.871650 -0.038530
N11   N     N_R   0.205180 0.552990 0.997660 -0.050006
N12   N     N_R   0.814810 0.361830 0.823710 -0.034389
N13   N     N_R   0.201660 0.494570 0.045600 -0.044181
N14   N     N_R   0.068420 0.560530 0.871650 -0.106751
N15   N     N_R   0.948050 0.295860 0.997660 -0.040799
N16   N     N_R   0.185190 0.638170 0.176290 -0.050648
Ni1   Ni    Ni4+2 0.119330 0.493420 0.109950 0.208548
Ni2   Ni    Ni4+2 0.880670 0.506580 0.890050 0.209799
Ni3   Ni    Ni4+2 0.872590 0.372590 0.000000 0.213176
Ni4   Ni    Ni4+2 0.127410 0.627410 0.000000 0.202574
Br1   Br    Br    0.181555 0.790286 0.447060 -0.592935
Br2   Br    Br    0.210617 0.171388 0.380580 -0.571268
O1    O     O_3   0.210517 0.601878 0.827315 -0.672082
C61   C     C_3   0.223510 0.707106 0.847777 0.248401
H38   H     H_    0.249304 0.753449 0.922731 0.087872
H39   H     H_    0.150613 0.710256 0.810033 0.098499
C62   C     C_3   0.306072 0.760331 0.819827 -0.901774
H40   H     H_    0.280195 0.715936 0.744666 0.265311
H41   H     H_    0.318143 0.843602 0.837076 0.215065
H42   H     H_    0.381214 0.761573 0.856396 0.249054

loop_
_geom_bond_atom_site_label_1
_geom_bond_atom_site_label_2
_ccdc_geom_bond_type
C56   H35   S    
N4    N5    A    
N8    Ni3   S    
C3    C23   A    
C19   C20   A    
N3    Ni3   S    
C2    C12   A    
C39   C41   A    
C55   Br2   S    
C53   C54   A    
C52   C53   A    
C37   H19   S    
C23   H23   S    
C18   C24   A    
C36   C37   A    
N16   Ni1   S    
C55   H30   S    
C36   H17   S    
N2    Ni2   S    
C11   C14   A    
C45   N12   A    
N1    Ni1   S    
C49   C54   A    
C29   C33   A    
C49   C57   S    
C18   C19   A    
C61   C62   S    
N5    Ni2   S    
C33   C35   A    
C14   C39   S    
C46   H22   S    
C4    C19   S    
C15   C22   S    
C29   H18   S    
C31   C32   A    
C3    C38   S    
C44   C46   A    
C9    N5    A    
C18   C26   S    
C11   N7    A    
C25   H11   S    
C5    C14   A    
C8    N4    A    
N13   Ni1   S    
C25   H13   S    
C30   H20   S    
C16   C27   S    
C12   H12   S    
C59   C60   A    
C57   H33   S    
C21   C22   A    
C4    C56   A    
C34   N11   A    
N10   N12   A    
C52   H29   S    
C41   H27   S    
C45   H34   S    
C56   N13   A    
C11   H7    S    
C50   C51   A    
C39   C42   A    
C34   H32   S    
N9    N14   A    
C10   H6    S    
N2    N8    A    
C4    C34   A    
C35   H16   S    
N1    N15   A    
C7    N3    A    
C58   N14   A    
N6    Ni1   S    
C24   C25   S    
C13   N8    A    
C1    C60   A    
C42   Br1   S    
C27   C35   A    
C25   C26   S    
C47   H24   S    
C3    C45   A    
N3    N6    A    
C51   C52   A    
C40   H25   S    
C1    N1    A    
C43   C44   A    
C29   C30   A    
C47   C48   A    
C6    C15   A    
C23   N10   A    
C10   N6    A    
C58   O1    S    
C59   N15   A    
C38   C47   A    
C32   C37   A    
C7    H3    S    
C61   H38   S    
C8    H4    S    
C62   H42   S    
C9    C17   A    
C40   C41   A    
C5    H37   S    
C55   C57   S    
C22   C24   A    
C20   H9    S    
C59   H36   S    
N15   Ni3   S    
C61   H39   S    
O1    C61   S    
C62   H41   S    
N7    Ni4   S    
C43   C48   A    
C54   C55   S    
C7    C16   A    
C57   H31   S    
C5    N16   A    
N11   Ni4   S    
C28   C31   A    
C1    H1    S    
C51   H28   S    
C2    C58   A    
C27   C36   A    
C21   H10   S    
C8    C17   A    
C31   H21   S    
N9    Ni2   S    
N14   Ni4   S    
N4    Ni4   S    
C32   C33   A    
C6    H2    S    
C13   C15   A    
C50   C60   S    
C10   C16   A    
C6    N2    A    
C12   N9    A    
C28   C30   A    
C26   H14   S    
N11   N13   A    
C48   H26   S    
C9    H5    S    
N10   Ni3   S    
C38   C46   A    
N12   Ni2   S    
N7    N16   A    
C40   C44   A    
C20   C21   A    
C26   H15   S    
C49   C50   A    
C42   C43   A    
C2    C28   S    
C62   H40   S    
C13   H8    S    
