data_mof_unit_60622.cif
_audit_creation_date              2012-12-10T17:08:09-0500
_audit_creation_method            fapswitch 2.2
_symmetry_space_group_name_H-M    P1
_symmetry_Int_Tables_number       1
_space_group_crystal_system       triclinic
_cell_length_a                    30.257031
_cell_length_b                    30.235312
_cell_length_c                    29.326233
_cell_angle_alpha                 89.954552
_cell_angle_beta                  89.780366
_cell_angle_gamma                 90.136161
_cell_volume                      26828.2588815

loop_
_atom_site_label
_atom_site_type_symbol
_atom_type_description
_atom_site_fract_x
_atom_site_fract_y
_atom_site_fract_z
_atom_type_partial_charge
C1    C     C_R   0.499938 0.914387 0.000479 0.840642
C2    C     C_R   0.085495 0.500050 0.000528 0.845187
C3    C     C_R   0.500058 0.085611 0.000476 0.840667
C4    C     C_R   0.914502 0.499949 0.000517 0.844946
C5    C     C_R   0.999942 0.414517 0.500224 0.844939
C6    C     C_R   0.585555 0.999992 0.500122 0.842620
C7    C     C_R   0.000062 0.585571 0.500583 0.841540
C8    C     C_R   0.414527 0.999936 0.500586 0.847424
C9    C     C_R   0.572180 0.730094 0.048732 0.099819
C10   C     C_R   0.269149 0.568879 0.055884 0.101828
C11   C     C_R   0.427915 0.269849 0.049464 0.099758
C12   C     C_R   0.730479 0.430572 0.055250 0.101863
C13   C     C_R   0.422638 0.726179 0.989498 0.083109
C14   C     C_R   0.726195 0.569912 0.970714 0.080807
C15   C     C_R   0.577410 0.273819 0.988968 0.083056
C16   C     C_R   0.273904 0.429567 0.971645 0.080913
C17   C     C_R   0.076015 0.228659 0.530835 0.086920
C18   C     C_R   0.769920 0.068229 0.552441 0.098548
C19   C     C_R   0.927731 0.769291 0.551295 0.102813
C20   C     C_R   0.231012 0.931561 0.558222 0.100796
C21   C     C_R   0.926493 0.226891 0.469683 0.083020
C22   C     C_R   0.225423 0.061109 0.457653 0.089999
C23   C     C_R   0.074200 0.774554 0.481390 0.083081
C24   C     C_R   0.772720 0.922136 0.484817 0.082114
C25   C     C_R   0.573552 0.775814 0.041453 0.177133
C26   C     C_R   0.223459 0.570610 0.047885 0.177511
C27   C     C_R   0.426492 0.224148 0.042163 0.176855
C28   C     C_R   0.776270 0.429037 0.047419 0.177300
C29   C     C_R   0.422289 0.772676 0.986920 0.176231
C30   C     C_R   0.772576 0.571898 0.971697 0.183025
C31   C     C_R   0.577751 0.227324 0.986410 0.176252
C32   C     C_R   0.227508 0.427727 0.972445 0.183075
C33   C     C_R   0.075284 0.275365 0.531956 0.167634
C34   C     C_R   0.724465 0.070633 0.545159 0.177940
C35   C     C_R   0.926727 0.723497 0.543366 0.175974
C36   C     C_R   0.277025 0.930600 0.551299 0.177707
C37   C     C_R   0.925682 0.273534 0.470282 0.181264
C38   C     C_R   0.271536 0.065198 0.460803 0.174735
C39   C     C_R   0.075670 0.728090 0.481139 0.177895
C40   C     C_R   0.726238 0.922382 0.481746 0.176859
C41   C     C_R   0.535571 0.798185 0.027015 -0.017317
C42   C     C_R   0.201355 0.533924 0.029800 -0.018500
C43   C     C_R   0.464442 0.201772 0.027368 -0.017381
C44   C     C_R   0.798431 0.465847 0.029453 -0.018718
C45   C     C_R   0.462453 0.795973 0.991943 -0.019672
C46   C     C_R   0.796376 0.533869 0.984465 -0.018382
C47   C     C_R   0.537580 0.204024 0.991739 -0.019616
C48   C     C_R   0.203691 0.465857 0.984982 -0.018111
C49   C     C_R   0.035575 0.297850 0.521710 -0.016174
C50   C     C_R   0.701735 0.033798 0.528158 -0.015667
C51   C     C_R   0.964721 0.701514 0.528209 -0.019185
C52   C     C_R   0.298686 0.966500 0.530832 -0.015742
C53   C     C_R   0.964670 0.297062 0.481238 -0.018873
C54   C     C_R   0.296077 0.029918 0.479144 -0.016746
C55   C     C_R   0.036369 0.704140 0.489534 -0.019404
C56   C     C_R   0.703369 0.962445 0.488949 -0.018690
C57   C     C_R   0.499262 0.773671 0.010698 -0.042744
C58   C     C_R   0.225905 0.500316 0.008440 -0.042962
C59   C     C_R   0.500774 0.226303 0.010786 -0.042749
C60   C     C_R   0.774008 0.499358 0.007924 -0.042984
C61   C     C_R   0.000366 0.274257 0.501458 -0.042395
C62   C     C_R   0.725924 0.998050 0.509867 -0.042773
C63   C     C_R   0.000038 0.726207 0.509967 -0.043670
C64   C     C_R   0.273980 0.997274 0.505635 -0.042310
C65   C     C_R   0.531690 0.844435 0.030155 0.122631
C66   C     C_R   0.155170 0.529356 0.032805 0.117062
C67   C     C_R   0.468278 0.155504 0.030407 0.122244
C68   C     C_R   0.844561 0.470577 0.032657 0.116851
C69   C     C_R   0.466868 0.841226 0.981442 0.122698
C70   C     C_R   0.841970 0.529403 0.976112 0.116523
C71   C     C_R   0.533155 0.158793 0.981253 0.122365
C72   C     C_R   0.158216 0.470470 0.976416 0.116920
C73   C     C_R   0.030327 0.343596 0.528158 0.120460
C74   C     C_R   0.655487 0.030251 0.530934 0.120299
C75   C     C_R   0.968998 0.655315 0.531353 0.120517
C76   C     C_R   0.344661 0.972521 0.534377 0.114222
C77   C     C_R   0.969188 0.342850 0.474309 0.119480
C78   C     C_R   0.342037 0.026131 0.472573 0.112733
C79   C     C_R   0.032220 0.658705 0.479944 0.120354
C80   C     C_R   0.658230 0.967755 0.478780 0.121167
C81   C     C_R   0.499802 0.866024 0.003511 -0.174854
C82   C     C_R   0.133642 0.500170 0.002994 -0.166939
C83   C     C_R   0.500184 0.133967 0.003523 -0.174729
C84   C     C_R   0.866334 0.499806 0.002874 -0.167109
C85   C     C_R   0.999799 0.366328 0.500893 -0.169124
C86   C     C_R   0.633790 0.999806 0.502645 -0.171955
C87   C     C_R   0.000207 0.633859 0.503591 -0.171829
C88   C     C_R   0.366378 0.999644 0.502556 -0.161773
C89   C     C_R   0.413324 0.501617 0.000091 0.826672
C90   C     C_R   0.497680 0.413481 0.000199 0.832154
C91   C     C_R   0.586666 0.498266 0.999932 0.826586
C92   C     C_R   0.502328 0.586515 0.000150 0.832690
C93   C     C_R   0.913387 0.002087 0.500201 0.825561
C94   C     C_R   0.998592 0.913388 0.500143 0.819288
C95   C     C_R   0.086608 0.996939 0.499788 0.831570
C96   C     C_R   0.001044 0.086753 0.499996 0.839754
C97   C     C_R   0.499928 1.000000 0.084600 0.802374
C98   C     C_R   0.999997 0.499985 0.084610 0.805664
C99   C     C_R   0.500072 0.999999 0.915399 0.800804
C100  C     C_R   0.999996 0.500015 0.915390 0.805921
C101  C     C_R   0.999929 0.499989 0.584600 0.803652
C102  C     C_R   0.500051 0.999987 0.584609 0.806856
C103  C     C_R   0.000072 0.500009 0.415400 0.803350
C104  C     C_R   0.500014 0.000013 0.415390 0.805630
C105  C     C_1   0.499800 0.000009 0.135865 -0.120013
C106  C     C_1   0.000041 0.499956 0.135875 -0.116679
C107  C     C_1   0.500202 0.999991 0.864132 -0.127970
C108  C     C_1   0.999948 0.500040 0.864124 -0.123393
C109  C     C_1   0.999802 0.500000 0.635865 -0.119508
C110  C     C_1   0.500110 0.999966 0.635874 -0.116162
C111  C     C_1   0.000197 0.499990 0.364133 -0.123976
C112  C     C_1   0.499960 0.000038 0.364124 -0.121773
C113  C     C_1   0.499777 0.000019 0.178359 0.045406
C114  C     C_1   0.000088 0.499949 0.178367 0.046872
C115  C     C_1   0.500230 0.999983 0.821637 0.040913
C116  C     C_1   0.999900 0.500044 0.821630 0.042983
C117  C     C_1   0.999780 0.500012 0.678359 0.044531
C118  C     C_1   0.500150 0.999963 0.678366 0.047294
C119  C     C_1   0.000215 0.499974 0.321638 0.043057
C120  C     C_1   0.499903 0.000043 0.321630 0.044661
C121  C     C_1   0.499800 0.000031 0.228745 0.043553
C122  C     C_1   0.000145 0.499952 0.228753 0.043449
C123  C     C_1   0.500218 0.999973 0.771249 0.041808
C124  C     C_1   0.999843 0.500037 0.771243 0.041700
C125  C     C_1   0.999804 0.500027 0.728745 0.041952
C126  C     C_1   0.500191 0.999967 0.728751 0.043273
C127  C     C_1   0.000186 0.499959 0.271251 0.042629
C128  C     C_1   0.499840 0.000039 0.271243 0.043402
C129  C     C_R   0.468444 0.658978 0.982396 0.022777
C130  C     C_R   0.339756 0.477401 0.972381 0.020270
C131  C     C_R   0.531606 0.341040 0.982244 0.022682
C132  C     C_R   0.660395 0.522013 0.971657 0.020271
C133  C     C_R   0.538973 0.656894 0.024754 0.029971
C134  C     C_R   0.656692 0.464508 0.031129 0.021149
C135  C     C_R   0.461077 0.343062 0.025154 0.030067
C136  C     C_R   0.343075 0.535030 0.031661 0.020794
C137  C     C_R   0.973019 0.159320 0.470861 0.020649
C138  C     C_R   0.840895 0.967705 0.481099 0.023173
C139  C     C_R   0.026712 0.840141 0.476723 0.024108
C140  C     C_R   0.160317 0.013243 0.465947 0.041612
C141  C     C_R   0.031348 0.159118 0.528860 0.032181
C142  C     C_R   0.156805 0.963649 0.532131 0.025274
C143  C     C_R   0.963040 0.843331 0.529348 0.024287
C144  C     C_R   0.842453 0.037278 0.525326 0.030283
C145  C     C_R   0.503744 0.635068 0.001649 -0.122711
C146  C     C_R   0.364637 0.505263 0.000965 -0.142890
C147  C     C_R   0.496304 0.364925 0.001774 -0.122569
C148  C     C_R   0.635328 0.494326 0.000464 -0.143010
C149  C     C_R   0.001798 0.135509 0.500032 -0.130589
C150  C     C_R   0.864695 0.002682 0.501664 -0.126910
C151  C     C_R   0.995439 0.864791 0.501415 -0.126975
C152  C     C_R   0.135225 0.991235 0.499493 -0.133706
C153  C     C_R   0.537489 0.704080 0.029258 0.015252
C154  C     C_R   0.295513 0.535795 0.033188 0.013449
C155  C     C_R   0.462585 0.295875 0.029677 0.015028
C156  C     C_R   0.704250 0.463692 0.032568 0.013384
C157  C     C_R   0.463458 0.703761 0.993893 0.021719
C158  C     C_R   0.704491 0.530048 0.982950 0.007431
C159  C     C_R   0.536596 0.296238 0.993701 0.021665
C160  C     C_R   0.295583 0.469409 0.983754 0.007872
C161  C     C_R   0.036586 0.205048 0.521112 0.014384
C162  C     C_R   0.795542 0.034799 0.530566 0.015419
C163  C     C_R   0.962476 0.795753 0.531364 0.012721
C164  C     C_R   0.204480 0.962670 0.532971 0.018134
C165  C     C_R   0.966335 0.204538 0.479967 0.007018
C166  C     C_R   0.204294 0.023043 0.475752 0.007061
C167  C     C_R   0.033368 0.796026 0.488942 0.019019
C168  C     C_R   0.795715 0.962497 0.491629 0.021244
C169  C     C_R   0.500158 0.727007 0.011489 -0.010125
C170  C     C_R   0.272471 0.501887 0.008784 -0.010528
C171  C     C_R   0.499899 0.272968 0.011598 -0.010163
C172  C     C_R   0.727445 0.497650 0.008131 -0.010641
C173  C     C_R   0.000985 0.227974 0.501093 -0.008760
C174  C     C_R   0.772565 0.998473 0.510890 -0.009729
C175  C     C_R   0.998507 0.772791 0.510357 -0.011000
C176  C     C_R   0.227456 0.994470 0.505276 -0.012308
Cu1   Cu    Cu3+1 0.544460 0.000000 0.000000 1.072941
Cu2   Cu    Cu3+1 1.000000 0.544460 0.000000 1.070248
Cu3   Cu    Cu3+1 0.455540 0.000000 0.000000 1.072522
Cu4   Cu    Cu3+1 1.000000 0.455540 0.000000 1.070180
Cu5   Cu    Cu3+1 0.044460 0.500000 0.500000 1.072411
Cu6   Cu    Cu3+1 0.500000 0.044460 0.500000 1.069474
Cu7   Cu    Cu3+1 0.955540 0.500000 0.500000 1.071452
Cu8   Cu    Cu3+1 0.500000 0.955540 0.500000 1.071937
Cu9   Cu    Cu3+1 0.500000 0.500000 0.042480 0.896995
Cu10  Cu    Cu3+1 0.500000 0.500000 0.957520 0.902115
Cu11  Cu    Cu3+1 0.000000 0.000000 0.542480 0.905202
Cu12  Cu    Cu3+1 0.000000 0.000000 0.457520 0.905605
O1    O     O_R   0.537560 0.935150 0.000030 -0.555127
O2    O     O_R   0.064850 0.537560 0.000030 -0.556022
O3    O     O_R   0.462440 0.064850 0.000030 -0.555403
O4    O     O_R   0.935150 0.462440 0.000030 -0.556068
O5    O     O_R   0.462440 0.935150 0.999970 -0.553005
O6    O     O_R   0.935150 0.537560 0.999970 -0.554715
O7    O     O_R   0.537560 0.064850 0.999970 -0.552911
O8    O     O_R   0.064850 0.462440 0.999970 -0.554527
O9    O     O_R   0.037560 0.435150 0.500030 -0.554392
O10   O     O_R   0.564850 0.037560 0.500030 -0.556145
O11   O     O_R   0.962440 0.564850 0.500030 -0.555189
O12   O     O_R   0.435150 0.962440 0.500030 -0.556020
O13   O     O_R   0.962440 0.435150 0.499970 -0.555115
O14   O     O_R   0.435150 0.037560 0.499970 -0.555316
O15   O     O_R   0.037560 0.564850 0.499970 -0.553845
O16   O     O_R   0.564850 0.962440 0.499970 -0.553950
O17   O     O_R   0.537550 0.000020 0.061980 -0.550902
O18   O     O_R   0.999980 0.537550 0.061980 -0.551860
O19   O     O_R   0.462450 0.999980 0.061980 -0.551032
O20   O     O_R   0.000020 0.462450 0.061980 -0.551658
O21   O     O_R   0.462450 0.000020 0.938020 -0.551958
O22   O     O_R   0.000020 0.537550 0.938020 -0.551959
O23   O     O_R   0.537550 0.999980 0.938020 -0.551948
O24   O     O_R   0.999980 0.462450 0.938020 -0.552493
O25   O     O_R   0.037550 0.500020 0.561980 -0.551715
O26   O     O_R   0.499980 0.037550 0.561980 -0.551873
O27   O     O_R   0.962450 0.499980 0.561980 -0.551463
O28   O     O_R   0.500020 0.962450 0.561980 -0.551565
O29   O     O_R   0.962450 0.500020 0.438020 -0.551337
O30   O     O_R   0.500020 0.037550 0.438020 -0.552362
O31   O     O_R   0.037550 0.499980 0.438020 -0.552065
O32   O     O_R   0.499980 0.962450 0.438020 -0.552019
O33   O     O_R   0.435100 0.500020 0.035870 -0.597091
O34   O     O_R   0.499980 0.435100 0.035870 -0.600920
O35   O     O_R   0.564900 0.499980 0.035870 -0.597108
O36   O     O_R   0.500020 0.564900 0.035870 -0.600736
O37   O     O_R   0.564900 0.500020 0.964130 -0.589400
O38   O     O_R   0.500020 0.435100 0.964130 -0.587248
O39   O     O_R   0.435100 0.499980 0.964130 -0.589379
O40   O     O_R   0.499980 0.564900 0.964130 -0.587043
O41   O     O_R   0.935100 0.000020 0.535870 -0.596890
O42   O     O_R   0.999980 0.935100 0.535870 -0.594838
O43   O     O_R   0.064900 0.999980 0.535870 -0.589818
O44   O     O_R   0.000020 0.064900 0.535870 -0.602030
O45   O     O_R   0.064900 0.000020 0.464130 -0.590416
O46   O     O_R   0.000020 0.935100 0.464130 -0.591008
O47   O     O_R   0.935100 0.999980 0.464130 -0.589019
O48   O     O_R   0.999980 0.064900 0.464130 -0.583685
C177  C     C_3   0.442124 0.639039 0.942999 -0.378577
C178  C     C_3   0.470454 0.636638 0.899359 -0.314317
C179  C     C_3   0.448929 0.606998 0.863643 -0.810782
H1    H     H_    0.447030 0.572436 0.876360 0.258491
H2    H     H_    0.415134 0.618908 0.855622 0.260815
H3    H     H_    0.469052 0.607419 0.831906 0.247618
H4    H     H_    0.504165 0.624048 0.906393 0.235933
H5    H     H_    0.474338 0.670504 0.885042 0.225050
H6    H     H_    0.428688 0.606141 0.952858 0.201422
H7    H     H_    0.413422 0.659419 0.933391 0.224706
C180  C     C_3   0.357380 0.463106 0.925815 -0.350770
C181  C     C_3   0.362742 0.503135 0.893776 -0.329446
C182  C     C_3   0.387636 0.490515 0.850379 -0.807068
H8    H     H_    0.421583 0.479318 0.858828 0.252498
H9    H     H_    0.369925 0.463643 0.832149 0.265885
H10   H     H_    0.390063 0.519715 0.827509 0.246424
H11   H     H_    0.380545 0.530763 0.910555 0.231214
H12   H     H_    0.329466 0.515673 0.884395 0.226956
H13   H     H_    0.388589 0.444235 0.929605 0.214636
H14   H     H_    0.333949 0.440879 0.908084 0.222431
C183  C     C_3   0.557877 0.361015 0.942593 -0.378380
C184  C     C_3   0.529504 0.363402 0.899203 -0.314418
C185  C     C_3   0.550935 0.393114 0.863276 -0.811817
H15   H     H_    0.552730 0.427674 0.875936 0.258630
H16   H     H_    0.584763 0.381309 0.854995 0.260756
H17   H     H_    0.530807 0.392648 0.831704 0.247462
H18   H     H_    0.495775 0.375922 0.906527 0.235780
H19   H     H_    0.525671 0.329542 0.884944 0.224767
H20   H     H_    0.571296 0.393919 0.952293 0.201395
H21   H     H_    0.586590 0.340666 0.932756 0.224549
C186  C     C_3   0.643049 0.536110 0.925038 -0.350297
C187  C     C_3   0.637581 0.495917 0.893350 -0.330588
C188  C     C_3   0.613218 0.508489 0.849793 -0.806629
H22   H     H_    0.579305 0.520067 0.858073 0.252290
H23   H     H_    0.631357 0.535067 0.831371 0.266528
H24   H     H_    0.610726 0.479165 0.827169 0.246422
H25   H     H_    0.619335 0.468598 0.910343 0.231162
H26   H     H_    0.670813 0.482982 0.884148 0.227338
H27   H     H_    0.611923 0.555167 0.928775 0.214962
H28   H     H_    0.666707 0.558089 0.907067 0.222862
C189  C     C_3   0.581907 0.630957 0.031739 -0.356409
C190  C     C_3   0.584491 0.605872 0.077564 -0.331738
C191  C     C_3   0.631498 0.590019 0.087123 -0.760809
H29   H     H_    0.642873 0.567597 0.059602 0.252785
H30   H     H_    0.654778 0.618323 0.089375 0.291845
H31   H     H_    0.632151 0.571640 0.119915 0.238160
H32   H     H_    0.563411 0.576194 0.077446 0.247277
H33   H     H_    0.572506 0.626576 0.106183 0.245679
H34   H     H_    0.586334 0.606638 0.003669 0.173766
H35   H     H_    0.610665 0.653222 0.027315 0.248364
C192  C     C_3   0.627851 0.430673 0.055801 -0.339057
C193  C     C_3   0.616761 0.445190 0.104917 -0.311378
C194  C     C_3   0.588267 0.410604 0.129106 -0.758224
H36   H     H_    0.556485 0.406121 0.110815 0.254844
H37   H     H_    0.605776 0.378405 0.130613 0.281500
H38   H     H_    0.581060 0.421671 0.164444 0.241904
H39   H     H_    0.598752 0.477021 0.105093 0.232193
H40   H     H_    0.647215 0.451198 0.124826 0.238744
H41   H     H_    0.596500 0.424617 0.037325 0.185050
H42   H     H_    0.642543 0.397548 0.053762 0.235785
C195  C     C_3   0.418101 0.368944 0.032384 -0.356807
C196  C     C_3   0.415456 0.394104 0.078136 -0.332391
C197  C     C_3   0.368405 0.409821 0.088037 -0.760419
H43   H     H_    0.356944 0.432146 0.060531 0.252875
H44   H     H_    0.345223 0.381449 0.090597 0.292060
H45   H     H_    0.367707 0.428262 0.120762 0.238265
H46   H     H_    0.436429 0.423851 0.077718 0.247125
H47   H     H_    0.427519 0.373494 0.106726 0.245857
H48   H     H_    0.413646 0.393201 0.004261 0.173583
H49   H     H_    0.389378 0.346624 0.028275 0.248397
C198  C     C_3   0.371708 0.568994 0.056122 -0.338987
C199  C     C_3   0.382884 0.554465 0.105153 -0.311256
C200  C     C_3   0.411122 0.589211 0.129136 -0.758333
H50   H     H_    0.442874 0.593961 0.110600 0.254963
H51   H     H_    0.393378 0.621278 0.130791 0.281560
H52   H     H_    0.418403 0.578131 0.164414 0.241776
H53   H     H_    0.401111 0.522763 0.105206 0.232176
H54   H     H_    0.352469 0.548203 0.125290 0.238845
H55   H     H_    0.403017 0.575276 0.037387 0.184751
H56   H     H_    0.356783 0.602027 0.054250 0.235934
C201  C     C_3   0.955946 0.139314 0.426563 -0.363221
C202  C     C_3   0.993592 0.134162 0.391534 -0.311887
C203  C     C_3   0.979037 0.105952 0.351146 -0.796430
H57   H     H_    0.970227 0.072071 0.362797 0.251671
H58   H     H_    0.950029 0.121120 0.334153 0.261810
H59   H     H_    0.006489 0.103545 0.326042 0.246933
H60   H     H_    0.023398 0.119025 0.406909 0.240888
H61   H     H_    0.003497 0.167445 0.378894 0.226689
H62   H     H_    0.938594 0.107579 0.433378 0.208860
H63   H     H_    0.931727 0.161138 0.409679 0.224390
C204  C     C_3   0.861443 0.942439 0.441183 -0.376347
C205  C     C_3   0.864587 0.971755 0.398340 -0.316612
C206  C     C_3   0.894590 0.950927 0.362363 -0.803228
H64   H     H_    0.928781 0.947740 0.375651 0.256308
H65   H     H_    0.882013 0.917703 0.352685 0.260664
H66   H     H_    0.895426 0.972197 0.331491 0.245384
H67   H     H_    0.877192 0.005333 0.406356 0.234814
H68   H     H_    0.830971 0.975973 0.383781 0.224455
H69   H     H_    0.894134 0.928886 0.451055 0.201736
H70   H     H_    0.841287 0.913902 0.430443 0.224870
C207  C     C_3   0.046717 0.858219 0.432596 -0.365676
C208  C     C_3   0.011326 0.861806 0.395189 -0.319133
C209  C     C_3   0.027889 0.889222 0.354934 -0.817895
H71   H     H_    0.034535 0.923706 0.366001 0.257070
H72   H     H_    0.058591 0.874630 0.340605 0.261953
H73   H     H_    0.002299 0.889900 0.327907 0.247940
H74   H     H_    0.980394 0.876914 0.408280 0.231566
H75   H     H_    0.002754 0.828050 0.383025 0.225273
H76   H     H_    0.063390 0.890331 0.439053 0.204786
H77   H     H_    0.072219 0.835923 0.418340 0.221662
C210  C     C_3   0.144142 0.017298 0.416827 -0.351915
C211  C     C_3   0.136203 0.971560 0.395392 -0.341979
C212  C     C_3   0.118851 0.975819 0.346810 -0.805259
H78   H     H_    0.086472 0.993074 0.346851 0.249466
H79   H     H_    0.142667 0.994591 0.325278 0.267606
H80   H     H_    0.114417 0.942401 0.331838 0.248734
H81   H     H_    0.112218 0.951881 0.415672 0.228850
H82   H     H_    0.167864 0.952960 0.394610 0.233770
H83   H     H_    0.114390 0.038583 0.414808 0.227740
H84   H     H_    0.169631 0.033109 0.394924 0.218978
C213  C     C_3   0.052982 0.137177 0.570056 -0.351908
C214  C     C_3   0.020200 0.131579 0.609742 -0.366679
C215  C     C_3   0.041333 0.107189 0.649651 -0.787443
H85   H     H_    0.051930 0.073606 0.638889 0.251004
H86   H     H_    0.070420 0.125851 0.662433 0.264703
H87   H     H_    0.016930 0.103815 0.677823 0.246975
H88   H     H_    0.990672 0.112883 0.599140 0.246471
H89   H     H_    0.009043 0.164705 0.621484 0.228627
H90   H     H_    0.068371 0.105252 0.560173 0.216752
H91   H     H_    0.079492 0.157829 0.584488 0.226094
C216  C     C_3   0.127913 0.931819 0.559440 -0.342263
C217  C     C_3   0.118000 0.949372 0.607744 -0.303195
C218  C     C_3   0.089003 0.917004 0.634439 -0.775332
H92   H     H_    0.056839 0.912308 0.616918 0.246889
H93   H     H_    0.105723 0.884509 0.637696 0.280429
H94   H     H_    0.082610 0.930290 0.669120 0.242739
H95   H     H_    0.100772 0.981614 0.606142 0.230391
H96   H     H_    0.148911 0.955692 0.626790 0.240150
H97   H     H_    0.096071 0.925408 0.542009 0.186233
H98   H     H_    0.141753 0.898207 0.558892 0.233670
C219  C     C_3   0.926364 0.871938 0.549385 -0.348060
C220  C     C_3   0.935407 0.885182 0.599258 -0.308968
C221  C     C_3   0.897122 0.912055 0.618838 -0.753715
H99   H     H_    0.892528 0.942937 0.598882 0.255996
H100  H     H_    0.866011 0.892532 0.618005 0.282918
H101  H     H_    0.904339 0.921026 0.654756 0.241815
H102  H     H_    0.965871 0.905287 0.601914 0.230922
H103  H     H_    0.941182 0.855683 0.620817 0.239949
H104  H     H_    0.921647 0.902570 0.529155 0.177560
H105  H     H_    0.894048 0.855961 0.544751 0.238143
C222  C     C_3   0.866676 0.081480 0.530829 -0.356941
C223  C     C_3   0.893461 0.085855 0.575180 -0.333197
C224  C     C_3   0.903067 0.134407 0.586260 -0.783129
H106  H     H_    0.925613 0.148790 0.560236 0.251690
H107  H     H_    0.872365 0.154333 0.587021 0.298876
H108  H     H_    0.918830 0.136870 0.620274 0.238748
H109  H     H_    0.925494 0.069006 0.571958 0.241111
H110  H     H_    0.876211 0.069841 0.604224 0.248811
H111  H     H_    0.889427 0.086863 0.501480 0.170692
H112  H     H_    0.842710 0.108982 0.527837 0.248144
I1    I     I_    0.615194 0.710195 0.102801 -0.283361
I2    I     I_    0.287544 0.613857 0.109655 -0.268850
I3    I     I_    0.385095 0.289699 0.104010 -0.280469
I4    I     I_    0.711614 0.385005 0.108560 -0.267410
I5    I     I_    0.361931 0.691092 0.002944 -0.317234
I6    I     I_    0.688726 0.629848 0.962748 -0.349004
I7    I     I_    0.638133 0.308889 0.001844 -0.317030
I8    I     I_    0.311304 0.369506 0.964205 -0.350346
I9    I     I_    0.138821 0.195444 0.527297 -0.247466
I10   I     I_    0.789846 0.104784 0.611178 -0.289056
I11   I     I_    0.879159 0.787885 0.601649 -0.266474
I12   I     I_    0.211719 0.887385 0.612645 -0.275895
I13   I     I_    0.865235 0.190662 0.466798 -0.350382
I14   I     I_    0.186985 0.116429 0.434197 -0.272470
I15   I     I_    0.134474 0.812552 0.484341 -0.328764
I16   I     I_    0.806295 0.860385 0.496019 -0.316218
I17   I     I_    0.637549 0.806167 0.035335 -0.165500
I18   I     I_    0.192396 0.634513 0.044415 -0.158635
I19   I     I_    0.362438 0.193933 0.036580 -0.165268
I20   I     I_    0.807710 0.365299 0.043962 -0.158017
I21   I     I_    0.360397 0.807253 0.989598 -0.162837
I22   I     I_    0.805208 0.635005 0.967941 -0.162760
I23   I     I_    0.639637 0.192736 0.988668 -0.162294
I24   I     I_    0.194720 0.364721 0.968740 -0.165051
I25   I     I_    0.136695 0.311243 0.534751 -0.166228
I26   I     I_    0.695836 0.135469 0.543475 -0.168580
I27   I     I_    0.863388 0.691822 0.535760 -0.159142
I28   I     I_    0.310189 0.867624 0.552901 -0.159600
I29   I     I_    0.863199 0.307168 0.468857 -0.165176
I30   I     I_    0.301713 0.129056 0.451850 -0.151992
I31   I     I_    0.138521 0.695317 0.481964 -0.162933
I32   I     I_    0.690813 0.860709 0.480572 -0.161314
I33   I     I_    0.560538 0.879335 0.086614 -0.243010
I34   I     I_    0.119743 0.553768 0.091237 -0.255227
I35   I     I_    0.439314 0.120414 0.086962 -0.241249
I36   I     I_    0.879428 0.446268 0.091258 -0.254468
I37   I     I_    0.436354 0.868265 0.921656 -0.257439
I38   I     I_    0.871278 0.553760 0.914130 -0.262552
I39   I     I_    0.563755 0.131805 0.921290 -0.258358
I40   I     I_    0.129538 0.446127 0.914385 -0.265251
I41   I     I_    0.054298 0.375355 0.588716 -0.267564
I42   I     I_    0.620271 0.056990 0.588464 -0.246211
I43   I     I_    0.941038 0.620168 0.588383 -0.248731
I44   I     I_    0.379485 0.953164 0.594890 -0.261662
I45   I     I_    0.943717 0.373635 0.413859 -0.257161
I46   I     I_    0.372864 0.046087 0.409676 -0.265553
I47   I     I_    0.061451 0.631016 0.419567 -0.259347
I48   I     I_    0.630599 0.940289 0.417699 -0.261573

loop_
_geom_bond_atom_site_label_1
_geom_bond_atom_site_label_2
_ccdc_geom_bond_type
C201  H63   S    
C213  C214  S    
Cu8   O16   S    
C130  C146  A    
C10   C154  A    
C79   C87   A    
C207  C208  S    
C80   I48   S    
C4    O6    A    
C186  H27   S    
C202  H60   S    
C14   C158  A    
C12   C156  A    
C95   O45   A    
C72   I40   S    
C223  H110  S    
C22   C38   A    
C133  C189  S    
C154  C170  A    
C195  H48   S    
C7    O15   A    
C157  C169  A    
C101  O25   A    
C74   I42   S    
C193  H40   S    
C70   C84   A    
C71   I39   S    
C140  C152  A    
C129  C145  A    
Cu4   O8    S    
C218  H94   S    
C97   C105  S    
C143  C151  A    
C101  C109  S    
Cu9   O33   S    
C42   C58   A    
C93   C150  S    
C59   C171  A    
C32   I24   S    
C143  C163  A    
C204  H70   S    
Cu5   Cu7   S    
Cu7   O27   S    
Cu3   O19   S    
C115  C123  S    
C45   C69   A    
Cu7   O13   S    
C92   O36   A    
C183  H20   S    
C121  C128  T    
C25   C41   A    
C112  C120  T    
C94   O46   A    
C123  C126  T    
C34   I26   S    
C28   C44   A    
C3    O7    A    
C29   C45   A    
C60   C172  A    
C1    O5    A    
C205  H67   S    
C66   C82   A    
C77   I45   S    
C19   I11   S    
C4    C84   S    
C11   C27   A    
C45   C57   A    
C177  H6    S    
C139  C167  A    
C47   C71   A    
C23   C167  A    
C182  H9    S    
C188  H23   S    
C3    C83   S    
C224  H106  S    
C49   C73   A    
C133  C145  A    
C196  C197  S    
C222  C223  S    
Cu3   O5    S    
Cu1   O7    S    
C46   C60   A    
C90   O38   A    
C184  H19   S    
C2    O2    A    
C185  H16   S    
C35   I27   S    
C130  C180  S    
C98   C106  S    
C19   C35   A    
C217  H96   S    
C158  C172  A    
C101  O27   A    
Cu2   O18   S    
C211  C212  S    
C192  H41   S    
C38   I30   S    
C191  H30   S    
C46   C70   A    
C199  H53   S    
C47   C59   A    
C22   C166  A    
C195  C196  S    
Cu11  Cu12  S    
Cu3   O3    S    
Cu9   O35   S    
C187  H26   S    
C215  H85   S    
C9    I1    S    
C98   O18   A    
C95   C152  S    
C220  C221  S    
C33   C49   A    
C136  C146  A    
Cu12  O45   S    
C20   I12   S    
C203  H58   S    
C67   C83   A    
C212  H78   S    
C16   C160  A    
C163  C175  A    
C211  H82   S    
C99   O23   A    
C168  C174  A    
C182  H8    S    
C130  C160  A    
C55   C79   A    
C50   C74   A    
C89   O33   A    
C208  H74   S    
C40   I32   S    
Cu2   O22   S    
C111  C119  T    
C183  C184  S    
C122  C127  T    
Cu4   O24   S    
C144  C150  A    
C53   C61   A    
C17   I9    S    
Cu10  O39   S    
C223  C224  S    
Cu1   Cu3   S    
C55   C63   A    
C224  H108  S    
C80   C86   A    
C222  H111  S    
C131  C147  A    
C210  H84   S    
C64   C176  A    
C36   C52   A    
C43   C59   A    
C16   I8    S    
C5    C85   S    
C180  H14   S    
C77   C85   A    
Cu7   O29   S    
C189  C190  S    
C15   I7    S    
C206  H65   S    
Cu5   O15   S    
C48   C72   A    
C137  C201  S    
C13   C157  A    
C71   C83   A    
C200  H51   S    
C39   C55   A    
C100  C108  S    
C104  C112  S    
C181  H11   S    
C221  H101  S    
C5    O9    A    
C76   I44   S    
C189  H34   S    
C178  H4    S    
C156  C172  A    
C97   O19   A    
C216  H98   S    
C8    C88   S    
Cu11  O41   S    
C90   C147  S    
C18   C34   A    
Cu8   O32   S    
C194  H36   S    
C68   I36   S    
Cu10  O40   S    
C179  H2    S    
C19   C163  A    
C131  C159  A    
C73   C85   A    
Cu12  O47   S    
C17   C161  A    
C207  H77   S    
C75   C87   A    
C212  H80   S    
C135  C147  A    
C190  H32   S    
C8    O12   A    
C198  H55   S    
C36   I28   S    
C94   O42   A    
C167  C175  A    
C99   O21   A    
C102  O28   A    
C182  H10   S    
C30   C46   A    
C70   I38   S    
C205  C206  S    
C52   C76   A    
C186  C187  S    
C15   C31   A    
C78   I46   S    
C118  C126  S    
C16   C32   A    
C56   C80   A    
C202  H61   S    
C210  H83   S    
C184  C185  S    
Cu11  O43   S    
C132  C186  S    
Cu10  O37   S    
C54   C64   A    
C139  C151  A    
C215  H87   S    
C2    O8    A    
C196  H46   S    
C197  H45   S    
Cu6   Cu8   S    
C29   I21   S    
C209  H73   S    
C113  C121  S    
C43   C67   A    
C190  C191  S    
Cu5   O25   S    
C117  C125  S    
C12   I4    S    
C218  H93   S    
C1    O1    A    
C4    O4    A    
C179  H1    S    
C219  H105  S    
C98   O20   A    
C204  H69   S    
C138  C150  A    
C9    C25   A    
C221  H99   S    
Cu2   O6    S    
C26   C42   A    
C159  C171  A    
C12   C28   A    
C13   C29   A    
C95   O43   A    
C135  C195  S    
C142  C164  A    
Cu2   O2    S    
Cu8   O28   S    
C1    C81   S    
C20   C164  A    
C194  H38   S    
C21   C165  A    
C103  C111  S    
C22   I14   S    
C142  C152  A    
C220  H102  S    
C217  C218  S    
C205  H68   S    
C222  H112  S    
C65   I33   S    
C102  O26   A    
C134  C156  A    
C184  H18   S    
C40   C56   A    
Cu5   O31   S    
C191  H29   S    
C14   I6    S    
C144  C162  A    
Cu5   O9    S    
C31   C47   A    
C188  H22   S    
C139  C207  S    
C32   C48   A    
C17   C33   A    
C26   I18   S    
C140  C166  A    
C186  H28   S    
C213  H91   S    
C49   C61   A    
C198  C199  S    
C68   C84   A    
C51   C63   A    
C52   C64   A    
C67   I35   S    
C210  C211  S    
C94   C151  S    
C18   I10   S    
C11   I3    S    
C132  C158  A    
C24   I16   S    
C109  C117  T    
C53   C77   A    
C197  H43   S    
C6    O16   A    
C23   I15   S    
C161  C173  A    
C65   C81   A    
C192  C193  S    
C38   C54   A    
C134  C192  S    
C193  H39   S    
C104  O30   A    
C199  H54   S    
Cu11  O44   S    
Cu9   O34   S    
C2    C82   S    
C91   O35   A    
C137  C165  A    
C28   I20   S    
Cu12  O46   S    
C181  C182  S    
C78   C88   A    
C178  C179  S    
C39   I31   S    
C116  C124  S    
C24   C168  A    
Cu6   O14   S    
C183  H21   S    
C6    C86   S    
Cu2   Cu4   S    
C120  C128  S    
C48   C58   A    
C99   C107  S    
C108  C116  T    
C223  H109  S    
C41   C57   A    
C204  C205  S    
C25   I17   S    
C18   C162  A    
Cu9   Cu10  S    
C44   C60   A    
C208  H75   S    
C96   C149  S    
C100  O22   A    
Cu1   O17   S    
C177  H7    S    
C164  C176  A    
C7    C87   S    
C129  C177  S    
C69   C81   A    
C141  C213  S    
C203  H57   S    
C20   C36   A    
C27   C43   A    
C21   C37   A    
C187  C188  S    
C92   O40   A    
C188  H24   S    
C153  C169  A    
C224  H107  S    
C144  C222  S    
C97   O17   A    
C103  O31   A    
C54   C78   A    
C180  H13   S    
C141  C161  A    
C73   I41   S    
C206  H64   S    
C216  C217  S    
Cu6   O10   S    
C185  H17   S    
C129  C157  A    
C141  C149  A    
C200  H50   S    
C93   O47   A    
C15   C159  A    
C106  C114  T    
C133  C153  A    
C138  C168  A    
C58   C170  A    
C51   C75   A    
C90   O34   A    
C213  H90   S    
C217  H95   S    
C181  H12   S    
C221  H100  S    
C30   I22   S    
C165  C173  A    
C62   C174  A    
C178  H5    S    
C135  C155  A    
C192  H42   S    
C216  H97   S    
C191  H31   S    
C104  O32   A    
C24   C40   A    
C131  C183  S    
Cu11  O42   S    
C33   I25   S    
C209  H71   S    
Cu9   O36   S    
C187  H25   S    
C105  C113  T    
C76   C88   A    
C140  C210  S    
Cu12  O48   S    
C207  H76   S    
C10   C26   A    
C203  H59   S    
C75   I43   S    
C212  H79   S    
C190  H33   S    
C91   O37   A    
C7    O11   A    
C137  C149  A    
C136  C154  A    
C214  C215  S    
C14   C30   A    
C91   C148  S    
C211  H81   S    
C57   C169  A    
C89   C146  S    
C34   C50   A    
Cu1   O1    S    
C132  C148  A    
C61   C173  A    
Cu4   O4    S    
C6    O10   A    
C21   I13   S    
C66   I34   S    
C5    O13   A    
C41   C65   A    
Cu8   O12   S    
C89   O39   A    
C100  O24   A    
Cu7   O11   S    
C202  C203  S    
C3    O3    A    
Cu10  O38   S    
C13   I5    S    
C79   I47   S    
C138  C204  S    
C96   O48   A    
C214  H88   S    
C215  H86   S    
C196  H47   S    
C74   C86   A    
C214  H89   S    
C110  C118  T    
C197  H44   S    
C31   I23   S    
C107  C115  T    
C219  C220  S    
C103  O29   A    
C201  H62   S    
C209  H72   S    
Cu6   O30   S    
C37   I29   S    
C142  C216  S    
C50   C62   A    
C206  H66   S    
C44   C68   A    
C185  H15   S    
C195  H49   S    
C199  C200  S    
C42   C66   A    
C218  H92   S    
C10   I2    S    
C200  H52   S    
C93   O41   A    
C69   I37   S    
C92   C145  S    
C219  H104  S    
C180  C181  S    
C63   C175  A    
C162  C174  A    
C11   C155  A    
C134  C148  A    
C189  H35   S    
Cu3   O21   S    
C166  C176  A    
C193  C194  S    
Cu1   O23   S    
C8    O14   A    
C37   C53   A    
Cu4   O20   S    
C35   C51   A    
C136  C198  S    
C23   C39   A    
C194  H37   S    
C179  H3    S    
C56   C62   A    
C96   O44   A    
C220  H103  S    
C201  C202  S    
C102  C110  S    
C9    C153  A    
C114  C122  S    
C155  C171  A    
C208  C209  S    
Cu6   O26   S    
C160  C170  A    
C198  H56   S    
C143  C219  S    
C177  C178  S    
C27   I19   S    
C72   C82   A    
C119  C127  S    
C124  C125  T    
