data_mof_unit_19418.cif
_audit_creation_date              2013-03-05T15:40:29-0500
_audit_creation_method            fapswitch 2.2
_symmetry_space_group_name_H-M    P1
_symmetry_Int_Tables_number       1
_space_group_crystal_system       triclinic
_cell_length_a                    18.986893
_cell_length_b                    10.988108
_cell_length_c                    18.785272
_cell_angle_alpha                 90.234121
_cell_angle_beta                  90.127966
_cell_angle_gamma                 89.951745
_cell_volume                      3919.12802355

loop_
_atom_site_label
_atom_site_type_symbol
_atom_site_description
_atom_site_fract_x
_atom_site_fract_y
_atom_site_fract_z
_atom_type_partial_charge
O1    O     O_R   0.215090 0.709860 0.828130 -0.474781
O2    O     O_R   0.784910 0.709860 0.171870 -0.473263
O3    O     O_R   0.715090 0.209860 0.828130 -0.474885
O4    O     O_R   0.284910 0.209860 0.171870 -0.494459
O5    O     O_R   0.236990 0.958390 0.823710 -0.445638
O6    O     O_R   0.763010 0.958390 0.176290 -0.433621
O7    O     O_R   0.736990 0.458390 0.823710 -0.431788
O8    O     O_R   0.263010 0.458390 0.176290 -0.435719
C1    C     C_R   0.271864 0.043469 0.853087 0.558684
C2    C     C_R   0.728097 0.042916 0.146797 0.563360
C3    C     C_R   0.771834 0.543291 0.853155 0.563761
C4    C     C_R   0.229029 0.546825 0.148745 0.569472
O9    O     O_R   0.332380 0.074750 0.830850 -0.520513
O10   O     O_R   0.667620 0.074750 0.169150 -0.512958
O11   O     O_R   0.832380 0.574750 0.830850 -0.516481
O12   O     O_R   0.167620 0.574750 0.169150 -0.520295
O13   O     O_R   0.445800 0.917770 0.825070 -0.515174
O14   O     O_R   0.554200 0.917770 0.174930 -0.510748
O15   O     O_R   0.945800 0.417770 0.825070 -0.511624
O16   O     O_R   0.054200 0.417770 0.174930 -0.511095
C5    C     C_R   0.471935 0.822801 0.852849 0.534616
C6    C     C_R   0.528950 0.821612 0.146543 0.546649
C7    C     C_R   0.971407 0.322328 0.853253 0.545430
C8    C     C_R   0.028265 0.322033 0.147045 0.540103
O17   O     O_R   0.456410 0.716580 0.829970 -0.508825
O18   O     O_R   0.543590 0.716580 0.170030 -0.496111
O19   O     O_R   0.956410 0.216580 0.829970 -0.503773
O20   O     O_R   0.043590 0.216580 0.170030 -0.509122
O21   O     O_R   0.321080 0.625290 0.822650 -0.489876
O22   O     O_R   0.678920 0.625290 0.177350 -0.505579
O23   O     O_R   0.821080 0.125290 0.822650 -0.503616
O24   O     O_R   0.178920 0.125290 0.177350 -0.499287
C9    C     C_R   0.272751 0.679696 0.859683 0.565220
C10   C     C_R   0.738949 0.636344 0.148414 0.553597
C11   C     C_R   0.761101 0.136844 0.851609 0.553969
C12   C     C_R   0.238888 0.136495 0.148370 0.552356
O25   O     O_R   0.214930 0.711450 0.668160 -0.510115
O26   O     O_R   0.785070 0.711450 0.331840 -0.517376
O27   O     O_R   0.714930 0.211450 0.668160 -0.513739
O28   O     O_R   0.285070 0.211450 0.331840 -0.517574
O29   O     O_R   0.236850 0.959870 0.675420 -0.504664
O30   O     O_R   0.763150 0.959870 0.324580 -0.494844
O31   O     O_R   0.736850 0.459870 0.675420 -0.491868
O32   O     O_R   0.263150 0.459870 0.324580 -0.503015
C13   C     C_R   0.271035 0.047876 0.649551 0.554758
C14   C     C_R   0.726275 0.042776 0.353623 0.548817
C15   C     C_R   0.773844 0.542125 0.646245 0.549878
C16   C     C_R   0.229073 0.548406 0.350304 0.554785
O33   O     O_R   0.332230 0.076350 0.670880 -0.511061
O34   O     O_R   0.667770 0.076350 0.329120 -0.515189
O35   O     O_R   0.832230 0.576350 0.670880 -0.515736
O36   O     O_R   0.167770 0.576350 0.329120 -0.514529
O37   O     O_R   0.445660 0.919250 0.676780 -0.496154
O38   O     O_R   0.554340 0.919250 0.323220 -0.509644
O39   O     O_R   0.945660 0.419250 0.676780 -0.503877
O40   O     O_R   0.054340 0.419250 0.323220 -0.502872
C17   C     C_R   0.467842 0.823099 0.646145 0.551779
C18   C     C_R   0.527791 0.824721 0.350670 0.553139
C19   C     C_R   0.967728 0.323099 0.646080 0.551032
C20   C     C_R   0.027728 0.324723 0.350638 0.555396
O41   O     O_R   0.456260 0.718170 0.670000 -0.507883
O42   O     O_R   0.543740 0.718170 0.330000 -0.502375
O43   O     O_R   0.956260 0.218170 0.670000 -0.504951
O44   O     O_R   0.043740 0.218170 0.330000 -0.507506
O45   O     O_R   0.320940 0.626760 0.674370 -0.500673
O46   O     O_R   0.679060 0.626760 0.325630 -0.499818
O47   O     O_R   0.820940 0.126760 0.674370 -0.508444
O48   O     O_R   0.179060 0.126760 0.325630 -0.496189
C21   C     C_R   0.261689 0.641946 0.643827 0.552289
C22   C     C_R   0.740086 0.634336 0.352577 0.549645
C23   C     C_R   0.759984 0.134181 0.647328 0.546736
C24   C     C_R   0.238468 0.141802 0.355951 0.548216
Cr1   Cr    Cr6+3 0.230530 0.836340 0.748870 1.085296
Cr2   Cr    Cr6+3 0.769470 0.836340 0.251130 1.087813
Cr3   Cr    Cr6+3 0.730530 0.336340 0.748870 1.094181
Cr4   Cr    Cr6+3 0.269470 0.336340 0.251130 1.081538
Cr5   Cr    Cr6+3 0.387420 0.989430 0.750820 1.019535
Cr6   Cr    Cr6+3 0.612580 0.989430 0.249180 1.028880
Cr7   Cr    Cr6+3 0.887420 0.489430 0.750820 1.027967
Cr8   Cr    Cr6+3 0.112580 0.489430 0.249180 1.024205
Cr9   Cr    Cr6+3 0.385640 0.677860 0.749230 1.046272
Cr10  Cr    Cr6+3 0.614360 0.677860 0.250770 1.053544
Cr11  Cr    Cr6+3 0.885640 0.177860 0.749230 1.044270
Cr12  Cr    Cr6+3 0.114360 0.177860 0.250770 1.043556
O49   O     O_3   0.334530 0.834540 0.749640 -0.282551
O50   O     O_3   0.665470 0.834540 0.250360 -0.266055
O51   O     O_3   0.834530 0.334540 0.749640 -0.267290
O52   O     O_3   0.165470 0.334540 0.250360 -0.261693
H1    H     H_    0.514809 0.637848 0.932519 0.206883
H2    H     H_    0.517772 0.632945 0.057915 0.201417
H3    H     H_    0.999703 0.133779 0.936913 0.191529
H4    H     H_    0.001653 0.133048 0.062181 0.187428
C25   C     C_R   0.503316 0.827996 0.073265 0.005120
C26   C     C_R   0.502101 0.833582 0.924357 -0.011238
C27   C     C_R   0.999833 0.330014 0.074846 -0.000253
C28   C     C_R   0.998905 0.330955 0.925885 0.000852
C29   C     C_R   0.493170 0.940515 0.038296 0.016193
C30   C     C_R   0.499552 0.944899 0.963289 0.016214
C31   C     C_R   0.995183 0.442679 0.038460 0.016148
C32   C     C_R   0.001449 0.443415 0.963376 0.015853
C33   C     C_R   0.511488 0.724024 0.960455 -0.154455
C34   C     C_R   0.510348 0.720885 0.033197 -0.131162
C35   C     C_R   0.000802 0.221397 0.963553 -0.143364
C36   C     C_R   0.999288 0.220892 0.036275 -0.145958
C37   C     C_R   0.477256 0.048632 0.075917 -0.102137
C38   C     C_R   0.502554 0.060147 0.930074 -0.083564
C39   C     C_R   0.985207 0.554472 0.074641 -0.093605
C40   C     C_R   0.009495 0.556391 0.928486 -0.087615
C41   C     C_R   0.989779 0.664593 0.038544 -0.067454
C42   C     C_R   0.002909 0.665577 0.965811 -0.065895
C43   C     C_R   0.476166 0.160364 0.041338 -0.095017
C44   C     C_R   0.490580 0.166553 0.968916 -0.070515
H5    H     H_    0.464362 0.047706 0.131954 0.135555
H6    H     H_    0.515984 0.069701 0.874501 0.143507
H7    H     H_    0.972355 0.558010 0.130646 0.136688
H8    H     H_    0.022578 0.561853 0.872633 0.143948
H9    H     H_    0.983943 0.749447 0.067356 0.191192
H10   H     H_    0.007208 0.751213 0.937955 0.190124
H11   H     H_    0.465393 0.242348 0.071346 0.193306
H12   H     H_    0.491845 0.253952 0.942577 0.190084
C45   C     C_2   0.264500 0.636305 0.932173 -0.127823
C46   C     C_2   0.749240 0.583001 0.078173 -0.131168
C47   C     C_2   0.750716 0.084146 0.921686 -0.131327
C48   C     C_2   0.248841 0.083776 0.077965 -0.142251
C49   C     C_2   0.255352 0.610394 0.085903 -0.109133
C50   C     C_2   0.747675 0.590568 0.921731 -0.112449
C51   C     C_2   0.752405 0.090414 0.078547 -0.112775
C52   C     C_2   0.247816 0.091801 0.921423 -0.106794
C53   C     C_2   0.314137 0.581085 0.049403 0.181523
C54   C     C_2   0.697343 0.534863 0.960823 0.171535
C55   C     C_2   0.801532 0.033192 0.038443 0.178046
C56   C     C_2   0.197067 0.037584 0.960486 0.175471
C57   C     C_2   0.320851 0.620465 0.974516 -0.151930
C58   C     C_2   0.692631 0.558762 0.037509 -0.137789
C59   C     C_2   0.807179 0.060094 0.962426 -0.137240
C60   C     C_2   0.192062 0.062627 0.036949 -0.135103
H13   H     H_    0.373369 0.632298 0.952982 0.173207
H14   H     H_    0.640172 0.558638 0.060394 0.172188
H15   H     H_    0.859932 0.060987 0.940092 0.171391
H16   H     H_    0.139350 0.065595 0.059326 0.173626
H17   H     H_    0.218976 0.676532 0.063612 0.105734
H18   H     H_    0.780428 0.660416 0.946040 0.116547
H19   H     H_    0.720962 0.162917 0.055347 0.109249
H20   H     H_    0.280831 0.161419 0.945640 0.091289
H21   H     H_    0.211321 0.621351 0.951398 0.135707
H22   H     H_    0.802117 0.580740 0.056210 0.125596
H23   H     H_    0.697769 0.081314 0.943474 0.124557
H24   H     H_    0.301781 0.079179 0.056261 0.107178
C61   C     C_2   0.486045 0.828714 0.571581 -0.092810
C62   C     C_2   0.488005 0.839825 0.415617 -0.108809
C63   C     C_2   0.985766 0.328783 0.571475 -0.101512
C64   C     C_2   0.987683 0.339823 0.415464 -0.107074
C65   C     C_2   0.468098 0.742226 0.452067 -0.160871
C66   C     C_2   0.453559 0.749207 0.527654 -0.147794
C67   C     C_2   0.967926 0.242204 0.451995 -0.163130
C68   C     C_2   0.953281 0.249265 0.527571 -0.152972
H25   H     H_    0.468019 0.652191 0.427903 0.156811
H26   H     H_    0.418680 0.679478 0.548447 0.155728
H27   H     H_    0.968193 0.152074 0.427959 0.156575
H28   H     H_    0.918469 0.179462 0.548405 0.154285
H29   H     H_    0.483995 0.930580 0.438490 0.104496
H30   H     H_    0.520877 0.899781 0.552609 0.086691
H31   H     H_    0.983305 0.430632 0.438207 0.101984
H32   H     H_    0.020456 0.399981 0.552437 0.094883
C69   C     C_2   0.254989 0.612459 0.569209 -0.103720
C70   C     C_2   0.753702 0.566797 0.416886 -0.105077
C71   C     C_2   0.746542 0.066503 0.582789 -0.108965
C72   C     C_2   0.245686 0.111348 0.430245 -0.089743
C73   C     C_2   0.256928 0.604303 0.413971 -0.105255
C74   C     C_2   0.761829 0.568844 0.572124 -0.091050
C75   C     C_2   0.738188 0.070076 0.427752 -0.088293
C76   C     C_2   0.243627 0.102567 0.585575 -0.105729
C77   C     C_2   0.217294 0.681323 0.451035 -0.164068
C78   C     C_2   0.817712 0.560534 0.528290 -0.149011
C79   C     C_2   0.682409 0.060440 0.471543 -0.148618
C80   C     C_2   0.283513 0.179214 0.548895 -0.165258
C81   C     C_2   0.229514 0.700325 0.526298 -0.152637
C82   C     C_2   0.813077 0.586115 0.452913 -0.163881
C83   C     C_2   0.687005 0.085441 0.547046 -0.164934
C84   C     C_2   0.271660 0.198459 0.473700 -0.149949
H33   H     H_    0.170599 0.722995 0.428069 0.155170
H34   H     H_    0.870262 0.542768 0.548949 0.157103
H35   H     H_    0.629968 0.041675 0.450841 0.152303
H36   H     H_    0.329972 0.221164 0.572295 0.156092
H37   H     H_    0.211392 0.786866 0.547804 0.154712
H38   H     H_    0.857731 0.631790 0.428746 0.154265
H39   H     H_    0.642189 0.130519 0.571590 0.156017
H40   H     H_    0.290096 0.284879 0.452779 0.152691
H41   H     H_    0.305766 0.568478 0.435823 0.098030
H42   H     H_    0.708693 0.585995 0.553227 0.096554
H43   H     H_    0.791220 0.088280 0.446690 0.087569
H44   H     H_    0.195022 0.066362 0.563356 0.106409
H45   H     H_    0.273721 0.525303 0.549457 0.085903
H46   H     H_    0.710827 0.514455 0.439692 0.112021
H47   H     H_    0.789619 0.014743 0.559562 0.105517
H48   H     H_    0.226659 0.024337 0.449427 0.088156
N1    N     N_R   0.371338 0.514409 0.081043 0.091217
O53   O     O_R   0.412631 0.449969 0.040576 -0.386888
O54   O     O_R   0.391547 0.539278 0.145734 -0.334861
N2    N     N_R   0.645687 0.454726 0.929859 0.098895
O55   O     O_R   0.625023 0.359566 0.965077 -0.365882
O56   O     O_R   0.609367 0.489469 0.874710 -0.346422
N3    N     N_R   0.849952 0.945950 0.067373 0.100287
O57   O     O_R   0.862460 0.845998 0.032313 -0.385636
O58   O     O_R   0.891671 0.977006 0.119415 -0.351678
N4    N     N_R   0.145629 0.957109 0.929780 0.094547
O59   O     O_R   0.126328 0.860891 0.964757 -0.388773
O60   O     O_R   0.108128 0.992383 0.875556 -0.344309

loop_
_geom_bond_atom_site_label_1
_geom_bond_atom_site_label_2
_geom_bond_distance
_ccdc_geom_bond_type
C14   C75   1.440687 S    
C18   O42   1.268639 A    
Cr11  O51   1.975563 S    
N3    O57   1.300294 A    
O4    C12   1.266833 A    
C57   H13   1.085028 S    
C33   C34   1.367263 A    
O39   C19   1.272687 A    
O20   Cr12  2.069351 S    
C39   C41   1.392350 A    
O29   C13   1.264467 A    
C71   C83   1.330163 D    
C43   C44   1.390277 A    
C73   H41   1.087349 S    
C60   H16   1.086796 S    
C78   H34   1.087566 S    
O29   Cr1   1.943434 S    
Cr7   O51   1.976876 S    
C29   C30   1.415507 A    
C41   H9    1.081912 S    
C38   C44   1.394429 A    
C76   H44   1.087062 S    
O7    C3    1.268523 A    
C55   N3    1.435290 S    
N3    O58   1.301491 A    
C38   H6    1.080736 S    
O24   C12   1.269447 A    
C37   H5    1.081391 S    
C12   C48   1.454351 S    
C66   H26   1.087499 S    
O25   C21   1.256277 A    
C22   C70   1.443119 S    
C20   C64   1.445987 S    
C56   N4    1.436418 S    
C27   C31   1.419173 A    
C83   H39   1.086818 S    
C5    C26   1.463534 S    
C26   C30   1.423410 A    
C81   H37   1.087559 S    
O21   C9    1.296884 A    
O8    Cr4   1.950506 S    
O23   Cr11  1.937455 S    
C7    C28   1.462553 S    
N1    O54   1.301571 A    
O30   C14   1.270550 A    
O32   Cr4   1.935402 S    
C1    O9    1.271555 A    
C46   C58   1.343444 D    
O25   Cr1   2.061885 S    
C84   H40   1.087625 S    
C3    O11   1.273015 A    
O11   Cr7   2.055490 S    
C4    O12   1.265308 A    
C26   C33   1.395197 A    
C49   H17   1.086689 S    
N2    O55   1.300952 A    
C62   C65   1.330288 D    
C17   C61   1.445028 S    
C70   C82   1.330348 D    
C7    O19   1.272167 A    
O3    Cr3   2.062484 S    
C78   C82   1.447209 S    
O47   C23   1.265604 A    
O2    Cr2   2.053936 S    
C56   C60   1.464660 S    
C29   C37   1.412657 A    
Cr9   O49   1.975563 S    
O2    C10   1.266804 A    
C46   H22   1.086522 S    
O42   Cr10  2.052268 S    
C77   H33   1.086768 S    
C10   C46   1.455156 S    
C23   C71   1.442076 S    
C9    C45   1.453480 S    
C24   C72   1.442719 S    
C42   H10   1.081793 S    
C54   C58   1.466167 S    
C54   N2    1.438877 S    
C52   C56   1.352602 D    
C14   O34   1.257117 A    
O6    Cr2   1.950506 S    
C67   C68   1.449057 S    
C51   C55   1.353224 D    
O31   Cr3   1.943434 S    
O24   Cr12  1.933478 S    
O9    Cr5   2.055490 S    
C32   C40   1.414704 A    
C1    C52   1.461191 S    
O30   Cr2   1.935402 S    
O22   C10   1.269958 A    
C67   H27   1.086763 S    
O48   Cr12  1.949237 S    
C70   H46   1.086920 S    
C68   H28   1.087576 S    
C3    C50   1.461704 S    
C2    O10   1.271804 A    
C8    C27   1.461582 S    
C44   H12   1.082419 S    
O16   Cr8   1.944161 S    
N4    O59   1.300467 A    
C48   C60   1.343561 D    
O7    Cr3   1.942734 S    
C4    C49   1.463297 S    
O26   Cr2   2.069784 S    
O27   C23   1.266237 A    
Cr10  O50   1.977043 S    
C75   C79   1.346980 D    
C50   H18   1.086729 S    
O13   C5    1.268825 A    
Cr4   O52   1.974771 S    
O28   Cr4   2.069784 S    
C47   C59   1.342529 D    
O48   C24   1.273096 A    
O12   Cr8   2.061886 S    
Cr12  O52   1.977043 S    
O22   Cr10  1.933478 S    
O15   C7    1.272412 A    
C61   C66   1.348099 D    
O5    C1    1.269696 A    
C15   O35   1.257583 A    
O46   Cr10  1.949237 S    
O39   Cr7   1.936134 S    
O3    C11   1.265479 A    
H4    C36   1.083610 S    
O45   Cr9   1.946521 S    
C31   C32   1.415798 A    
C64   C67   1.330439 D    
C13   O33   1.267263 A    
C69   C81   1.348978 D    
O8    C4    1.276648 A    
Cr1   O49   1.974742 S    
O13   Cr5   1.948014 S    
C75   H43   1.085634 S    
C51   H19   1.087159 S    
C63   C68   1.347890 D    
Cr2   O50   1.974771 S    
O15   Cr7   1.948014 S    
C52   H20   1.087088 S    
O35   Cr7   2.066001 S    
C39   H7    1.081071 S    
C53   C57   1.479319 S    
C43   H11   1.080363 S    
Cr3   O51   1.974742 S    
O26   C22   1.266732 A    
C47   H23   1.086786 S    
O21   Cr9   1.937455 S    
O28   C24   1.256779 A    
O27   Cr3   2.061885 S    
C72   H48   1.085558 S    
O37   Cr5   1.936134 S    
C6    C25   1.460967 S    
O23   C11   1.269211 A    
C19   O43   1.258477 A    
C2    C51   1.462096 S    
C13   C76   1.441830 S    
C25   C29   1.415243 A    
O34   Cr6   2.061133 S    
C15   C74   1.441787 S    
O47   Cr11  1.946521 S    
C27   C36   1.398458 A    
O14   Cr6   1.944161 S    
O38   C18   1.267005 A    
C80   H36   1.086793 S    
C62   H29   1.086919 S    
C5    O17   1.276643 A    
O37   C17   1.272855 A    
C48   H24   1.086610 S    
H1    C33   1.082598 S    
O14   C6    1.275028 A    
C79   H35   1.087708 S    
C71   H47   1.087020 S    
C37   C43   1.391436 A    
O5    Cr1   1.942734 S    
C8    O20   1.271499 A    
C80   C84   1.446251 S    
H3    C35   1.083425 S    
O17   Cr9   2.067263 S    
C69   H45   1.085558 S    
C25   C34   1.400902 A    
C58   H14   1.085732 S    
C79   C83   1.446063 S    
C40   C42   1.392815 A    
C17   O41   1.258419 A    
C74   C78   1.347340 D    
C19   C63   1.445070 S    
C31   C39   1.414262 A    
C74   H42   1.085360 S    
C55   C59   1.463644 S    
C30   C38   1.415264 A    
O44   Cr12  2.052268 S    
C20   O44   1.268759 A    
C59   H15   1.086870 S    
O1    Cr1   2.062484 S    
C40   H8    1.080664 S    
H2    C34   1.082758 S    
C11   C47   1.454199 S    
O40   Cr8   1.941394 S    
C65   C66   1.448818 S    
Cr8   O52   1.975575 S    
O32   C16   1.262957 A    
C72   C84   1.348478 D    
C41   C42   1.389495 A    
C73   C77   1.328050 D    
Cr6   O50   1.975575 S    
O46   C22   1.266089 A    
O45   C21   1.272888 A    
C28   C32   1.420631 A    
O19   Cr11  2.067263 S    
O33   Cr5   2.066001 S    
C45   H21   1.085972 S    
O10   Cr6   2.061886 S    
C65   H25   1.086795 S    
N1    O53   1.300484 A    
C21   C69   1.442747 S    
O4    Cr4   2.053936 S    
C64   H31   1.087028 S    
O6    C2    1.269065 A    
O1    C9    1.287579 A    
Cr5   O49   1.976876 S    
C16   C73   1.441909 S    
C82   H38   1.086789 S    
C49   C53   1.349314 D    
C16   O36   1.267191 A    
O40   C20   1.267224 A    
O18   Cr10  2.069351 S    
C63   H32   1.085345 S    
C6    O18   1.267659 A    
C28   C35   1.399270 A    
O43   Cr11  2.055379 S    
C35   C36   1.366509 A    
C50   C54   1.354622 D    
O41   Cr9   2.055379 S    
C61   H30   1.085539 S    
C45   C57   1.343409 D    
C77   C81   1.446576 S    
O36   Cr8   2.061133 S    
N4    O60   1.301661 A    
O31   C15   1.271798 A    
O16   C8    1.272294 A    
N2    O56   1.301600 A    
C53   N1    1.438363 S    
C18   C62   1.445321 S    
C76   C80   1.328806 D    
O38   Cr6   1.941394 S    
