data_mof_unit_15411.cif
_audit_creation_date              2013-03-05T16:48:16-0500
_audit_creation_method            fapswitch 2.2
_symmetry_space_group_name_H-M    P1
_symmetry_Int_Tables_number       1
_space_group_crystal_system       triclinic
_cell_length_a                    23.51691
_cell_length_b                    8.929171
_cell_length_c                    8.089472
_cell_angle_alpha                 90.06546
_cell_angle_beta                  89.999876
_cell_angle_gamma                 90.000034
_cell_volume                      1698.67889071

loop_
_atom_site_label
_atom_site_type_symbol
_atom_site_description
_atom_site_fract_x
_atom_site_fract_y
_atom_site_fract_z
_atom_type_partial_charge
O1    O     O_R   0.500000 0.285350 0.636850 -0.607152
O2    O     O_R   0.500000 0.714650 0.363150 -0.607154
O3    O     O_R   0.500000 0.714650 0.636850 -0.611145
O4    O     O_R   0.500000 0.285350 0.363150 -0.611150
H1    H     H_    0.947739 0.126384 0.428740 0.191476
H2    H     H_    0.050990 0.874243 0.566623 0.191925
H3    H     H_    0.947730 0.873632 0.571338 0.191480
H4    H     H_    0.050999 0.125789 0.433462 0.191932
C1    C     C_R   0.500029 0.217936 0.499941 0.939975
C2    C     C_R   0.500029 0.782064 0.500059 0.939974
O5    O     O_R   0.416160 0.500000 0.636910 -0.575403
O6    O     O_R   0.583840 0.500000 0.363090 -0.582161
O7    O     O_R   0.583840 0.500000 0.636910 -0.582162
O8    O     O_R   0.416160 0.500000 0.363090 -0.575402
C3    C     C_R   0.207419 0.500030 0.500019 0.151782
C4    C     C_R   0.791490 0.499999 0.500016 0.154063
C5    C     C_R   0.388876 0.500003 0.500000 0.951990
C6    C     C_R   0.610889 0.499999 0.500000 0.969615
Zn1   Zn    Zn3+2 0.500000 0.500000 0.682780 1.109486
Zn2   Zn    Zn3+2 0.500000 0.500000 0.317220 1.109484
H5    H     H_    0.213699 0.598862 0.741843 0.197205
H6    H     H_    0.785317 0.352557 0.709411 0.196915
H7    H     H_    0.213689 0.401201 0.258192 0.197198
H8    H     H_    0.785322 0.647440 0.290619 0.196914
C7    C     C_R   0.295970 0.558993 0.636678 0.347179
C8    C     C_R   0.703012 0.414991 0.618439 0.336448
C9    C     C_R   0.295965 0.441052 0.363334 0.347183
C10   C     C_R   0.703015 0.585001 0.381570 0.336448
C11   C     C_R   0.326451 0.500016 0.500003 -0.257367
C12   C     C_R   0.672898 0.499996 0.500001 -0.242448
C13   C     C_R   0.880344 0.631728 0.527444 0.531181
C14   C     C_R   0.118345 0.367055 0.481469 0.529543
C15   C     C_R   0.880347 0.368280 0.472617 0.531178
C16   C     C_R   0.118342 0.632990 0.518604 0.529544
N1    N     N_R   0.852109 0.500003 0.500026 -0.342977
N2    N     N_R   0.146686 0.500025 0.500032 -0.341039
C17   C     C_R   0.939696 0.365186 0.474027 -0.022409
C18   C     C_R   0.058997 0.635303 0.522439 -0.021824
C19   C     C_R   0.939693 0.634830 0.526048 -0.022412
C20   C     C_R   0.059000 0.364731 0.477642 -0.021825
C21   C     C_R   0.969480 0.500010 0.500039 -0.017940
C22   C     C_R   0.029212 0.500015 0.500041 -0.017983
C23   C     C_R   0.969772 0.231195 0.449612 -0.154187
C24   C     C_R   0.028932 0.769200 0.547659 -0.154009
C25   C     C_R   0.969765 0.768825 0.550468 -0.154183
C26   C     C_R   0.028938 0.230829 0.452424 -0.154005
C27   C     C_1   0.500052 0.065185 0.499916 -0.114024
C28   C     C_1   0.500052 0.934815 0.500084 -0.114023
C29   C     C_R   0.236952 0.555849 0.636328 -0.115526
C30   C     C_R   0.762042 0.416891 0.618293 -0.111360
C31   C     C_R   0.236947 0.444209 0.363700 -0.115540
C32   C     C_R   0.762045 0.583105 0.381731 -0.111370
N3    N     N_1   0.500000 0.500000 0.073640 0.027411
N4    N     N_1   0.500000 0.500000 0.926360 0.027413
O9    O     O_2   0.850960 0.758831 0.557138 -0.511758
O10   O     O_2   0.147586 0.237465 0.468334 -0.513161
O11   O     O_2   0.850966 0.241172 0.442918 -0.511764
O12   O     O_2   0.147580 0.762585 0.531737 -0.513167
Cl1   Cl    Cl    0.328618 0.644515 0.809233 -0.497394
Cl2   Cl    Cl    0.669098 0.298760 0.764561 -0.511065
Cl3   Cl    Cl    0.328606 0.355530 0.190766 -0.497389
Cl4   Cl    Cl    0.669104 0.701230 0.235439 -0.511062

loop_
_geom_bond_atom_site_label_1
_geom_bond_atom_site_label_2
_geom_bond_distance
_ccdc_geom_bond_type
H8    C32   1.083443 S    
C10   Cl4   1.764443 S    
C18   C24   1.403708 A    
C6    C12   1.458251 S    
C3    C31   1.394783 A    
C9    C11   1.418522 A    
C5    C11   1.468036 S    
C21   C22   1.404703 A    
H7    C31   1.083684 S    
C27   C28   1.164105 T    
C19   C25   1.403624 A    
H6    C30   1.083444 S    
O3    Zn1   1.952744 S    
O6    Zn2   2.006272 S    
H5    C29   1.083688 S    
H1    C23   1.082816 S    
C19   C21   1.408403 A    
O3    C2    1.260298 A    
H2    C24   1.082613 S    
N3    N4    1.191417 T    
C3    C29   1.394775 A    
C20   C26   1.403709 A    
C10   C32   1.388314 A    
O8    C5    1.279971 A    
O5    Zn1   2.006274 S    
O7    C6    1.277210 A    
C17   C21   1.408403 A    
H3    C25   1.082815 S    
Zn1   N4    1.970434 S    
C10   C12   1.413247 A    
C15   N1    1.368559 A    
C9    C31   1.388199 A    
C8    C12   1.413248 A    
C16   N2    1.369688 A    
C8    C30   1.388312 A    
C4    N1    1.425560 S    
C2    C28   1.363941 S    
C4    C30   1.395478 A    
C23   C26   1.391598 A    
C13   N1    1.368557 A    
C17   C23   1.403625 A    
O1    Zn1   1.951911 S    
C1    C27   1.363941 S    
O7    Zn1   2.006270 S    
O2    Zn2   1.951910 S    
O4    Zn2   1.952744 S    
C18   C22   1.407925 A    
C14   N2    1.369687 A    
C3    N2    1.428269 S    
C14   C20   1.396117 A    
O1    C1    1.259929 A    
C24   C25   1.391600 A    
O8    Zn2   2.006273 S    
Zn2   N3    1.970434 S    
O6    C6    1.277214 A    
C16   O12   1.350116 S    
C20   C22   1.407924 A    
O5    C5    1.279967 A    
C15   O11   1.350054 S    
C7    Cl1   1.765979 S    
H4    C26   1.082613 S    
C13   O9    1.350055 S    
O4    C1    1.260298 A    
C16   C18   1.396120 A    
C8    Cl2   1.764438 S    
C14   O10   1.350118 S    
O2    C2    1.259929 A    
C15   C17   1.396025 A    
C4    C32   1.395484 A    
C13   C19   1.396028 A    
C7    C11   1.418534 A    
C7    C29   1.388198 A    
C9    Cl3   1.765989 S    
