data_mof_unit_46673.cif
_audit_creation_date              2013-03-05T15:40:13-0500
_audit_creation_method            fapswitch 2.2
_symmetry_space_group_name_H-M    P1
_symmetry_Int_Tables_number       1
_space_group_crystal_system       triclinic
_cell_length_a                    12.262641
_cell_length_b                    12.345875
_cell_length_c                    23.438965
_cell_angle_alpha                 90.612394
_cell_angle_beta                  90.98862
_cell_angle_gamma                 89.07824
_cell_volume                      3547.31630317

loop_
_atom_site_label
_atom_site_type_symbol
_atom_site_description
_atom_site_fract_x
_atom_site_fract_y
_atom_site_fract_z
_atom_type_partial_charge
O1    O     O_R   0.907020 0.615090 0.941240 -0.544787
O2    O     O_R   0.092980 0.384910 0.058760 -0.594907
O3    O     O_R   0.384910 0.907020 0.441240 -0.544477
O4    O     O_R   0.615090 0.092980 0.558760 -0.541850
O5    O     O_R   0.092980 0.384910 0.941240 -0.543851
O6    O     O_R   0.907020 0.615090 0.058760 -0.581643
O7    O     O_R   0.615090 0.092980 0.441240 -0.590175
O8    O     O_R   0.384910 0.907020 0.558760 -0.595848
O9    O     O_R   0.907020 0.384910 0.058760 -0.538135
O10   O     O_R   0.092980 0.615090 0.941240 -0.588256
O11   O     O_R   0.384910 0.092980 0.558760 -0.538892
O12   O     O_R   0.615090 0.907020 0.441240 -0.547334
O13   O     O_R   0.092980 0.615090 0.058760 -0.578267
O14   O     O_R   0.907020 0.384910 0.941240 -0.623631
O15   O     O_R   0.615090 0.907020 0.558760 -0.588192
O16   O     O_R   0.384910 0.092980 0.441240 -0.590963
C1    C     C_3   0.994662 0.001915 0.250093 0.054762
C2    C     C_3   0.015754 0.981650 0.749921 0.084271
C3    C     C_R   0.994526 0.102588 0.208130 -0.173863
C4    C     C_R   0.008737 0.876614 0.787511 -0.134447
C5    C     C_R   0.925804 0.983693 0.699821 -0.205126
C6    C     C_R   0.096424 0.001874 0.292899 -0.186000
C7    C     C_R   0.995787 0.900629 0.207998 -0.191632
C8    C     C_R   0.002612 0.080306 0.796405 -0.214832
C9    C     C_R   0.123289 0.981037 0.713769 -0.169873
C10   C     C_R   0.894173 0.000889 0.291573 -0.173951
Cu1   Cu    Cu3+1 0.889520 0.500000 0.000000 1.033694
Cu2   Cu    Cu3+1 0.110480 0.500000 0.000000 1.022905
Cu3   Cu    Cu3+1 0.500000 0.889520 0.500000 1.030109
Cu4   Cu    Cu3+1 0.500000 0.110480 0.500000 1.031094
C11   C     C_R   0.998658 0.647835 0.921710 0.928970
C12   C     C_R   0.000812 0.349652 0.077802 0.879756
C13   C     C_R   0.350312 0.000667 0.421929 0.911006
C14   C     C_R   0.653059 0.999450 0.577637 0.828790
C15   C     C_R   0.999925 0.351112 0.920417 0.878973
C16   C     C_R   0.000128 0.648720 0.078787 0.941366
C17   C     C_R   0.648858 0.999457 0.421822 0.842190
C18   C     C_R   0.347771 0.001099 0.576426 0.902638
C19   C     C_R   0.078107 0.185692 0.207938 0.376367
C20   C     C_R   0.910801 0.861969 0.820696 0.173796
C21   C     C_R   0.910667 0.075203 0.662850 0.261904
C22   C     C_R   0.187109 0.923874 0.291366 0.386425
C23   C     C_R   0.913520 0.816476 0.206289 0.365920
C24   C     C_R   0.077413 0.089008 0.845063 0.236935
C25   C     C_R   0.139306 0.895840 0.671121 0.238902
C26   C     C_R   0.807642 0.083070 0.293284 0.358624
C27   C     C_R   0.098795 0.799897 0.801218 0.319465
C28   C     C_R   0.916934 0.105408 0.160301 0.295233
C29   C     C_R   0.894308 0.920584 0.336812 0.270281
C30   C     C_R   0.200851 0.068154 0.712875 0.371996
C31   C     C_R   0.916201 0.163287 0.796484 0.313545
C32   C     C_R   0.075180 0.896972 0.162515 0.307141
C33   C     C_R   0.096128 0.076932 0.341470 0.306546
C34   C     C_R   0.866985 0.889336 0.681538 0.297613
C35   C     C_R   0.083740 0.258833 0.162412 0.379292
C36   C     C_R   0.921883 0.809005 0.873084 0.396654
C37   C     C_R   0.823519 0.079418 0.622381 0.379549
C38   C     C_R   0.274855 0.933165 0.330337 0.374719
C39   C     C_R   0.918144 0.733591 0.164611 0.383627
C40   C     C_R   0.077366 0.178655 0.882614 0.360966
C41   C     C_R   0.184126 0.926996 0.619440 0.362836
C42   C     C_R   0.730457 0.082115 0.337090 0.345063
C43   C     C_R   0.069834 0.707621 0.831470 0.366291
C44   C     C_R   0.918146 0.187843 0.119914 0.414504
C45   C     C_R   0.813384 0.920410 0.377865 0.414113
C46   C     C_R   0.281437 0.067519 0.670641 0.357530
C47   C     C_R   0.921641 0.255572 0.833433 0.376560
C48   C     C_R   0.079618 0.810718 0.123629 0.382442
C49   C     C_R   0.182261 0.078677 0.381036 0.385638
C50   C     C_R   0.770018 0.899489 0.648884 0.383049
C51   C     C_R   0.001301 0.263903 0.120687 -0.327493
C52   C     C_R   0.996427 0.723140 0.875165 -0.195010
C53   C     C_R   0.747143 0.995375 0.618797 -0.344795
C54   C     C_R   0.267999 0.004339 0.376659 -0.305777
C55   C     C_R   0.000643 0.730981 0.124081 -0.308332
C56   C     C_R   0.000829 0.262178 0.877047 -0.330446
C57   C     C_R   0.267564 0.002163 0.621707 -0.227725
C58   C     C_R   0.731222 0.999357 0.377529 -0.321924
O17   O     O_3   0.166881 0.333653 0.161885 -0.527648
C59   C     C_3   0.257993 0.287126 0.134048 -0.060186
H1    H     H_    0.235451 0.243248 0.093875 0.142172
H2    H     H_    0.304351 0.231701 0.162661 0.224543
H3    H     H_    0.313549 0.353109 0.122474 0.163300
O18   O     O_3   0.841682 0.816983 0.914097 -0.528164
C60   C     C_3   0.822070 0.926672 0.928653 -0.212846
H4    H     H_    0.772565 0.967979 0.894979 0.213920
H5    H     H_    0.899240 0.970957 0.936992 0.122089
H6    H     H_    0.774481 0.929801 0.968470 0.201949
O19   O     O_3   0.811306 0.170462 0.588704 -0.506505
C61   C     C_3   0.859991 0.150167 0.535368 -0.110262
H7    H     H_    0.803706 0.105160 0.506644 0.117883
H8    H     H_    0.939404 0.105410 0.538753 0.178388
H9    H     H_    0.875824 0.228955 0.515036 0.216779
O20   O     O_3   0.363175 0.862131 0.326502 -0.528807
C62   C     C_3   0.449805 0.916386 0.300708 -0.074132
H10   H     H_    0.478898 0.985258 0.327512 0.121363
H11   H     H_    0.426253 0.945787 0.257418 0.211867
H12   H     H_    0.519324 0.858595 0.295862 0.209601
O21   O     O_3   0.841108 0.652204 0.163879 -0.528209
C63   C     C_3   0.744099 0.688247 0.135759 -0.054095
H13   H     H_    0.756939 0.752321 0.103462 0.161852
H14   H     H_    0.683566 0.717229 0.167230 0.208829
H15   H     H_    0.707455 0.618162 0.112950 0.158667
O22   O     O_3   0.160141 0.186525 0.923581 -0.510264
C64   C     C_3   0.129317 0.136926 0.974765 -0.096833
H16   H     H_    0.200807 0.091575 0.992434 0.242598
H17   H     H_    0.061094 0.079093 0.970009 0.125174
H18   H     H_    0.106505 0.199966 0.006318 0.122668
O23   O     O_3   0.149345 0.884706 0.567100 -0.588537
C65   C     C_3   0.178997 0.774342 0.560791 -0.103198
H19   H     H_    0.118960 0.721858 0.580988 0.231730
H20   H     H_    0.262273 0.754963 0.577470 0.189875
H21   H     H_    0.178158 0.753927 0.514582 0.184464
O24   O     O_3   0.648639 0.161117 0.338717 -0.552138
C66   C     C_3   0.689191 0.256197 0.365263 -0.044626
H22   H     H_    0.725486 0.309888 0.333409 0.223990
H23   H     H_    0.749437 0.239798 0.400445 0.152273
H24   H     H_    0.619655 0.301492 0.384260 0.156569
O25   O     O_3   0.089157 0.602658 0.811484 -0.547920
C67   C     C_3   0.201199 0.576573 0.810462 -0.026624
H25   H     H_    0.239680 0.585540 0.853500 0.162026
H26   H     H_    0.243924 0.624010 0.777964 0.216900
H27   H     H_    0.210317 0.489998 0.798011 0.202929
O26   O     O_3   0.832360 0.194841 0.080594 -0.490848
C68   C     C_3   0.862692 0.145966 0.028381 -0.215542
H28   H     H_    0.787414 0.122961 0.004682 0.185330
H29   H     H_    0.913920 0.071569 0.033718 0.176397
H30   H     H_    0.905848 0.204179 0.001665 0.115184
O27   O     O_3   0.815718 0.839178 0.418425 -0.509603
C69   C     C_3   0.867490 0.876637 0.469138 -0.146336
H31   H     H_    0.932076 0.937283 0.462120 0.187887
H32   H     H_    0.906838 0.806456 0.490871 0.209866
H33   H     H_    0.806167 0.911321 0.498488 0.100360
O28   O     O_3   0.365480 0.140934 0.674061 -0.537292
C70   C     C_3   0.458987 0.087511 0.696775 -0.049674
H34   H     H_    0.443884 0.054218 0.739813 0.214949
H35   H     H_    0.525556 0.146945 0.701324 0.214799
H36   H     H_    0.488153 0.021473 0.667977 0.117438
O29   O     O_3   0.854903 0.345304 0.822530 -0.509663
C71   C     C_3   0.755409 0.339485 0.851951 -0.034098
H37   H     H_    0.754420 0.277039 0.886023 0.117671
H38   H     H_    0.687885 0.324513 0.820908 0.214858
H39   H     H_    0.738209 0.419429 0.872218 0.169997
O30   O     O_3   0.150389 0.815208 0.078104 -0.536482
C72   C     C_3   0.253503 0.771820 0.094365 -0.055616
H40   H     H_    0.248542 0.701359 0.123536 0.161351
H41   H     H_    0.305210 0.835389 0.113884 0.217268
H42   H     H_    0.295204 0.742667 0.055349 0.162563
O31   O     O_3   0.174919 0.144534 0.429281 -0.544598
C73   C     C_3   0.213124 0.249189 0.417132 -0.046605
H43   H     H_    0.144009 0.303932 0.405605 0.220503
H44   H     H_    0.275748 0.250401 0.383158 0.159408
H45   H     H_    0.251544 0.282967 0.456506 0.163353
O32   O     O_3   0.691376 0.819945 0.652366 -0.526149
C74   C     C_3   0.713413 0.732010 0.614882 -0.016719
H46   H     H_    0.753219 0.664503 0.638570 0.223932
H47   H     H_    0.762852 0.753866 0.577335 0.127396
H48   H     H_    0.634604 0.701029 0.598083 0.157389
N1    N     N_R   0.160199 0.200926 0.251778 0.116886
O33   O     O_R   0.165650 0.295434 0.276746 -0.270692
O34   O     O_R   0.249411 0.142750 0.250714 -0.398375
N2    N     N_R   0.802495 0.854557 0.795940 0.169299
O35   O     O_R   0.746720 0.767047 0.803509 -0.236323
O36   O     O_R   0.751020 0.937359 0.775045 -0.309929
N3    N     N_R   0.987460 0.161472 0.661451 0.151387
O37   O     O_R   0.956587 0.258120 0.677594 -0.188387
O38   O     O_R   0.064177 0.154532 0.623952 -0.378884
N4    N     N_R   0.189036 0.826545 0.256849 0.126313
O39   O     O_R   0.274569 0.803549 0.226671 -0.346011
O40   O     O_R   0.127165 0.746571 0.270022 -0.287234
N5    N     N_R   0.815926 0.818470 0.239805 0.097422
O41   O     O_R   0.788561 0.731669 0.266814 -0.263280
O42   O     O_R   0.738562 0.888032 0.227743 -0.374975
N6    N     N_R   0.150810 0.004456 0.862277 0.152260
O43   O     O_R   0.115580 0.936839 0.899664 -0.423719
O44   O     O_R   0.254642 0.024956 0.864091 -0.182923
N7    N     N_R   0.181079 0.790731 0.688484 0.111093
O45   O     O_R   0.285701 0.771061 0.686114 -0.350282
O46   O     O_R   0.117947 0.708114 0.693002 -0.278396
N8    N     N_R   0.794570 0.170971 0.253559 0.123055
O47   O     O_R   0.698692 0.188590 0.230442 -0.245347
O48   O     O_R   0.859376 0.253066 0.257056 -0.334785
N9    N     N_R   0.214644 0.824897 0.808953 0.160323
O49   O     O_R   0.267576 0.786077 0.853120 -0.312247
O50   O     O_R   0.268330 0.890515 0.777684 -0.311009
N10   N     N_R   0.838054 0.022501 0.148711 0.142489
O51   O     O_R   0.735175 0.047228 0.153243 -0.217847
O52   O     O_R   0.862333 0.949514 0.110392 -0.447884
N11   N     N_R   0.978571 0.839240 0.344493 0.146729
O53   O     O_R   0.052990 0.856625 0.383609 -0.390552
O54   O     O_R   0.954413 0.738644 0.334423 -0.199262
N12   N     N_R   0.201826 0.157140 0.752742 0.138181
O55   O     O_R   0.287938 0.171386 0.784936 -0.281484
O56   O     O_R   0.139306 0.241025 0.742921 -0.288080
N13   N     N_R   0.809892 0.147338 0.771645 0.133129
O57   O     O_R   0.733928 0.123116 0.807228 -0.376529
O58   O     O_R   0.779049 0.207669 0.729045 -0.287528
N14   N     N_R   0.145901 0.985258 0.150370 0.106384
O59   O     O_R   0.241753 0.989807 0.174496 -0.339606
O60   O     O_R   0.130409 0.036822 0.102710 -0.433878
N15   N     N_R   0.004712 0.145637 0.355882 0.105441
O61   O     O_R   0.952399 0.124780 0.402230 -0.442777
O62   O     O_R   0.000270 0.244377 0.337609 -0.287113
N16   N     N_R   0.916620 0.783949 0.681454 0.128858
O63   O     O_R   0.892091 0.714023 0.720052 -0.259602
O64   O     O_R   0.948352 0.746530 0.632272 -0.398002

loop_
_geom_bond_atom_site_label_1
_geom_bond_atom_site_label_2
_geom_bond_distance
_ccdc_geom_bond_type
C70   H36   1.111495 S    
N5    O41   1.301992 A    
N3    O37   1.300381 A    
C9    C25   1.456657 A    
O12   Cu3   2.004645 S    
C74   H47   1.115180 S    
C2    C5    1.597281 S    
C39   O21   1.389940 S    
N15   O61   1.301293 A    
C62   H10   1.111570 S    
C71   H39   1.109512 S    
C33   C49   1.393772 A    
C22   C38   1.404688 A    
O24   C66   1.415924 S    
C7    C32   1.455939 A    
C62   H12   1.109378 S    
C7    C23   1.459510 A    
C70   H34   1.112930 S    
C60   H4    1.110693 S    
N8    O47   1.302128 A    
C48   C55   1.392239 A    
C28   N10   1.440114 S    
C64   H17   1.111935 S    
O9    Cu1   1.995916 S    
C1    C7    1.584583 S    
C37   O19   1.385059 S    
C26   C42   1.408687 A    
C2    C8    1.633382 S    
O8    Cu3   1.996561 S    
C24   N6    1.424355 S    
N2    O35   1.303286 A    
N9    O50   1.293569 A    
C27   C43   1.402051 A    
C5    C34   1.437569 A    
C4    C20   1.456793 A    
C28   C44   1.397742 A    
C29   N11   1.439683 S    
O3    C13   1.307801 A    
O16   Cu4   1.967672 S    
C66   H22   1.107460 S    
O1    C11   1.293083 A    
C35   O17   1.387019 S    
O2    C12   1.305167 A    
C44   C51   1.397022 A    
C37   C53   1.409770 A    
O12   C17   1.309124 A    
O3    Cu3   1.965918 S    
N6    O43   1.300674 A    
O9    C12   1.296850 A    
C46   O28   1.384088 S    
O10   C11   1.296698 A    
C19   C35   1.408542 A    
N1    O33   1.301876 A    
O11   Cu4   2.004644 S    
C41   C57   1.392296 A    
C20   C36   1.400827 A    
C73   H45   1.109365 S    
C21   N3    1.433978 S    
C68   H30   1.105451 S    
N1    O34   1.299438 A    
O13   Cu2   1.980002 S    
C36   O18   1.388717 S    
N14   O59   1.297301 A    
O14   Cu1   1.980005 S    
C6    C33   1.460224 A    
C30   N12   1.434706 S    
O15   C14   1.309166 A    
C32   C48   1.395274 A    
C67   H27   1.109367 S    
C25   N7    1.447303 S    
C8    C31   1.462006 A    
N4    O40   1.297896 A    
C41   O23   1.391046 S    
N7    O46   1.296713 A    
N3    O38   1.299710 A    
O7    Cu4   1.996562 S    
C74   H48   1.109434 S    
N16   O63   1.299494 A    
N15   O62   1.296408 A    
C29   C45   1.394176 A    
O20   C62   1.412943 S    
C2    C9    1.579576 S    
O8    C18   1.306576 A    
C59   H3    1.109169 S    
O22   C64   1.412777 S    
C72   H41   1.107079 S    
C67   H26   1.109443 S    
O15   Cu3   1.967670 S    
C12   C51   1.467479 S    
N2    O36   1.289413 A    
C60   H5    1.113824 S    
C64   H18   1.103985 S    
O4    C14   1.316220 A    
C15   C56   1.488357 S    
C26   N8    1.442635 S    
C71   H37   1.116291 S    
O13   C16   1.299320 A    
C27   N9    1.466384 S    
C10   C29   1.459330 A    
O14   C15   1.307580 A    
C23   N5    1.442585 S    
C3    C28   1.458185 A    
O30   C72   1.413138 S    
C36   C52   1.389290 A    
C44   O26   1.388811 S    
C40   C56   1.388778 A    
C63   H15   1.109384 S    
C33   N15   1.437553 S    
C65   H19   1.104502 S    
N12   O56   1.298749 A    
C35   C51   1.395532 A    
O11   C18   1.303373 A    
C69   H32   1.109294 S    
N9    O49   1.303884 A    
C20   N2    1.444017 S    
Cu3   Cu4   2.727943 S    
C9    C30   1.447728 A    
C16   C55   1.461316 S    
O16   C13   1.296788 A    
O5    Cu2   1.979809 S    
C43   O25   1.391333 S    
C61   H8    1.113947 S    
O6    Cu1   1.979806 S    
C34   C50   1.407578 A    
O25   C67   1.406670 S    
C66   H24   1.109282 S    
C50   C53   1.406313 A    
C63   H14   1.108077 S    
O7    C17   1.300637 A    
C40   O22   1.388998 S    
C49   C54   1.388833 A    
C31   C47   1.425462 A    
O18   C60   1.410881 S    
C30   C46   1.410628 A    
C65   H21   1.109306 S    
O32   C74   1.414889 S    
C3    C19   1.461932 A    
N10   O51   1.299070 A    
C5    C21   1.438891 A    
C59   H2    1.106933 S    
C11   C52   1.440524 S    
N16   O64   1.300776 A    
C68   H28   1.108467 S    
C8    C24   1.455359 A    
C73   H44   1.116141 S    
O17   C59   1.414390 S    
C22   N4    1.441506 S    
C69   H33   1.106015 S    
C32   N14   1.437606 S    
C1    C10   1.583038 S    
N10   O52   1.300237 A    
C39   C55   1.399426 A    
C72   H40   1.115256 S    
Cu1   Cu2   2.709552 S    
C72   H42   1.109284 S    
C47   O29   1.389962 S    
C67   H25   1.111482 S    
C38   C54   1.392256 A    
C61   H9    1.109120 S    
C68   H29   1.111339 S    
O27   C69   1.414742 S    
C17   C58   1.460834 S    
C60   H6    1.109212 S    
O10   Cu2   1.995916 S    
C70   H35   1.109384 S    
C46   C57   1.404773 A    
C66   H23   1.115578 S    
N4    O39   1.301054 A    
C45   C58   1.390475 A    
N8    O48   1.298998 A    
C19   N1    1.439073 S    
C50   O32   1.391383 S    
C42   C58   1.400888 A    
C71   H38   1.109255 S    
C59   H1    1.114185 S    
C45   O27   1.388855 S    
O29   C71   1.414985 S    
C62   H11   1.113158 S    
C42   O24   1.388673 S    
O28   C70   1.412578 S    
C18   C57   1.459216 S    
C23   C39   1.408304 A    
N5    O42   1.298923 A    
C64   H16   1.109127 S    
C1    C6    1.587654 S    
O21   C63   1.417644 S    
C49   O31   1.389031 S    
N12   O55   1.300394 A    
N14   O60   1.301266 A    
C69   H31   1.114054 S    
C38   O20   1.386095 S    
C21   C37   1.417329 A    
C31   N13   1.434151 S    
O31   C73   1.414895 S    
C61   H7    1.107579 S    
C6    C22   1.459939 A    
C24   C40   1.406701 A    
C34   N16   1.427511 S    
O5    C15   1.306201 A    
C25   C41   1.398956 A    
C63   H13   1.115580 S    
C1    C3    1.593167 S    
N6    O44   1.302044 A    
O6    C16   1.299590 A    
C48   O30   1.389093 S    
C2    C4    1.579828 S    
N11   O53   1.301030 A    
C65   H20   1.110518 S    
C4    C27   1.476650 A    
C10   C26   1.457014 A    
C14   C53   1.491680 S    
N13   O57   1.301489 A    
C13   C54   1.452369 S    
C43   C52   1.384927 A    
N7    O45   1.303898 A    
C74   H46   1.108422 S    
O1    Cu1   2.005917 S    
C73   H43   1.107095 S    
O2    Cu2   2.005916 S    
C47   C56   1.400394 A    
N11   O54   1.299633 A    
O19   C61   1.412903 S    
O23   C65   1.411451 S    
O4    Cu4   1.965916 S    
O26   C68   1.411700 S    
N13   O58   1.299482 A    
