data_mof_unit_56416.cif
_audit_creation_date              2012-12-10T17:04:34-0500
_audit_creation_method            fapswitch 2.2
_symmetry_space_group_name_H-M    P1
_symmetry_Int_Tables_number       1
_space_group_crystal_system       triclinic
_cell_length_a                    14.990929
_cell_length_b                    10.605844
_cell_length_c                    10.043814
_cell_angle_alpha                 88.444316
_cell_angle_beta                  88.907801
_cell_angle_gamma                 90.614897
_cell_volume                      1595.90088718

loop_
_atom_site_label
_atom_site_type_symbol
_atom_type_description
_atom_site_fract_x
_atom_site_fract_y
_atom_site_fract_z
_atom_type_partial_charge
C1    C     C_R   0.492028 0.262449 0.501848 0.953210
C2    C     C_R   0.183487 0.466797 0.616115 -0.235234
C3    C     C_R   0.231346 0.509753 0.503811 -0.071705
C4    C     C_R   0.326852 0.501341 0.501160 0.865559
C5    C     C_R   0.188626 0.563623 0.394717 -0.244098
C6    C     C_2   0.425123 0.928821 0.432107 0.217653
C7    C     C_2   0.494538 0.870933 0.489861 -0.333025
C8    C     C_2   0.432191 0.065684 0.411140 0.208490
C9    C     C_2   0.468704 0.131002 0.510068 -0.400592
C10   C     C_2   0.570699 0.515266 0.922845 -0.178849
C11   C     C_2   0.566189 0.541384 0.069249 -0.019940
C12   C     C_R   0.909139 0.570979 0.393333 -0.004813
C13   C     C_R   0.499422 0.737704 0.497966 0.961549
C14   C     C_R   0.673354 0.500500 0.499211 0.892754
C15   C     C_R   0.816372 0.559762 0.391699 -0.197317
C16   C     C_R   0.769447 0.505417 0.499563 -0.088846
C17   C     C_R   0.813366 0.461388 0.612011 -0.235476
C18   C     C_R   0.905791 0.468229 0.617331 0.115191
C19   C     C_R   0.954005 0.521776 0.505878 0.010655
C20   C     C_3   0.404759 0.124230 0.279156 -0.810358
C21   C     C_2   0.640562 0.617460 0.119616 0.972299
C22   C     C_3   0.902468 0.367009 0.852458 -0.837500
C23   C     C_R   0.951052 0.421660 0.730573 0.174406
C24   C     C_3   0.105667 0.696217 0.173355 -0.867764
C25   C     C_2   0.910241 0.684564 0.169397 0.945915
C26   C     C_3   0.342406 0.857870 0.390446 -0.877578
C27   C     C_R   0.043867 0.424482 0.729150 -0.193472
C28   C     C_R   0.091399 0.471976 0.617754 0.082232
C29   C     C_R   0.046921 0.523038 0.506056 0.017656
C30   C     C_R   0.095864 0.572898 0.394311 0.100572
C31   C     C_R   0.051731 0.630242 0.285288 0.107352
C32   C     C_R   0.957552 0.628140 0.284531 -0.039666
H1    H     H_    0.779539 0.594222 0.307649 0.197949
H2    H     H_    0.228956 0.597999 0.310726 0.173649
H3    H     H_    0.373258 0.053806 0.214700 0.228959
H4    H     H_    0.356117 0.200690 0.296046 0.233425
H5    H     H_    0.464191 0.161791 0.223035 0.252166
H6    H     H_    0.679940 0.762911 0.230649 0.349227
H7    H     H_    0.856522 0.438040 0.893878 0.276468
H8    H     H_    0.863800 0.281855 0.825576 0.228521
H9    H     H_    0.949163 0.338826 0.932224 0.251213
H10   H     H_    0.144103 0.625588 0.117049 0.241628
H11   H     H_    0.065130 0.750236 0.101256 0.259347
H12   H     H_    0.553340 0.921910 0.521566 0.114130
H13   H     H_    0.152294 0.765935 0.215736 0.229468
H14   H     H_    0.887536 0.681814 0.972177 0.360882
H15   H     H_    0.288270 0.923673 0.362960 0.237490
H16   H     H_    0.358017 0.798871 0.303614 0.253404
H17   H     H_    0.316686 0.796738 0.474454 0.226903
H18   H     H_    0.478975 0.085236 0.606804 0.138761
H19   H     H_    0.635085 0.520639 0.871777 0.199755
H20   H     H_    0.440009 0.508727 0.899974 0.166628
H21   H     H_    0.454068 0.443647 0.106295 0.155461
H22   H     H_    0.774536 0.419997 0.694289 0.169821
H23   H     H_    0.079472 0.387282 0.814387 0.150094
H24   H     H_    0.217893 0.426107 0.700831 0.154796
N1    N     N_2   0.500970 0.501330 0.852150 -0.201733
N2    N     N_2   0.500990 0.501360 0.147810 -0.230212
O1    O     O_R   0.499990 0.319060 0.613040 -0.611831
O2    O     O_R   0.624081 0.713947 0.208047 -0.765237
O3    O     O_2   0.862471 0.775916 0.184950 -0.634020
O4    O     O_R   0.921978 0.634332 0.043100 -0.788727
O5    O     O_R   0.500010 0.319100 0.386900 -0.606522
O6    O     O_R   0.367830 0.499950 0.613080 -0.625047
O7    O     O_R   0.367860 0.499990 0.386940 -0.633486
O8    O     O_R   0.499990 0.680900 0.613100 -0.611231
O9    O     O_R   0.500010 0.680940 0.386960 -0.548071
O10   O     O_R   0.632140 0.500010 0.613060 -0.625370
O11   O     O_R   0.632170 0.500050 0.386920 -0.605594
O12   O     O_2   0.716140 0.601634 0.075888 -0.670248
Zn1   Zn    Zn3+2 0.499980 0.499970 0.650990 0.950474
Zn2   Zn    Zn3+2 0.500020 0.500030 0.349010 0.967450

loop_
_geom_bond_atom_site_label_1
_geom_bond_atom_site_label_2
_ccdc_geom_bond_type
O11   Zn2   S    
C6    C8    S    
H21   N2    S    
O8    Zn1   S    
C6    C7    D    
C23   C27   A    
O7    Zn2   S    
C24   H10   S    
C11   C21   S    
C4    O6    A    
C31   C32   A    
C12   C15   A    
C26   H16   S    
C21   O12   D    
C25   O4    S    
C22   H8    S    
C5    H2    S    
C25   C32   S    
C2    C3    A    
C24   C31   S    
C25   O3    D    
C7    H12   S    
N1    Zn1   S    
C20   H5    S    
N2    Zn2   S    
C6    C26   S    
C26   H15   S    
C2    H24   S    
O10   Zn1   S    
H6    O2    S    
C24   H13   S    
C1    O5    A    
C12   C19   A    
C28   C29   A    
C8    C20   S    
H14   O4    S    
C17   C18   A    
C27   H23   S    
C13   O8    A    
C1    O1    A    
C13   O9    A    
C30   C31   A    
C14   O11   A    
C14   C16   S    
C26   H17   S    
C22   H9    S    
C16   C17   A    
H20   N1    S    
C22   H7    S    
C29   C30   A    
C18   C23   A    
C11   N2    D    
C10   H19   S    
C7    C13   S    
C10   N1    D    
C1    C9    S    
O5    Zn2   S    
C21   O2    S    
O9    Zn2   S    
C10   C11   S    
O6    Zn1   S    
C27   C28   A    
C24   H11   S    
C14   O10   A    
C4    O7    A    
C18   C19   A    
C20   H4    S    
C2    C28   A    
C22   C23   S    
C20   H3    S    
C17   H22   S    
C15   H1    S    
C15   C16   A    
C12   C32   A    
C9    H18   S    
C3    C4    S    
C5    C30   A    
O1    Zn1   S    
C8    C9    D    
C3    C5    A    
C19   C29   A    
