data_mof_unit_50539.cif
_audit_creation_date              2012-12-11T14:33:07-0500
_audit_creation_method            fapswitch 2.2
_symmetry_space_group_name_H-M    P1
_symmetry_Int_Tables_number       1
_space_group_crystal_system       triclinic
_cell_length_a                    6.97572
_cell_length_b                    13.959342
_cell_length_c                    17.806015
_cell_angle_alpha                 112.345787
_cell_angle_beta                  95.684498
_cell_angle_gamma                 90.361548
_cell_volume                      1593.97421285

loop_
_atom_site_label
_atom_site_type_symbol
_atom_type_description
_atom_site_fract_x
_atom_site_fract_y
_atom_site_fract_z
_atom_type_partial_charge
O1    O     O_R   0.484560 0.544530 0.414330 -0.536782
O2    O     O_R   0.197040 0.638810 0.585080 -0.530094
O3    O     O_R   0.026800 0.455470 0.585670 -0.542403
C1    C     C_R   0.375201 0.681091 0.606757 0.686655
O4    O     O_R   0.155000 0.556150 0.414940 -0.543269
O5    O     O_R   0.984450 0.372220 0.414320 -0.536098
C2    C     C_R   0.317604 0.564948 0.386567 0.755190
O6    O     O_R   0.526900 0.627780 0.585680 -0.544358
O7    O     O_3   0.339170 0.439750 0.499990 -0.375662
V1    V     V_3+5 0.064350 0.511180 0.500000 1.366372
O8    O     O_R   0.654880 0.361190 0.414920 -0.542951
C3    C     C_R   0.817052 0.324631 0.386502 0.755943
O9    O     O_R   0.696930 0.443850 0.585060 -0.542788
C4    C     C_R   0.872086 0.423880 0.607279 0.686662
V2    V     V_3+5 0.564340 0.488820 0.500000 1.360672
O10   O     O_3   0.839390 0.560250 0.500010 -0.379802
C5    C     C_R   0.044049 0.857029 0.820222 -0.075726
C6    C     C_R   0.901453 0.378233 0.671507 -0.089524
C7    C     C_R   0.928185 0.810029 0.676853 -0.189389
C8    C     C_R   0.982721 0.781062 0.742956 0.291446
C9    C     C_R   0.057136 0.960496 0.829778 -0.289662
C10   C     C_R   0.012245 0.990575 0.762474 0.107543
C11   C     C_R   0.941919 0.913963 0.686032 0.081087
C12   C     C_R   0.030166 0.094997 0.769853 0.085882
C13   C     C_R   0.964685 0.124213 0.702887 0.079325
C14   C     C_R   0.893359 0.045237 0.628093 -0.184870
C15   C     C_R   0.884911 0.941753 0.619694 -0.204881
C16   C     C_R   0.120696 0.170508 0.841724 -0.197811
C17   C     C_R   0.125145 0.272640 0.852492 -0.211151
C18   C     C_R   0.029749 0.305222 0.794465 0.087117
C19   C     C_R   0.968280 0.231907 0.714887 0.059132
C20   C     C_R   0.993951 0.410256 0.815468 0.269727
C21   C     C_R   0.922105 0.444051 0.754002 -0.194502
C22   C     C_R   0.916605 0.270598 0.652138 -0.220619
H1    H     H_    0.829224 0.883089 0.561162 0.121072
H2    H     H_    0.890463 0.219419 0.588677 0.101771
H3    H     H_    0.876663 0.522059 0.770789 0.160174
H4    H     H_    0.205191 0.326187 0.907740 0.142198
H5    H     H_    0.875066 0.751230 0.618119 0.143594
H6    H     H_    0.093674 0.015694 0.891359 0.104904
H7    H     H_    0.840414 0.061708 0.575480 0.124711
H8    H     H_    0.197086 0.153063 0.890210 0.133702
H9    H     H_    0.113537 0.223430 0.308700 0.155466
H10   H     H_    0.834948 0.034916 0.193868 0.155293
C23   C     C_2   0.135101 0.037152 0.183939 -0.348845
C24   C     C_2   0.972865 0.077836 0.217111 -0.130069
H11   H     H_    0.675697 0.178193 0.294862 0.126042
C25   C     C_2   0.813346 0.221252 0.318560 -0.351486
C26   C     C_2   0.975607 0.180528 0.285436 -0.130107
H12   H     H_    0.272735 0.080234 0.207613 0.125907
C27   C     C_R   0.419118 0.789107 0.672109 -0.059506
C28   C     C_R   0.537190 0.471992 0.825886 -0.052832
C29   C     C_R   0.567431 0.891002 0.809620 -0.136666
C30   C     C_R   0.518261 0.795962 0.746329 -0.158469
C31   C     C_R   0.398337 0.883617 0.658644 -0.212604
C32   C     C_R   0.465936 0.983289 0.721256 0.097451
C33   C     C_R   0.543569 0.983965 0.798068 0.125388
C34   C     C_R   0.460984 0.082177 0.711728 0.067938
C35   C     C_R   0.521375 0.178108 0.780124 0.070525
C36   C     C_R   0.595112 0.171622 0.854255 -0.194602
C37   C     C_R   0.605954 0.076896 0.862751 -0.214931
C38   C     C_R   0.400268 0.088672 0.636228 -0.183686
C39   C     C_R   0.394790 0.183860 0.627618 -0.211102
C40   C     C_R   0.444653 0.277357 0.694121 0.123430
C41   C     C_R   0.506132 0.277467 0.772233 0.097714
C42   C     C_R   0.432431 0.371099 0.682469 -0.128094
C43   C     C_R   0.484447 0.465983 0.746501 -0.181137
C44   C     C_R   0.542596 0.377252 0.838906 -0.214819
H13   H     H_    0.666784 0.076285 0.921003 0.119723
H14   H     H_    0.568383 0.383405 0.901187 0.082597
H15   H     H_    0.488582 0.535575 0.733622 0.100138
H16   H     H_    0.347742 0.184400 0.567913 0.118089
H17   H     H_    0.633284 0.891593 0.867447 0.137341
H18   H     H_    0.559470 0.726399 0.755810 0.108400
H19   H     H_    0.332823 0.877404 0.599420 0.098429
H20   H     H_    0.648812 0.239142 0.906845 0.119081
H21   H     H_    0.357860 0.020534 0.582177 0.123790
H22   H     H_    0.386342 0.370771 0.622540 0.148283
H23   H     H_    0.335024 0.666708 0.193903 0.155188
H24   H     H_    0.613744 0.590237 0.308020 0.155593
C45   C     C_2   0.314244 0.602073 0.318659 -0.350614
C46   C     C_2   0.476081 0.610453 0.285125 -0.131803
H25   H     H_    0.772110 0.635624 0.206945 0.125347
C47   C     C_2   0.634705 0.655495 0.183557 -0.351998
C48   C     C_2   0.472768 0.646650 0.216867 -0.129664
H26   H     H_    0.176927 0.622047 0.295279 0.125569
O11   O     O_R   0.421600 0.630430 0.917010 -0.555240
O12   O     O_R   0.793840 0.702190 0.087630 -0.549165
O13   O     O_R   0.964010 0.886170 0.088190 -0.538543
C49   C     C_R   0.631273 0.693092 0.115920 0.740986
O14   O     O_R   0.751460 0.619510 0.917500 -0.510953
O15   O     O_R   0.921330 0.802900 0.916840 -0.535731
C50   C     C_R   0.573931 0.578526 0.893326 0.677942
O16   O     O_R   0.464290 0.713700 0.088350 -0.536354
O17   O     O_3   0.609200 0.818520 0.002630 -0.374308
V3    V     V_3+5 0.884140 0.747190 0.002530 1.399850
O18   O     O_R   0.251150 0.814630 0.917340 -0.544636
C51   C     C_R   0.075096 0.828611 0.892276 0.729261
O19   O     O_R   0.293530 0.897310 0.087470 -0.543892
C52   C     C_R   0.131388 0.933796 0.115965 0.748880
V4    V     V_3+5 0.384070 0.769710 0.002370 1.370498
O20   O     O_3   0.109180 0.698190 0.002460 -0.361110
N1    N     N_2   0.035666 0.484005 0.897401 -0.481068
H27   H     H_    0.178304 0.508478 0.910087 0.263203
C53   C     C_3   0.964208 0.463052 0.964276 -0.498917
H28   H     H_    0.869457 0.523934 0.997401 0.216197
H29   H     H_    0.086245 0.462909 0.009391 0.151183
H30   H     H_    0.881499 0.387983 0.943108 0.168446
N2    N     N_2   0.970096 0.675228 0.732263 -0.550445
H31   H     H_    0.895271 0.626738 0.678303 0.272000
C54   C     C_3   0.144983 0.635214 0.757991 -0.518397
H32   H     H_    0.178857 0.562215 0.710560 0.201553
H33   H     H_    0.130072 0.623620 0.815188 0.216525
H34   H     H_    0.269257 0.688759 0.771243 0.180009

loop_
_geom_bond_atom_site_label_1
_geom_bond_atom_site_label_2
_ccdc_geom_bond_type
C34   C38   A    
C31   C32   A    
O12   V3    S    
C13   C19   A    
V4    O20   S    
V3    O20   S    
C4    C6    S    
C38   H21   S    
O2    C1    A    
O17   V3    S    
C1    O6    A    
O18   C51   A    
O15   C51   A    
C54   H33   S    
C23   C24   D    
C53   H29   S    
C24   C26   S    
C14   C15   A    
C38   C39   A    
C16   C17   A    
C45   C46   D    
N2    C54   S    
O5    C3    A    
C18   C19   A    
V2    O10   S    
O15   V3    S    
C5    C8    A    
C32   C33   A    
O14   V3    S    
O11   V4    S    
O8    V2    S    
H11   C25   S    
O16   V4    S    
C17   H4    S    
O1    V2    S    
C11   C15   A    
O7    V1    S    
C43   H15   S    
C45   H26   S    
C28   C44   A    
C3    C25   S    
C31   H19   S    
C42   C43   A    
C35   C36   A    
C30   H18   S    
O9    C4    A    
C47   C49   S    
H10   C24   S    
C49   O16   A    
C42   H22   S    
C53   H30   S    
C20   N1    S    
C1    C27   S    
C12   C13   A    
H24   C46   S    
O4    C2    A    
C29   C33   A    
H9    C26   S    
O13   C52   A    
C15   H1    S    
C13   C14   A    
C29   C30   A    
C36   H20   S    
C21   H3    S    
C39   C40   A    
C36   C37   A    
C40   C42   A    
C7    C11   A    
C17   C18   A    
O14   C50   A    
H25   C47   S    
C41   C44   A    
C19   C22   A    
C28   C50   S    
N1    C53   S    
C47   C48   D    
C6    C22   A    
C28   C43   A    
C7    H5    S    
C25   C26   D    
O19   V4    S    
O12   C49   A    
O6    V2    S    
O9    V2    S    
C10   C12   A    
O2    V1    S    
H23   C48   S    
C5    C51   S    
C37   H13   S    
C54   H32   S    
C2    C45   S    
O1    C2    A    
C29   H17   S    
C12   C16   A    
C23   C52   S    
O5    V1    S    
O8    C3    A    
C33   C37   A    
O3    C4    A    
C46   C48   S    
C53   H28   S    
O19   C52   A    
C27   C30   A    
C20   C21   A    
C7    C8    A    
C34   C35   A    
O4    V1    S    
O3    V1    S    
V1    O10   S    
N2    H31   S    
C35   C41   A    
C18   C20   A    
C9    H6    S    
C23   H12   S    
O13   V3    S    
O11   C50   A    
C40   C41   A    
C16   H8    S    
C22   H2    S    
C32   C34   A    
C54   H34   S    
C27   C31   A    
O7    V2    S    
C6    C21   A    
C5    C9    A    
C8    N2    S    
C39   H16   S    
C44   H14   S    
N1    H27   S    
C10   C11   A    
C9    C10   A    
O18   V4    S    
O17   V4    S    
C14   H7    S    
