data_mof_unit_12671.cif
_audit_creation_date              2012-12-10T18:58:45-0500
_audit_creation_method            fapswitch 2.2
_symmetry_space_group_name_H-M    P1
_symmetry_Int_Tables_number       1
_space_group_crystal_system       triclinic
_cell_length_a                    13.037041
_cell_length_b                    10.914239
_cell_length_c                    9.55529
_cell_angle_alpha                 91.980619
_cell_angle_beta                  96.342831
_cell_angle_gamma                 90.979247
_cell_volume                      1350.18708318

loop_
_atom_site_label
_atom_site_type_symbol
_atom_type_description
_atom_site_fract_x
_atom_site_fract_y
_atom_site_fract_z
_atom_type_partial_charge
C1    C     C_R   0.498860 0.263118 0.497608 0.782362
C2    C     C_R   0.027840 0.487461 0.563242 0.107738
C3    C     C_R   0.971327 0.481430 0.428414 0.026559
C4    C     C_R   0.863471 0.470125 0.415761 0.414566
C5    C     C_R   0.869224 0.487721 0.671342 -0.286180
C6    C     C_R   0.976387 0.487397 0.683996 -0.212793
C7    C     C_R   0.541239 0.068888 0.606834 -0.074900
C8    C     C_R   0.497405 0.131302 0.493135 -0.135616
C9    C     C_R   0.448442 0.061560 0.377477 -0.253760
C10   C     C_R   0.444787 0.931893 0.380026 0.140720
C11   C     C_R   0.491048 0.871104 0.500326 -0.085016
C12   C     C_R   0.300442 0.500054 0.472993 0.827268
C13   C     C_R   0.534935 0.945483 0.613193 -0.020838
C14   C     C_3   0.596714 0.947654 0.755011 -0.077910
C15   C     C_3   0.603643 0.088606 0.747538 0.292761
C16   C     C_R   0.582425 0.546953 0.088427 0.294149
C17   C     C_R   0.425008 0.439672 0.061395 -0.195747
C18   C     C_R   0.425732 0.436705 0.911789 0.524696
C19   C     C_R   0.584300 0.542720 0.941284 0.134855
C20   C     C_3   0.633102 0.666841 0.944832 -0.088370
C21   C     C_3   0.622989 0.676083 0.102681 -0.090137
C22   C     C_R   0.497544 0.737700 0.501161 0.821527
C23   C     C_R   0.699362 0.495102 0.525671 0.791055
C24   C     C_R   0.812029 0.484524 0.537932 -0.150664
C25   C     C_R   0.187305 0.497488 0.454967 -0.057374
C26   C     C_R   0.023132 0.488922 0.308208 -0.255432
C27   C     C_R   0.130332 0.497650 0.320022 0.139758
C28   C     C_R   0.135084 0.493608 0.575514 -0.280713
Cu1   Cu    Cu3+1 0.499990 0.499980 0.640670 0.974769
Cu2   Cu    Cu3+1 0.500010 0.500020 0.359330 0.965809
H1    H     H_    0.559766 0.136754 0.825422 0.071513
H2    H     H_    0.363084 0.394243 0.107182 0.179301
H3    H     H_    0.584981 0.730337 0.880688 0.163123
H4    H     H_    0.564838 0.743265 0.131169 0.126790
H5    H     H_    0.831373 0.488200 0.766339 0.205660
H6    H     H_    0.980912 0.489856 0.204054 0.173339
H7    H     H_    0.018952 0.489785 0.788172 0.151447
H8    H     H_    0.177698 0.495777 0.679670 0.198563
H9    H     H_    0.411898 0.106931 0.286468 0.152766
H10   H     H_    0.551922 0.918291 0.840578 0.105523
N1    N     N_R   0.500660 0.500930 0.148010 -0.239072
N2    N     N_R   0.500660 0.500890 0.852110 -0.251713
O1    O     O_R   0.500000 0.319640 0.618810 -0.572457
O2    O     O_R   0.500010 0.319680 0.381230 -0.594715
O3    O     O_R   0.348990 0.499960 0.599490 -0.544789
O4    O     O_R   0.349000 0.500000 0.361910 -0.549458
O5    O     O_R   0.499990 0.680320 0.618770 -0.590570
O6    O     O_R   0.500000 0.680360 0.381190 -0.564710
O7    O     O_R   0.651000 0.500000 0.638090 -0.589180
O8    O     O_R   0.651010 0.500040 0.400510 -0.530439
O9    O     O_3   0.808093 0.451013 0.283787 -0.553343
C29   C     C_3   0.818813 0.328647 0.232862 0.053040
H11   H     H_    0.879576 0.275703 0.294805 0.108346
H12   H     H_    0.840539 0.331779 0.123848 0.169753
C30   C     C_3   0.716432 0.258552 0.227277 -0.737825
H13   H     H_    0.655435 0.306087 0.160740 0.254602
H14   H     H_    0.724239 0.164682 0.181594 0.188284
H15   H     H_    0.693630 0.251271 0.335024 0.222016
N3    N     N_3   0.695486 0.886385 0.751202 -0.597766
H16   H     H_    0.728469 0.905383 0.659235 0.239841
H17   H     H_    0.746117 0.920115 0.836840 0.249914
O10   O     O_3   0.708061 0.132699 0.756933 -0.571118
C31   C     C_3   0.742855 0.163761 0.627636 0.104304
H18   H     H_    0.710010 0.252395 0.594616 0.146779
H19   H     H_    0.722965 0.092167 0.542921 0.131868
C32   C     C_3   0.859945 0.176272 0.648222 -0.804882
H20   H     H_    0.894178 0.085553 0.670504 0.235155
H21   H     H_    0.888470 0.210898 0.551415 0.201225
H22   H     H_    0.884948 0.240749 0.738341 0.264477
O11   O     O_3   0.346374 0.377878 0.825684 -0.558137
C33   C     C_3   0.342128 0.250718 0.850522 0.065582
H23   H     H_    0.358417 0.199684 0.753147 0.175016
H24   H     H_    0.398949 0.219588 0.937502 0.093234
C34   C     C_3   0.233801 0.214600 0.881065 -0.853133
H25   H     H_    0.176308 0.241102 0.793256 0.259510
H26   H     H_    0.228328 0.113877 0.892582 0.209129
H27   H     H_    0.216001 0.261191 0.980278 0.232705
N4    N     N_3   0.739626 0.659017 0.911289 -0.532887
H28   H     H_    0.737775 0.660840 0.802037 0.251777
H29   H     H_    0.780294 0.738508 0.949866 0.229176
N5    N     N_3   0.721204 0.688647 0.192348 -0.480309
H30   H     H_    0.751317 0.776367 0.179247 0.193383
H31   H     H_    0.704806 0.690141 0.296824 0.240898
N6    N     N_3   0.180108 0.507152 0.194267 -0.567192
H32   H     H_    0.153321 0.585377 0.142861 0.219771
H33   H     H_    0.157729 0.430866 0.128107 0.200515
N7    N     N_3   0.391917 0.863493 0.262207 -0.569659
H34   H     H_    0.425194 0.887061 0.171908 0.199618
H35   H     H_    0.315173 0.891187 0.249803 0.212271

loop_
_geom_bond_atom_site_label_1
_geom_bond_atom_site_label_2
_ccdc_geom_bond_type
C18   O11   S    
C32   H21   S    
N7    H34   S    
C31   H19   S    
C16   C21   S    
Cu1   N2    S    
C1    C8    S    
C22   O6    A    
C19   C20   S    
C30   H13   S    
N5    H30   S    
C7    C8    A    
Cu1   O7    S    
C25   C28   A    
C14   N3    S    
C26   C27   A    
Cu1   Cu2   S    
C34   H26   S    
Cu1   O5    S    
Cu2   O6    S    
C27   N6    S    
N6    H33   S    
C18   N2    A    
C5    C6    A    
C4    C24   A    
N4    H29   S    
C23   O7    A    
C32   H22   S    
C9    H9    S    
C1    O1    A    
C8    C9    A    
C34   H27   S    
C23   C24   S    
Cu2   N1    S    
O11   C33   S    
C9    C10   A    
C19   N2    A    
C7    C15   S    
C32   H20   S    
Cu2   O8    S    
C31   C32   S    
N3    H16   S    
C13   C14   S    
Cu1   O1    S    
Cu2   O2    S    
C2    C6    A    
N5    H31   S    
C29   H12   S    
C10   N7    S    
N3    H17   S    
C34   H25   S    
C4    O9    S    
O9    C29   S    
N6    H32   S    
C12   O4    A    
C33   H24   S    
N4    H28   S    
C23   O8    A    
C21   H4    S    
Cu1   O3    S    
O10   C31   S    
C1    O2    A    
C28   H8    S    
C17   C18   A    
C6    H7    S    
C20   H3    S    
C26   H6    S    
C21   N5    S    
N7    H35   S    
C3    C4    A    
C29   H11   S    
Cu2   O4    S    
C3    C26   A    
C12   O3    A    
C33   C34   S    
C29   C30   S    
C15   H1    S    
C25   C27   A    
C11   C22   S    
C20   N4    S    
C12   C25   S    
C30   H14   S    
C2    C3    A    
C33   H23   S    
C11   C13   A    
C5    C24   A    
C16   C19   A    
C5    H5    S    
C15   O10   S    
C22   O5    A    
C17   N1    A    
C10   C11   A    
C14   H10   S    
C31   H18   S    
C7    C13   A    
C20   C21   S    
C30   H15   S    
C17   H2    S    
C14   C15   S    
C2    C28   A    
C16   N1    A    
