data_mof_unit_54582.cif
_audit_creation_date              2012-12-10T17:45:28-0500
_audit_creation_method            fapswitch 2.2
_symmetry_space_group_name_H-M    P1
_symmetry_Int_Tables_number       1
_space_group_crystal_system       triclinic
_cell_length_a                    11.542441
_cell_length_b                    10.636536
_cell_length_c                    9.938359
_cell_angle_alpha                 89.92635
_cell_angle_beta                  89.970308
_cell_angle_gamma                 91.642031
_cell_volume                      1219.64589549

loop_
_atom_site_label
_atom_site_type_symbol
_atom_type_description
_atom_site_fract_x
_atom_site_fract_y
_atom_site_fract_z
_atom_type_partial_charge
C1    C     C_R   0.503085 0.260767 0.500113 0.844574
C2    C     C_R   0.511556 0.872005 0.499443 -0.098603
C3    C     C_R   0.348955 0.334311 0.140029 -0.145270
C4    C     C_R   0.282091 0.499647 0.500036 0.887803
C5    C     C_R   0.274951 0.252237 0.070126 -0.194647
C6    C     C_R   0.274957 0.252199 0.930854 -0.187362
C7    C     C_R   0.349016 0.334194 0.860583 -0.141530
C8    C     C_R   0.425722 0.418256 0.927923 0.165285
C9    C     C_R   0.425712 0.418316 0.072360 0.168986
C10   C     C_R   0.571070 0.578224 0.071246 -0.106590
C11   C     C_R   0.571046 0.578201 0.928307 -0.107187
C12   C     C_R   0.784891 0.074010 0.691249 -0.134758
C13   C     C_R   0.503495 0.739406 0.499891 0.865107
C14   C     C_R   0.717913 0.500310 0.499980 0.875667
C15   C     C_1   0.161561 0.499310 0.500122 -0.191811
C16   C     C_1   0.059341 0.499232 0.500155 -0.003805
C17   C     C_1   0.940620 0.499472 0.500107 -0.002563
C18   C     C_1   0.838417 0.499864 0.500011 -0.194451
C19   C     C_R   0.695209 0.136930 0.628765 -0.172413
C20   C     C_R   0.785010 0.943219 0.691047 -0.140255
C21   C     C_R   0.695486 0.874869 0.628288 -0.188607
C22   C     C_R   0.602950 0.937193 0.565956 0.095228
C23   C     C_R   0.602778 0.069044 0.566216 0.097800
C24   C     C_R   0.511189 0.128678 0.499942 -0.085445
C25   C     C_R   0.424998 0.061950 0.430332 -0.216365
C26   C     C_R   0.425192 0.933492 0.430074 -0.199519
H1    H     H_    0.356052 0.109583 0.378644 0.138871
H2    H     H_    0.216979 0.188439 0.876722 0.147953
H3    H     H_    0.700297 0.238509 0.628311 0.154129
H4    H     H_    0.217003 0.188485 0.124561 0.146388
H5    H     H_    0.343366 0.329057 0.753872 0.201158
H6    H     H_    0.629123 0.642249 0.874626 0.145772
H7    H     H_    0.855148 0.126948 0.738697 0.137826
H8    H     H_    0.855343 0.894554 0.738352 0.137390
H9    H     H_    0.700771 0.773570 0.627391 0.142805
H10   H     H_    0.356368 0.881616 0.378258 0.154728
H11   H     H_    0.629188 0.642263 0.124598 0.149368
H12   H     H_    0.343192 0.329275 0.246726 0.196418
N1    N     N_R   0.498930 0.498800 0.142780 -0.120976
N2    N     N_R   0.498900 0.498720 0.857170 -0.120489
O1    O     O_R   0.500000 0.316780 0.614690 -0.640862
O2    O     O_R   0.499990 0.316750 0.385360 -0.628387
O3    O     O_R   0.334450 0.500030 0.614670 -0.625044
O4    O     O_R   0.334440 0.500000 0.385330 -0.629247
O5    O     O_R   0.500010 0.683250 0.614640 -0.614170
O6    O     O_R   0.500000 0.683220 0.385310 -0.611106
O7    O     O_R   0.665560 0.500000 0.614670 -0.624474
O8    O     O_R   0.665550 0.499970 0.385330 -0.602304
Zn1   Zn    Zn3+2 0.500010 0.500020 0.653130 0.932867
Zn2   Zn    Zn3+2 0.499990 0.499980 0.346870 0.942116

loop_
_geom_bond_atom_site_label_1
_geom_bond_atom_site_label_2
_ccdc_geom_bond_type
C2    C22   A    
C1    O1    A    
C19   C23   A    
C23   C24   A    
C6    C7    A    
C3    C9    A    
C4    O3    A    
C25   H1    S    
C4    O4    A    
C14   C18   S    
O5    Zn1   S    
C20   H8    S    
C12   C20   A    
C4    C15   S    
O8    Zn2   S    
C17   C18   T    
C25   C26   A    
C7    C8    A    
O7    Zn1   S    
C21   C22   A    
C24   C25   A    
C13   O5    A    
C13   O6    A    
O2    Zn2   S    
C10   H11   S    
C21   H9    S    
C5    C6    A    
C12   C19   A    
O1    Zn1   S    
C11   H6    S    
C11   N2    A    
C7    H5    S    
C10   C11   A    
O4    Zn2   S    
C15   C16   T    
C19   H3    S    
C16   C17   S    
C1    O2    A    
C9    N1    A    
N1    Zn2   S    
C20   C21   A    
C1    C24   S    
C2    C26   A    
C5    H4    S    
C26   H10   S    
C2    C13   S    
O6    Zn2   S    
C22   C23   A    
O3    Zn1   S    
C14   O8    A    
C8    N2    A    
C12   H7    S    
C14   O7    A    
C10   N1    A    
C6    H2    S    
N2    Zn1   S    
C3    H12   S    
C8    C9    A    
C3    C5    A    
