data_mof_unit_36195.cif
_audit_creation_date              2012-12-11T14:21:01-0500
_audit_creation_method            fapswitch 2.2
_symmetry_space_group_name_H-M    P1
_symmetry_Int_Tables_number       1
_space_group_crystal_system       triclinic
_cell_length_a                    22.072067
_cell_length_b                    7.196709
_cell_length_c                    14.927461
_cell_angle_alpha                 89.962661
_cell_angle_beta                  107.35279
_cell_angle_gamma                 89.967169
_cell_volume                      2263.24936801

loop_
_atom_site_label
_atom_site_type_symbol
_atom_type_description
_atom_site_fract_x
_atom_site_fract_y
_atom_site_fract_z
_atom_type_partial_charge
O1    O     O_R   0.584770 0.505770 0.002090 -0.535791
O2    O     O_R   0.415230 0.005770 0.997910 -0.532698
O3    O     O_R   0.467060 0.173340 0.861950 -0.534670
O4    O     O_R   0.532940 0.673340 0.138050 -0.541187
C1    C     C_R   0.455162 0.344399 0.825761 0.755269
C2    C     C_R   0.544727 0.844153 0.174229 0.755946
O5    O     O_R   0.587510 0.175890 0.993210 -0.538057
O6    O     O_R   0.412490 0.675890 0.006790 -0.541396
O7    O     O_R   0.536540 0.008150 0.130100 -0.536525
O8    O     O_R   0.463460 0.508150 0.869900 -0.542271
C3    C     C_R   0.612655 0.344575 0.997180 0.776960
C4    C     C_R   0.387334 0.844668 0.002689 0.778346
O9    O     O_3   0.483140 0.340040 0.044760 -0.381667
O10   O     O_3   0.516860 0.840040 0.955240 -0.382414
V1    V     V_3+5 0.503130 0.064190 0.991700 1.526244
V2    V     V_3+5 0.496870 0.564190 0.008300 1.512547
C5    C     C_2   0.219000 0.745101 0.017121 -0.090363
C6    C     C_2   0.781073 0.244613 0.982418 -0.092431
C7    C     C_2   0.175668 0.881452 0.978409 -0.224064
C8    C     C_2   0.824158 0.381436 0.021068 -0.224898
C9    C     C_2   0.278701 0.723633 0.991191 -0.069197
C10   C     C_2   0.721198 0.222707 0.007918 -0.065329
C11   C     C_2   0.323138 0.858581 0.013629 -0.282681
C12   C     C_2   0.676842 0.358254 0.986076 -0.280867
H1    H     H_    0.312161 0.986481 0.044369 0.167465
H2    H     H_    0.687893 0.486642 0.955792 0.162301
C13   C     C_R   0.927828 0.889882 0.722410 -0.068981
C14   C     C_R   0.072252 0.389309 0.277632 -0.069145
C15   C     C_R   0.572808 0.851542 0.276395 -0.103652
C16   C     C_R   0.427072 0.353174 0.723575 -0.103179
C17   C     C_R   0.938150 0.968424 0.569692 -0.013943
C18   C     C_R   0.061679 0.464205 0.430706 -0.012733
C19   C     C_R   0.962828 0.963971 0.667332 -0.169300
C20   C     C_R   0.036982 0.460936 0.332986 -0.169162
C21   C     C_R   0.865851 0.826731 0.679737 -0.086490
C22   C     C_R   0.134668 0.329063 0.320066 -0.087276
C23   C     C_R   0.834837 0.871108 0.583991 0.038835
C24   C     C_R   0.165249 0.371445 0.416058 0.037139
C25   C     C_R   0.873030 0.922072 0.525613 0.046715
C26   C     C_R   0.126766 0.417158 0.474660 0.046999
C27   C     C_R   0.767243 0.868116 0.545196 0.057612
C28   C     C_R   0.232771 0.372627 0.454841 0.058445
C29   C     C_R   0.738828 0.872761 0.446261 0.055938
C30   C     C_R   0.261083 0.371583 0.553774 0.056198
C31   C     C_R   0.778903 0.893814 0.389084 -0.213554
C32   C     C_R   0.220852 0.385383 0.611126 -0.214586
C33   C     C_R   0.844077 0.923888 0.426733 -0.065913
C34   C     C_R   0.155507 0.413761 0.573591 -0.064723
C35   C     C_R   0.727294 0.878380 0.603319 -0.153884
C36   C     C_R   0.272459 0.394457 0.396934 -0.155716
C37   C     C_R   0.661863 0.869494 0.566739 -0.164767
C38   C     C_R   0.337973 0.396556 0.433738 -0.166891
C39   C     C_R   0.633317 0.858242 0.470230 0.112501
C40   C     C_R   0.366671 0.380166 0.530080 0.114016
C41   C     C_R   0.671040 0.862550 0.408272 0.094683
C42   C     C_R   0.328895 0.365857 0.591673 0.094640
C43   C     C_R   0.566944 0.848250 0.435625 -0.176529
C44   C     C_R   0.433111 0.383120 0.565006 -0.176879
C45   C     C_R   0.535718 0.844794 0.338992 -0.036349
C46   C     C_R   0.464276 0.370739 0.661493 -0.036053
C47   C     C_R   0.639156 0.858601 0.310948 -0.228908
C48   C     C_R   0.360677 0.349177 0.688656 -0.228956
H3    H     H_    0.664330 0.858128 0.259289 0.125401
H4    H     H_    0.335289 0.331062 0.739506 0.125650
H5    H     H_    0.633312 0.874929 0.614541 0.146845
H6    H     H_    0.366392 0.413843 0.386282 0.148416
H7    H     H_    0.011095 0.010365 0.700848 0.129792
H8    H     H_    0.988619 0.506889 0.299610 0.128572
H9    H     H_    0.760413 0.896392 0.313660 0.140497
H10   H     H_    0.239464 0.385790 0.686594 0.141086
H11   H     H_    0.745779 0.902833 0.677768 0.142232
H12   H     H_    0.253427 0.421564 0.322743 0.142744
H13   H     H_    0.539386 0.845548 0.484829 0.167708
H14   H     H_    0.460730 0.395349 0.516153 0.168971
O11   O     O_R   0.036450 0.233070 0.130130 -0.541202
O12   O     O_R   0.963550 0.733070 0.869870 -0.541347
O13   O     O_R   0.912470 0.560570 0.006790 -0.521938
O14   O     O_R   0.087530 0.060570 0.993210 -0.521740
C49   C     C_R   0.887451 0.391727 0.004420 0.739015
C50   C     C_R   0.112515 0.891674 0.995470 0.739471
O15   O     O_R   0.032920 0.562940 0.138050 -0.530613
O16   O     O_R   0.967080 0.062940 0.861950 -0.530284
O17   O     O_R   0.084790 0.730500 0.002090 -0.532857
O18   O     O_R   0.915210 0.230500 0.997910 -0.533218
C51   C     C_R   0.044997 0.394436 0.174874 0.693611
C52   C     C_R   0.954995 0.894571 0.825146 0.692713
O19   O     O_3   0.016820 0.396170 0.955260 -0.374643
O20   O     O_3   0.983180 0.896170 0.044740 -0.375166
V3    V     V_3+5 0.996880 0.672090 0.008300 1.588675
V4    V     V_3+5 0.003120 0.172090 0.991700 1.590326
C53   C     C_2   0.212890 0.618325 0.092983 0.803266
O21   O     O_2   0.187139 0.670485 0.150630 -0.558563
O22   O     O_R   0.240422 0.441715 0.101405 -0.651118
H15   H     H_    0.235735 0.370450 0.157317 0.297138
C54   C     C_2   0.787993 0.117022 0.907400 0.808160
O23   O     O_2   0.812895 0.170232 0.848933 -0.556925
O24   O     O_R   0.762520 0.938003 0.900958 -0.650205
H16   H     H_    0.768403 0.865478 0.846157 0.295231
C55   C     C_1   0.838681 0.694622 0.730391 0.295042
N1    N     N_1   0.817353 0.587748 0.770512 -0.322735
C56   C     C_1   0.162977 0.201059 0.268980 0.297515
N2    N     N_1   0.185165 0.097090 0.228576 -0.322565
C57   C     C_2   0.186251 0.012941 0.906919 0.781496
O25   O     O_2   0.170951 0.176190 0.907449 -0.524047
O26   O     O_R   0.212113 0.949342 0.837635 -0.664129
H17   H     H_    0.216569 0.051754 0.793334 0.300565
C58   C     C_2   0.813283 0.512878 0.092288 0.782285
O27   O     O_2   0.828554 0.676101 0.091771 -0.524142
O28   O     O_R   0.787249 0.449209 0.161392 -0.663902
H18   H     H_    0.782615 0.551581 0.205546 0.301212
C59   C     C_1   0.287490 0.554663 0.943757 0.471572
N3    N     N_1   0.294453 0.419666 0.905880 -0.369921
C60   C     C_1   0.712235 0.052873 0.054620 0.469892
N4    N     N_1   0.705130 0.917176 0.091904 -0.369342
C61   C     C_1   0.878715 0.950249 0.359249 0.338929
N5    N     N_1   0.905725 0.970728 0.304334 -0.308012
C62   C     C_1   0.120370 0.431414 0.640951 0.338731
N6    N     N_1   0.092903 0.444811 0.695705 -0.307416
C63   C     C_2   0.464954 0.834955 0.307065 0.734878
O29   O     O_2   0.434940 0.868251 0.225625 -0.577512
O30   O     O_R   0.432251 0.789214 0.371226 -0.666594
H19   H     H_    0.384505 0.787201 0.341590 0.306188
C64   C     C_2   0.535092 0.376867 0.693795 0.732023
O31   O     O_2   0.564871 0.330548 0.773558 -0.576836
O32   O     O_R   0.568103 0.434352 0.631839 -0.664634
H20   H     H_    0.615849 0.432662 0.661500 0.308544
C65   C     C_1   0.981936 0.024610 0.519653 0.334845
N7    N     N_1   0.017736 0.067893 0.480485 -0.343362
C66   C     C_1   0.018276 0.522441 0.481027 0.333975
N8    N     N_1   0.982841 0.567759 0.520456 -0.342970

loop_
_geom_bond_atom_site_label_1
_geom_bond_atom_site_label_2
_ccdc_geom_bond_type
C56   N2    T    
C13   C52   S    
C54   O23   D    
C58   O28   S    
C59   N3    T    
C5    C53   S    
C17   C65   S    
O2    C4    A    
C2    O7    A    
O24   H16   S    
C38   H6    S    
C64   O31   D    
O14   V4    S    
O5    C3    A    
C4    C11   S    
O13   V3    S    
O22   H15   S    
O18   V4    S    
C21   C23   A    
C12   H2    S    
C24   C28   A    
C49   O18   A    
O14   C50   A    
C43   C45   A    
C44   C46   A    
C61   N5    T    
C3    C12   S    
C37   H5    S    
C43   H13   S    
C47   H3    S    
C36   H12   S    
C48   H4    S    
O11   V4    S    
C7    C57   S    
O11   C51   A    
C10   C60   S    
C15   C45   A    
C30   C32   A    
C35   C37   A    
C16   C46   A    
C36   C38   A    
C58   O27   D    
C17   C19   A    
C44   H14   S    
O12   V3    S    
C8    C58   S    
O15   V3    S    
C31   C33   A    
C14   C20   A    
O6    V2    S    
C23   C27   A    
C6    C54   S    
C27   C29   A    
C28   C30   A    
C50   O17   A    
C21   C55   S    
C27   C35   A    
C18   C66   S    
C9    C59   S    
C38   C40   A    
C15   C47   A    
C39   C41   A    
O17   V3    S    
C40   C42   A    
C31   H9    S    
O4    C2    A    
C20   H8    S    
C53   O21   D    
C39   C43   A    
O5    V1    S    
C13   C21   A    
O16   C52   A    
C13   C19   A    
C22   C56   S    
C37   C39   A    
C18   C20   A    
O4    V2    S    
C46   C64   S    
C33   C61   S    
C53   O22   S    
C30   C42   A    
C55   N1    T    
O6    C4    A    
C2    C15   S    
O13   C49   A    
C57   O26   S    
O1    V2    S    
O2    V1    S    
C29   C31   A    
O30   H19   S    
C42   C48   A    
C63   O30   S    
C28   C36   A    
C29   C41   A    
C16   C48   A    
C35   H11   S    
O32   H20   S    
C10   C12   D    
O19   V4    S    
C65   N7    T    
O12   C52   A    
C14   C51   S    
O3    V1    S    
C19   H7    S    
C25   C33   A    
C60   N4    T    
C40   C44   A    
C26   C34   A    
C45   C63   S    
C8    C49   S    
C6    C10   S    
O3    C1    A    
C63   O29   D    
C54   O24   S    
C34   C62   S    
O26   H17   S    
O16   V4    S    
C9    C11   D    
C66   N8    T    
C1    O8    A    
C23   C25   A    
O8    V2    S    
C62   N6    T    
C24   C26   A    
C41   C47   A    
C22   C24   A    
C5    C7    D    
C17   C25   A    
C6    C8    D    
C18   C26   A    
O7    V1    S    
C7    C50   S    
C5    C9    S    
C32   H10   S    
C64   O32   S    
C32   C34   A    
C11   H1    S    
O20   V3    S    
C14   C22   A    
C1    C16   S    
O9    V2    S    
C57   O25   D    
O10   V1    S    
O1    C3    A    
O28   H18   S    
O15   C51   A    
