data_mof_unit_16952.cif
_audit_creation_date              2013-03-05T16:02:59-0500
_audit_creation_method            fapswitch 2.2
_symmetry_space_group_name_H-M    P1
_symmetry_Int_Tables_number       1
_space_group_crystal_system       triclinic
_cell_length_a                    14.881754
_cell_length_b                    14.248649
_cell_length_c                    10.496001
_cell_angle_alpha                 89.991142
_cell_angle_beta                  85.430628
_cell_angle_gamma                 90.040229
_cell_volume                      2218.54886783

loop_
_atom_site_label
_atom_site_type_symbol
_atom_site_description
_atom_site_fract_x
_atom_site_fract_y
_atom_site_fract_z
_atom_type_partial_charge
O1    O     O_R   0.367850 0.580280 0.500030 -0.609322
O2    O     O_R   0.632150 0.419720 0.499970 -0.615476
O3    O     O_R   0.632150 0.580280 0.499970 -0.642894
O4    O     O_R   0.367850 0.419720 0.500030 -0.632464
C1    C     C_R   0.327338 0.499952 0.500541 0.873009
C2    C     C_R   0.672601 0.499986 0.499692 0.867190
O5    O     O_R   0.499970 0.580260 0.313950 -0.600913
O6    O     O_R   0.500030 0.419740 0.686050 -0.606836
O7    O     O_R   0.500030 0.580260 0.686050 -0.646044
O8    O     O_R   0.499970 0.419740 0.313950 -0.601005
C3    C     C_R   0.502365 0.499738 0.257764 0.944612
C4    C     C_R   0.499805 0.500371 0.742169 0.936137
Zn1   Zn    Zn3+2 0.500000 0.607200 0.500000 0.936708
Zn2   Zn    Zn3+2 0.500000 0.392800 0.500000 0.950096
C5    C     C_3   0.432936 0.547925 0.051289 0.482367
C6    C     C_3   0.573593 0.452795 0.948668 0.425627
C7    C     C_3   0.508305 0.589228 0.960870 0.470665
C8    C     C_3   0.498000 0.411069 0.039141 0.449127
C9    C     C_3   0.423846 0.459961 0.967895 -0.548746
C10   C     C_3   0.581610 0.540852 0.033270 -0.502174
H1    H     H_    0.360246 0.430564 0.936045 0.165053
H2    H     H_    0.644885 0.571064 0.064903 0.166925
C11   C     C_3   0.500693 0.501864 0.876919 -0.245878
C12   C     C_3   0.504845 0.498814 0.122792 -0.196315
C13   C     C_R   0.818408 0.459783 0.398559 -0.260184
C14   C     C_R   0.181288 0.538262 0.603935 -0.257182
C15   C     C_R   0.767801 0.499391 0.500707 -0.043089
C16   C     C_R   0.231941 0.499451 0.501120 -0.043587
C17   C     C_R   0.806664 0.535591 0.605421 -0.206373
C18   C     C_R   0.192805 0.457671 0.400441 -0.209543
C19   C     C_R   0.899552 0.529449 0.612569 0.069561
C20   C     C_R   0.099342 0.454868 0.399324 0.067529
C21   C     C_R   0.952832 0.494111 0.504635 -0.045281
C22   C     C_R   0.046345 0.494595 0.504478 -0.042449
C23   C     C_R   0.912065 0.459664 0.395910 0.086815
C24   C     C_R   0.087405 0.535392 0.609007 0.085932
C25   C     C_R   0.940025 0.560099 0.722950 0.184944
C26   C     C_R   0.058546 0.414732 0.294760 0.185069
C27   C     C_R   0.034567 0.570603 0.716846 0.191922
C28   C     C_R   0.964941 0.425419 0.287710 0.191985
H3    H     H_    0.783242 0.430119 0.321531 0.142018
H4    H     H_    0.216787 0.567675 0.680739 0.139169
H5    H     H_    0.763034 0.568664 0.679633 0.151560
H6    H     H_    0.236823 0.430604 0.321810 0.157782
C29   C     C_R   0.563454 0.799232 0.422657 0.237298
C30   C     C_R   0.435616 0.200776 0.575699 0.234663
C31   C     C_R   0.436636 0.799116 0.577513 0.232279
C32   C     C_R   0.563623 0.200904 0.422769 0.251775
N1    N     N_R   0.500000 0.750030 0.500000 -0.112867
N2    N     N_R   0.500000 0.249970 0.500000 -0.107184
C33   C     C_R   0.434081 0.899335 0.575428 0.014981
C34   C     C_R   0.565855 0.100651 0.424357 0.008947
C35   C     C_R   0.565840 0.899478 0.424402 0.012373
C36   C     C_R   0.433408 0.100501 0.574244 0.013121
C37   C     C_R   0.499924 0.949598 0.499848 0.024639
C38   C     C_R   0.499812 0.050398 0.499637 0.025919
C39   C     C_R   0.367140 0.950919 0.647763 -0.191858
C40   C     C_R   0.632462 0.048995 0.351432 -0.197794
C41   C     C_R   0.632400 0.951237 0.351353 -0.196891
C42   C     C_R   0.366470 0.048665 0.646536 -0.198548
H7    H     H_    0.313517 0.916871 0.706086 0.155730
H8    H     H_    0.686208 0.082966 0.293277 0.151971
H9    H     H_    0.686045 0.917340 0.293030 0.154260
H10   H     H_    0.311973 0.082401 0.703332 0.156063
O9    O     O_3   0.362916 0.598116 0.119147 -0.630611
C43   C     C_3   0.302806 0.636174 0.035260 0.109680
H11   H     H_    0.238586 0.596141 0.047695 0.143135
H12   H     H_    0.327281 0.632885 0.931979 0.135139
C44   C     C_3   0.285241 0.738776 0.071861 -0.278879
H13   H     H_    0.264648 0.743522 0.175841 0.234647
H14   H     H_    0.348485 0.779643 0.052168 0.240495
C45   C     C_3   0.211398 0.781831 0.997829 -1.009092
H15   H     H_    0.229452 0.777124 0.893442 0.264477
H16   H     H_    0.202905 0.856953 0.024134 0.271881
H17   H     H_    0.146462 0.745080 0.021900 0.277032
O10   O     O_3   0.647360 0.408952 0.879566 -0.646658
C46   C     C_3   0.682948 0.337695 0.953757 0.118163
H18   H     H_    0.638253 0.275154 0.953786 0.178481
H19   H     H_    0.689996 0.361126 0.053958 0.134532
C47   C     C_3   0.776096 0.310002 0.893798 -0.337528
H20   H     H_    0.773352 0.299639 0.789173 0.247996
H21   H     H_    0.824785 0.367306 0.908879 0.225753
C48   C     C_3   0.808949 0.219385 0.952248 -0.981204
H22   H     H_    0.806566 0.225134 0.057903 0.259155
H23   H     H_    0.879450 0.205152 0.914551 0.273649
H24   H     H_    0.765951 0.159524 0.926942 0.267190
O11   O     O_3   0.506010 0.683710 0.920459 -0.651719
C49   C     C_3   0.588096 0.710143 0.852636 0.158696
H25   H     H_    0.570999 0.747737 0.765058 0.180475
H26   H     H_    0.632198 0.650019 0.820115 0.130538
C50   C     C_3   0.640199 0.776950 0.933722 -0.384891
H27   H     H_    0.594137 0.832201 0.975657 0.240589
H28   H     H_    0.667593 0.737114 0.012800 0.213816
C51   C     C_3   0.717921 0.823756 0.853906 -0.962624
H29   H     H_    0.763479 0.769991 0.807490 0.265934
H30   H     H_    0.757063 0.868289 0.916414 0.267758
H31   H     H_    0.691530 0.868807 0.778958 0.269081
O12   O     O_3   0.500003 0.320825 0.094922 -0.655425
C52   C     C_3   0.443915 0.257429 0.035349 0.084854
H32   H     H_    0.476718 0.187407 0.035144 0.154088
H33   H     H_    0.436160 0.274778 0.933453 0.142304
C53   C     C_3   0.352491 0.250594 0.112762 -0.316417
H34   H     H_    0.363144 0.229141 0.212351 0.237597
H35   H     H_    0.319034 0.320310 0.116440 0.219843
C54   C     C_3   0.291033 0.179193 0.054775 -0.987320
H36   H     H_    0.274415 0.202551 0.958470 0.263557
H37   H     H_    0.227307 0.172418 0.116657 0.271357
H38   H     H_    0.324119 0.109254 0.047202 0.268922
C55   C     C_3   0.884264 0.576666 0.848739 -0.956154
H39   H     H_    0.819312 0.538355 0.855889 0.249900
H40   H     H_    0.919907 0.548572 0.929478 0.252553
H41   H     H_    0.871786 0.652786 0.863017 0.248556
C56   C     C_3   0.114456 0.357919 0.194855 -0.939605
H42   H     H_    0.160135 0.310012 0.242390 0.239071
H43   H     H_    0.073408 0.310406 0.139367 0.257696
H44   H     H_    0.154615 0.405555 0.128697 0.238633
C57   C     C_3   0.079555 0.619614 0.823608 -0.946293
H45   H     H_    0.031917 0.654533 0.894760 0.259182
H46   H     H_    0.120081 0.568424 0.874503 0.232731
H47   H     H_    0.123867 0.676520 0.782580 0.240664
C58   C     C_3   0.921843 0.405349 0.164077 -0.948194
H48   H     H_    0.970890 0.404871 0.078956 0.257786
H49   H     H_    0.885799 0.337270 0.171974 0.245952
H50   H     H_    0.873809 0.462029 0.143934 0.232627
C59   C     C_3   0.631478 0.748968 0.332646 -0.834490
H51   H     H_    0.621650 0.673724 0.325964 0.286856
H52   H     H_    0.627013 0.775735 0.234114 0.203851
H53   H     H_    0.700457 0.760775 0.362713 0.213734
C60   C     C_3   0.365671 0.251321 0.662175 -0.854290
H54   H     H_    0.378222 0.325790 0.673964 0.286985
H55   H     H_    0.298164 0.242698 0.625606 0.224432
H56   H     H_    0.364671 0.222223 0.760006 0.192011
C61   C     C_3   0.369295 0.748806 0.668700 -0.851089
H57   H     H_    0.378557 0.673466 0.674396 0.288455
H58   H     H_    0.375291 0.775145 0.767200 0.229378
H59   H     H_    0.299889 0.760964 0.640538 0.211899
C62   C     C_3   0.631902 0.251302 0.332840 -0.816138
H60   H     H_    0.621780 0.326470 0.325707 0.286303
H61   H     H_    0.700777 0.239992 0.363535 0.204818
H62   H     H_    0.628220 0.224446 0.234058 0.218813

loop_
_geom_bond_atom_site_label_1
_geom_bond_atom_site_label_2
_geom_bond_distance
_ccdc_geom_bond_type
C40   H8    1.080829 S    
C43   H12   1.116753 S    
C37   C38   1.436266 A    
C15   C17   1.381868 A    
C35   C37   1.405949 A    
O11   C49   1.414775 S    
O3    C2    1.293067 A    
C30   C60   1.508880 S    
C35   C41   1.410931 A    
C31   N1    1.385320 A    
C36   C42   1.411374 A    
C46   H18   1.111597 S    
O5    C3    1.289306 A    
C28   C58   1.519705 S    
C54   H37   1.110086 S    
C4    C11   1.415612 S    
C7    C11   1.534568 S    
C59   H51   1.084991 S    
C32   C62   1.511636 S    
C8    C12   1.535842 S    
C9    H1    1.110375 S    
C60   H54   1.086059 S    
C32   C34   1.429008 A    
C44   H13   1.111908 S    
C57   H46   1.110383 S    
C43   C44   1.529022 S    
C5    O9    1.409781 S    
C3    C12   1.414270 S    
C7    C10   1.541311 S    
C53   C54   1.526283 S    
C8    C9    1.547499 S    
C44   H14   1.111676 S    
O7    Zn1   1.990128 S    
C58   H50   1.110289 S    
C5    C9    1.540889 S    
C52   H32   1.110970 S    
C29   C59   1.509682 S    
C52   C53   1.531159 S    
C59   H53   1.110431 S    
C19   C21   1.422409 A    
C33   C39   1.410582 A    
C20   C26   1.416340 A    
C18   C20   1.392433 A    
C25   C55   1.520947 S    
O3    Zn1   2.003921 S    
C2    C15   1.417660 S    
C6    C10   1.547263 S    
C51   H30   1.110366 S    
C56   H44   1.110508 S    
C32   N2    1.386061 A    
C43   H11   1.111369 S    
C29   C35   1.428942 A    
C6    O10   1.412682 S    
C17   H5    1.081818 S    
C18   H6    1.083185 S    
O2    C2    1.291956 A    
C47   C48   1.526749 S    
C54   H38   1.111895 S    
C46   H19   1.116330 S    
C25   C27   1.411143 A    
C62   H62   1.110662 S    
C36   C38   1.406159 A    
C53   H34   1.112464 S    
C10   C12   1.540962 S    
O10   C46   1.408545 S    
C45   H15   1.109170 S    
C45   H16   1.110250 S    
O8    Zn2   1.990129 S    
C57   H47   1.109798 S    
C13   H3    1.083224 S    
C50   H27   1.111829 S    
C26   C56   1.519663 S    
C47   H20   1.112015 S    
C39   C42   1.392860 A    
C31   C33   1.428738 A    
C51   H31   1.111109 S    
C40   C41   1.392922 A    
C27   C57   1.520109 S    
C19   C25   1.416592 A    
C20   C22   1.422219 A    
C44   C45   1.524661 S    
C9    C11   1.549523 S    
C50   H28   1.109669 S    
C1    C16   1.419214 S    
C62   H61   1.110482 S    
C48   H22   1.109739 S    
C49   C50   1.528413 S    
C29   N1    1.385262 A    
O6    C4    1.291037 A    
C30   C36   1.429246 A    
C21   C22   1.391521 A    
C53   H35   1.110757 S    
C58   H48   1.107765 S    
C34   C40   1.410835 A    
C13   C23   1.391844 A    
C61   H59   1.110452 S    
Zn1   N1    2.035135 S    
C47   H21   1.110963 S    
C5    C12   1.525440 S    
C52   H33   1.112611 S    
C10   H2    1.109747 S    
O12   C52   1.409225 S    
C6    C11   1.537523 S    
C61   H57   1.084643 S    
O1    C1    1.293078 A    
C55   H41   1.108687 S    
O1    Zn1   2.003394 S    
C14   H4    1.082695 S    
C59   H52   1.109190 S    
C56   H42   1.109768 S    
C54   H36   1.110639 S    
C46   C47   1.528117 S    
C14   C24   1.394484 A    
C5    C7    1.527860 S    
O6    Zn2   1.990244 S    
C48   H23   1.110238 S    
C7    O11   1.412661 S    
C41   H9    1.080781 S    
C24   C27   1.417765 A    
C49   H26   1.116398 S    
O4    C1    1.292612 A    
C39   H7    1.080939 S    
C13   C15   1.381048 A    
C62   H60   1.085104 S    
C30   N2    1.385004 A    
C14   C16   1.381944 A    
C42   H10   1.080631 S    
C60   H56   1.106311 S    
C55   H40   1.109752 S    
C23   C28   1.416106 A    
C17   C19   1.393145 A    
C55   H39   1.107085 S    
C50   C51   1.526036 S    
C26   C28   1.409203 A    
C45   H17   1.110068 S    
Zn2   N2    2.035136 S    
C16   C18   1.381322 A    
C21   C23   1.421740 A    
C22   C24   1.421797 A    
C33   C37   1.406177 A    
O4    Zn2   2.003922 S    
C51   H29   1.110001 S    
O2    Zn2   2.003392 S    
O7    C4    1.281483 A    
C58   H49   1.108028 S    
O8    C3    1.282473 A    
O5    Zn1   1.990245 S    
C48   H24   1.110804 S    
C49   H25   1.110829 S    
C6    C8    1.532778 S    
O9    C43   1.412629 S    
C61   H58   1.110151 S    
C8    O12   1.414099 S    
C60   H55   1.110402 S    
C57   H45   1.106396 S    
C31   C61   1.510029 S    
C34   C38   1.406449 A    
C56   H43   1.107656 S    
