data_mof_unit_37075.cif
_audit_creation_date              2012-12-10T17:05:15-0500
_audit_creation_method            fapswitch 2.2
_symmetry_space_group_name_H-M    P1
_symmetry_Int_Tables_number       1
_space_group_crystal_system       triclinic
_cell_length_a                    10.050074
_cell_length_b                    10.746873
_cell_length_c                    15.398894
_cell_angle_alpha                 90.09647
_cell_angle_beta                  67.282937
_cell_angle_gamma                 90.055059
_cell_volume                      1534.15926406

loop_
_atom_site_label
_atom_site_type_symbol
_atom_type_description
_atom_site_fract_x
_atom_site_fract_y
_atom_site_fract_z
_atom_type_partial_charge
C1    C     C_R   0.499212 0.737255 0.501673 0.969560
C2    C     C_R   0.712100 0.391320 0.041378 0.074349
C3    C     C_R   0.582532 0.459279 0.088882 0.024484
C4    C     C_R   0.409304 0.497371 0.676523 0.873342
C5    C     C_R   0.810666 0.377208 0.085438 -0.175876
C6    C     C_R   0.775057 0.418871 0.177113 -0.232776
C7    C     C_R   0.568191 0.527749 0.170490 -0.118626
C8    C     C_2   0.613601 0.066978 0.497916 -0.151498
C9    C     C_2   0.507199 0.131325 0.487522 -0.314835
C10   C     C_2   0.616276 0.933055 0.492396 -0.149795
C11   C     C_2   0.495068 0.868912 0.509174 -0.310025
C12   C     C_R   0.405879 0.447657 0.917869 0.106246
C13   C     C_2   0.107359 0.436085 0.441370 -0.165563
C14   C     C_2   0.953106 0.421804 0.451333 -0.091493
C15   C     C_R   0.501458 0.262769 0.497540 0.924704
C16   C     C_R   0.590886 0.501528 0.323672 0.936752
C17   C     C_R   0.352176 0.485445 0.779122 -0.067105
C18   C     C_R   0.650022 0.489345 0.221475 -0.116015
C19   C     C_R   0.163334 0.509513 0.933883 -0.205900
C20   C     C_R   0.207936 0.510814 0.835994 -0.142332
C21   C     C_R   0.448011 0.450340 0.820337 -0.244521
C22   C     C_2   0.049968 0.518400 0.593871 1.043443
C23   C     C_R   0.262642 0.482442 0.975140 0.168983
C24   C     C_2   0.494486 0.652367 0.190961 0.896741
C25   C     C_2   0.869957 0.266879 0.897755 0.895222
C26   C     C_R   0.506805 0.422279 0.959085 0.040095
C27   C     C_R   0.472119 0.457199 0.053367 0.103583
C28   C     C_R   0.326699 0.483554 0.110832 -0.148019
C29   C     C_R   0.222630 0.493720 0.072243 -0.221239
C30   C     C_R   0.640108 0.362769 0.909522 -0.258652
C31   C     C_R   0.739501 0.341482 0.951151 -0.039772
H1    H     H_    0.112707 0.516852 0.117689 0.150064
H2    H     H_    0.131659 0.536212 0.805037 0.180753
H3    H     H_    0.558930 0.433435 0.774985 0.180896
H4    H     H_    0.292729 0.496350 0.186079 0.136524
H5    H     H_    0.664037 0.322690 0.840735 0.183398
H6    H     H_    0.701285 0.112562 0.510275 0.182674
H7    H     H_    0.389546 0.911754 0.531064 0.160887
H8    H     H_    0.984616 0.632759 0.706466 0.327581
H9    H     H_    0.421872 0.798391 0.279655 0.345752
H10   H     H_    0.001890 0.125427 0.897561 0.351957
H11   H     H_    0.911912 0.328843 0.052204 0.185911
H12   H     H_    0.423860 0.088716 0.469051 0.157345
H13   H     H_    0.719495 0.887135 0.475887 0.179046
H14   H     H_    0.189490 0.392082 0.380961 0.152973
H15   H     H_    0.926730 0.346327 0.413905 0.149980
H16   H     H_    0.883957 0.580611 0.520024 0.171987
H17   H     H_    0.843390 0.393266 0.214071 0.162618
H18   H     H_    0.053197 0.534876 0.977057 0.150084
N1    N     N_2   0.148330 0.498670 0.499030 -0.158678
N2    N     N_2   0.852680 0.498640 0.499000 -0.173225
O1    O     O_R   0.386950 0.680940 0.500010 -0.569209
O2    O     O_R   0.056899 0.629708 0.638875 -0.807077
O3    O     O_2   0.465073 0.705309 0.130365 -0.606098
O4    O     O_R   0.469078 0.714126 0.275915 -0.801687
O5    O     O_2   0.937502 0.287552 0.814079 -0.585189
O6    O     O_R   0.912134 0.169648 0.941723 -0.804523
O7    O     O_R   0.613110 0.680900 0.499990 -0.624020
O8    O     O_R   0.322330 0.500030 0.632270 -0.596433
O9    O     O_R   0.548480 0.499990 0.632240 -0.603395
O10   O     O_R   0.386890 0.319100 0.500010 -0.616684
O11   O     O_R   0.613050 0.319060 0.499990 -0.615363
O12   O     O_R   0.451520 0.500010 0.367760 -0.595568
O13   O     O_R   0.677670 0.499970 0.367730 -0.626068
O14   O     O_2   0.966109 0.436412 0.637396 -0.609589
Zn1   Zn    Zn3+2 0.349000 0.500030 0.500020 1.018165
Zn2   Zn    Zn3+2 0.651000 0.499970 0.499980 0.960750

loop_
_geom_bond_atom_site_label_1
_geom_bond_atom_site_label_2
_ccdc_geom_bond_type
C25   C31   S    
C11   H7    S    
C19   C23   A    
C5    H11   S    
C22   O14   D    
C16   O12   A    
C7    C24   S    
C22   O2    S    
C19   H18   S    
C19   C20   A    
C1    C11   S    
C25   O5    D    
C30   H5    S    
C22   N1    S    
C7    C18   A    
H9    O4    S    
C3    C27   A    
C2    C3    A    
C9    C15   S    
O12   Zn1   S    
H10   O6    S    
C14   H15   S    
N2    Zn2   S    
C1    O7    A    
C24   O4    S    
C13   H14   S    
N1    Zn1   S    
C12   C23   A    
C4    O9    A    
C26   C27   A    
H8    O2    S    
C6    H17   S    
O11   Zn2   S    
C12   C21   A    
C5    C6    A    
C4    C17   S    
C23   C29   A    
C4    O8    A    
C8    C10   S    
C28   C29   A    
C15   O11   A    
C26   C30   A    
C29   H1    S    
C3    C7    A    
O8    Zn1   S    
C15   O10   A    
C30   C31   A    
C6    C18   A    
C1    O1    A    
C9    H12   S    
C2    C5    A    
C10   C11   D    
C20   H2    S    
C24   O3    D    
C13   N1    D    
C25   O6    S    
O13   Zn2   S    
O7    Zn2   S    
C17   C20   A    
O1    Zn1   S    
O9    Zn2   S    
C16   C18   S    
C8    H6    S    
C27   C28   A    
C8    C9    D    
H16   N2    S    
C21   H3    S    
C16   O13   A    
C13   C14   S    
C10   H13   S    
O10   Zn1   S    
C17   C21   A    
C14   N2    D    
C28   H4    S    
C12   C26   A    
C2    C31   A    
