data_mof_unit_22082.cif
_audit_creation_date              2012-12-10T16:50:09-0500
_audit_creation_method            fapswitch 2.2
_symmetry_space_group_name_H-M    P1
_symmetry_Int_Tables_number       1
_space_group_crystal_system       triclinic
_cell_length_a                    7.815417
_cell_length_b                    8.591777
_cell_length_c                    10.596506
_cell_angle_alpha                 91.241182
_cell_angle_beta                  85.500845
_cell_angle_gamma                 93.538408
_cell_volume                      707.891549031

loop_
_atom_site_label
_atom_site_type_symbol
_atom_type_description
_atom_site_fract_x
_atom_site_fract_y
_atom_site_fract_z
_atom_type_partial_charge
C1    C     C_R   0.544443 0.794223 0.492115 0.938603
C2    C     C_R   0.454171 0.205832 0.497735 0.890365
C3    C     C_R   0.499026 0.502588 0.260850 0.912694
C4    C     C_R   0.422915 0.785372 0.877656 -0.109817
C5    C     C_R   0.377958 0.917346 0.948456 -0.157504
C6    C     C_R   0.372244 0.915036 0.079920 -0.104351
C7    C     C_R   0.411520 0.781245 0.140833 -0.152812
C8    C     C_R   0.455673 0.645848 0.070546 0.004295
C9    C     C_3   0.732896 0.175057 0.074389 0.074360
C10   C     C_3   0.796294 0.073759 0.175818 -0.309763
C11   C     C_3   0.942834 0.977377 0.121643 -0.885853
C12   C     C_R   0.461077 0.647903 0.938458 0.094926
C13   C     C_R   0.506958 0.512055 0.871040 -0.121042
C14   C     C_R   0.551828 0.378902 0.929425 -0.332991
C15   C     C_R   0.551130 0.376856 0.059721 0.460051
C16   C     C_R   0.498170 0.508560 0.128266 -0.174908
C17   C     C_2   0.564508 0.957733 0.489617 -0.508382
C18   C     C_2   0.428141 0.043881 0.479530 0.213544
C19   C     C_R   0.502014 0.502834 0.739048 0.877340
Cl1   Cl    Cl    0.960849 0.674599 0.640308 -0.438628
Cl2   Cl    Cl    0.220654 0.976853 0.434506 -0.599583
H1    H     H_    0.581345 0.275736 0.873186 0.140818
H2    H     H_    0.841205 0.149652 0.254422 0.236147
H3    H     H_    0.689282 0.993605 0.214996 0.231343
H4    H     H_    0.896834 0.893083 0.048928 0.272321
H5    H     H_    0.992433 0.911320 0.198529 0.299640
H6    H     H_    0.048532 0.055350 0.077871 0.256279
H7    H     H_    0.429004 0.792626 0.775627 0.149301
H8    H     H_    0.348932 0.021974 0.901276 0.147322
H9    H     H_    0.338797 0.017609 0.135149 0.201984
H10   H     H_    0.408928 0.785844 0.242775 0.171541
H11   H     H_    0.691600 0.008410 0.507275 0.198454
H12   H     H_    0.013121 0.381804 0.405140 0.163707
H13   H     H_    0.837556 0.264603 0.045785 0.148864
H14   H     H_    0.703388 0.099717 0.991304 0.162423
N1    N     N_2   0.950330 0.457950 0.466250 -0.108969
N2    N     N_2   0.049670 0.542050 0.533750 0.121636
O1    O     O_R   0.389250 0.738570 0.508280 -0.547149
O2    O     O_R   0.678390 0.711630 0.486650 -0.566357
O3    O     O_R   0.355400 0.513470 0.694050 -0.605609
O4    O     O_R   0.644540 0.486530 0.672420 -0.570027
O5    O     O_R   0.321610 0.288370 0.513350 -0.597545
O6    O     O_R   0.610750 0.261430 0.491720 -0.650624
O7    O     O_R   0.355460 0.513470 0.327580 -0.643006
O8    O     O_R   0.644600 0.486530 0.305950 -0.609730
O9    O     O_3   0.582047 0.243604 0.124688 -0.663121
Zn1   Zn    Zn3+2 0.306930 0.517990 0.514440 1.060826
Zn2   Zn    Zn3+2 0.693070 0.482010 0.485560 1.028986

loop_
_geom_bond_atom_site_label_1
_geom_bond_atom_site_label_2
_ccdc_geom_bond_type
O3    Zn1   S    
C6    C7    A    
C10   H2    S    
N2    Zn1   S    
C18   Cl2   S    
C4    C12   A    
C1    C17   S    
C15   O9    S    
O7    Zn1   S    
C11   H6    S    
C2    O6    A    
C8    C12   A    
C10   C11   S    
C14   H1    S    
C17   C18   D    
C9    O9    S    
C8    C16   A    
C13   C14   A    
Cl1   N2    S    
O1    Zn1   S    
C5    C6    A    
C1    O1    A    
C2    O5    A    
C9    C10   S    
N1    N2    D    
C6    H9    S    
O4    Zn2   S    
N1    Zn2   S    
C5    H8    S    
O5    Zn1   S    
C9    H13   S    
C3    O7    A    
C2    C18   S    
C19   O3    A    
C1    O2    A    
C15   C16   A    
C7    C8    A    
H12   N1    S    
C7    H10   S    
C12   C13   A    
O6    Zn2   S    
O8    Zn2   S    
C9    H14   S    
C17   H11   S    
C11   H4    S    
C14   C15   A    
O2    Zn2   S    
C13   C19   S    
C11   H5    S    
C10   H3    S    
C4    H7    S    
C3    O8    A    
C3    C16   S    
C19   O4    A    
C4    C5    A    
