data_mof_unit_8786.cif
_audit_creation_date              2012-10-26T20:06:14-0400
_audit_creation_method            fapswitch 2.2
_symmetry_space_group_name_H-M    P1
_symmetry_Int_Tables_number       1
_space_group_crystal_system       triclinic
_cell_length_a                    9.519853
_cell_length_b                    10.833486
_cell_length_c                    13.456685
_cell_angle_alpha                 90.291015
_cell_angle_beta                  72.58038
_cell_angle_gamma                 90.100839
_cell_volume                      1324.16490493

loop_
_atom_site_label
_atom_site_type_symbol
_atom_type_description
_atom_site_fract_x
_atom_site_fract_y
_atom_site_fract_z
_atom_type_partial_charge
C1    C     C_R   0.500027 0.737926 0.500193 0.557100
C2    C     C_R   0.373813 0.488508 0.814725 -0.001574
C3    C     C_R   0.627971 0.936386 0.499384 -0.136427
C4    C     C_R   0.421473 0.493590 0.700062 0.539899
C5    C     C_R   0.627897 0.064089 0.499333 -0.142684
C6    C     C_R   0.499830 0.128230 0.500193 0.020472
C7    C     C_R   0.371791 0.063637 0.501244 -0.139084
C8    C     C_R   0.371833 0.935931 0.501379 -0.140812
C9    C     C_R   0.499965 0.871784 0.500361 0.020138
C10   C     C_R   0.898102 0.575711 0.566309 0.218211
C11   C     C_R   0.047256 0.575009 0.566169 0.011777
C12   C     C_R   0.434007 0.482136 0.979359 0.035238
C13   C     C_R   0.102104 0.424833 0.433807 -0.005532
C14   C     C_R   0.953296 0.424811 0.433864 -0.021628
C15   C     C_R   0.499897 0.262074 0.500011 0.543361
C16   C     C_R   0.578629 0.498299 0.300022 0.546103
C17   C     C_R   0.789566 0.399276 0.028488 -0.138467
C18   C     C_R   0.623150 0.482556 0.186907 -0.001041
C19   C     C_R   0.231590 0.529852 0.868450 -0.135133
C20   C     C_R   0.188687 0.543748 0.975808 -0.146821
C21   C     C_R   0.288782 0.522862 0.030813 -0.122076
C22   C     C_R   0.471592 0.453959 0.871494 0.026351
C23   C     C_R   0.542683 0.467081 0.031543 0.029976
C24   C     C_R   0.681144 0.413912 0.978124 0.048504
C25   C     C_R   0.708619 0.373029 0.875916 -0.148592
C26   C     C_R   0.604614 0.390602 0.823974 -0.124165
C27   C     C_R   0.518558 0.504322 0.135176 -0.133900
C28   C     C_R   0.760387 0.432753 0.132732 -0.141409
Cu1   Cu    Cu3+1 0.359340 0.499980 0.500000 0.928716
Cu2   Cu    Cu3+1 0.640660 0.500020 0.500000 0.960754
H1    H     H_    0.842663 0.415380 0.171801 0.121551
H2    H     H_    0.418234 0.549740 0.178373 0.119132
H3    H     H_    0.153889 0.554272 0.827180 0.126761
H4    H     H_    0.247536 0.536733 0.113799 0.100611
H5    H     H_    0.078205 0.574692 0.016469 0.121949
H6    H     H_    0.629107 0.350527 0.747067 0.148486
H7    H     H_    0.728159 0.888562 0.498496 0.130986
H8    H     H_    0.793796 0.634520 0.711997 0.208242
H9    H     H_    0.834323 0.746632 0.620980 0.190400
H10   H     H_    0.728038 0.112292 0.498500 0.124714
H11   H     H_    0.271662 0.111487 0.501968 0.126998
H12   H     H_    0.271678 0.887731 0.502239 0.126286
H13   H     H_    0.082096 0.634944 0.618937 0.103554
H14   H     H_    0.180371 0.364479 0.380804 0.116355
H15   H     H_    0.919416 0.364552 0.380901 0.105014
H16   H     H_    0.811091 0.326988 0.835803 0.108470
H17   H     H_    0.895473 0.358897 0.987978 0.111594
N1    N     N_R   0.147940 0.499970 0.499970 -0.237685
N2    N     N_R   0.852060 0.500060 0.499990 -0.196334
N3    N     N_3   0.795461 0.656226 0.636021 -0.556025
O1    O     O_R   0.381250 0.680340 0.500010 -0.511504
O2    O     O_R   0.618820 0.680370 0.500010 -0.471477
O3    O     O_R   0.323240 0.499950 0.650980 -0.509425
O4    O     O_R   0.560810 0.499980 0.650980 -0.474256
O5    O     O_R   0.381180 0.319630 0.499990 -0.507986
O6    O     O_R   0.618750 0.319660 0.499990 -0.519888
O7    O     O_R   0.439190 0.500020 0.349020 -0.507109
O8    O     O_R   0.676760 0.500050 0.349020 -0.506672

loop_
_geom_bond_atom_site_label_1
_geom_bond_atom_site_label_2
_ccdc_geom_bond_type
C2    C22   A    
C13   N1    A    
C2    C4    S    
C23   C24   A    
C28   H1    S    
C11   H13   S    
C6    C7    A    
C3    C9    A    
C23   C27   A    
C4    O3    A    
C10   N2    A    
Cu2   O4    S    
C19   C20   A    
C15   O6    A    
Cu1   O1    S    
C12   C21   A    
C27   H2    S    
C1    C9    S    
C7    C8    A    
C15   O5    A    
C16   O8    A    
C13   C14   A    
C24   C25   A    
C1    O1    A    
C12   C23   A    
C11   N1    A    
Cu1   Cu2   S    
Cu1   O3    S    
H8    N3    S    
Cu2   O8    S    
C26   H6    S    
C25   C26   A    
Cu2   N2    S    
C8    H12   S    
C14   H15   S    
C16   O7    A    
C7    H11   S    
C22   C26   A    
C5    C6    A    
C1    O2    A    
C17   C24   A    
C10   C11   A    
Cu1   N1    S    
C14   N2    A    
C12   C22   A    
H9    N3    S    
C18   C28   A    
C20   C21   A    
C3    H7    S    
C16   C18   S    
C19   H3    S    
C5    H10   S    
Cu2   O2    S    
C21   H4    S    
Cu1   O5    S    
C4    O4    A    
C6    C15   S    
C2    C19   A    
C17   C28   A    
Cu2   O6    S    
C25   H16   S    
C20   H5    S    
C13   H14   S    
C18   C27   A    
C17   H17   S    
Cu1   O7    S    
C8    C9    A    
C3    C5    A    
C10   N3    S    
