data_mof_unit_8879.cif
_audit_creation_date              2012-12-11T14:43:30-0500
_audit_creation_method            fapswitch 2.2
_symmetry_space_group_name_H-M    P1
_symmetry_Int_Tables_number       1
_space_group_crystal_system       triclinic
_cell_length_a                    20.760393
_cell_length_b                    7.099025
_cell_length_c                    16.269417
_cell_angle_alpha                 90.720624
_cell_angle_beta                  92.355915
_cell_angle_gamma                 91.00149
_cell_volume                      2395.15825577

loop_
_atom_site_label
_atom_site_type_symbol
_atom_type_description
_atom_site_fract_x
_atom_site_fract_y
_atom_site_fract_z
_atom_type_partial_charge
O1    O     O_R   0.564840 0.505290 0.579830 -0.534689
O2    O     O_R   0.435160 0.005290 0.420170 -0.537559
O3    O     O_R   0.556720 0.179930 0.409350 -0.542533
O4    O     O_R   0.443280 0.679930 0.590650 -0.543423
C1    C     C_R   0.569164 0.344736 0.379141 0.739711
C2    C     C_R   0.429702 0.844921 0.619647 0.723006
O5    O     O_R   0.572280 0.175810 0.578530 -0.534633
O6    O     O_R   0.427720 0.675810 0.421470 -0.541851
O7    O     O_R   0.450830 0.001920 0.590540 -0.528832
O8    O     O_R   0.549170 0.501920 0.409460 -0.532789
C3    C     C_R   0.589939 0.346543 0.604828 0.688051
C4    C     C_R   0.409514 0.841932 0.395410 0.690436
O9    O     O_3   0.460130 0.338030 0.503750 -0.374739
O10   O     O_3   0.539870 0.838030 0.496250 -0.366459
V1    V     V_3+5 0.507400 0.064560 0.499310 1.395017
V2    V     V_3+5 0.492600 0.564560 0.500690 1.393265
C5    C     C_R   0.141316 0.925918 0.172207 -0.096226
C6    C     C_R   0.859580 0.401213 0.827857 -0.083271
C7    C     C_R   0.354945 0.841049 0.333285 -0.059016
C8    C     C_R   0.642873 0.365296 0.668360 -0.047562
C9    C     C_R   0.298292 0.690201 0.214746 -0.175262
C10   C     C_R   0.683711 0.497248 0.799941 -0.169968
C11   C     C_R   0.350539 0.699799 0.271869 -0.175936
C12   C     C_R   0.633038 0.465889 0.741578 -0.173310
C13   C     C_R   0.304770 0.970704 0.337931 -0.232892
C14   C     C_R   0.704572 0.297613 0.653815 -0.222979
C15   C     C_R   0.250351 0.955949 0.283071 0.115597
C16   C     C_R   0.756258 0.333288 0.711236 0.119217
C17   C     C_R   0.247528 0.816770 0.220144 0.153542
C18   C     C_R   0.745776 0.432790 0.785126 0.153914
C19   C     C_R   0.193881 0.805305 0.164255 -0.277284
C20   C     C_R   0.797349 0.465687 0.842867 -0.270361
C21   C     C_R   0.141800 0.053922 0.240427 0.149264
C22   C     C_R   0.870514 0.308383 0.751834 0.143906
C23   C     C_R   0.197593 0.073086 0.292382 -0.193171
C24   C     C_R   0.818470 0.273917 0.695090 -0.196772
H1    H     H_    0.193354 0.703940 0.113789 0.127163
H2    H     H_    0.788808 0.537663 0.900487 0.116356
H3    H     H_    0.296875 0.580766 0.167630 0.116698
H4    H     H_    0.674510 0.573905 0.856159 0.115569
H5    H     H_    0.198807 0.175666 0.342406 0.122011
H6    H     H_    0.826784 0.200694 0.637683 0.119453
H7    H     H_    0.387621 0.595812 0.268287 0.127939
H8    H     H_    0.585824 0.519628 0.753683 0.106420
H9    H     H_    0.306726 0.077103 0.386423 0.117933
H10   H     H_    0.712727 0.223177 0.596666 0.101465
C25   C     C_R   0.386689 0.904444 0.845007 0.129501
C26   C     C_R   0.615473 0.447987 0.158836 0.106088
H11   H     H_    0.297930 0.888634 0.965960 0.136767
H12   H     H_    0.702000 0.438730 0.036977 0.131417
C27   C     C_R   0.392852 0.856355 0.695751 -0.112102
C28   C     C_R   0.606031 0.356007 0.302898 -0.076063
C29   C     C_R   0.082315 0.928516 0.731654 -0.200917
C30   C     C_R   0.919470 0.421637 0.268936 -0.206761
C31   C     C_R   0.118475 0.966140 0.663680 -0.159882
C32   C     C_R   0.884427 0.447941 0.338873 -0.162897
C33   C     C_R   0.186135 0.981096 0.670361 0.143475
C34   C     C_R   0.816838 0.461870 0.334294 0.142650
C35   C     C_R   0.218669 0.925509 0.745755 0.077571
C36   C     C_R   0.782794 0.421069 0.257076 0.077572
C37   C     C_R   0.180588 0.908152 0.816902 0.043383
C38   C     C_R   0.820218 0.413075 0.184836 0.044886
C39   C     C_R   0.287217 0.898948 0.755240 0.045928
C40   C     C_R   0.713594 0.402724 0.246825 0.044084
C41   C     C_R   0.317723 0.902204 0.835172 0.085322
C42   C     C_R   0.683659 0.429310 0.167941 0.103062
C43   C     C_R   0.278294 0.896812 0.903708 -0.194864
C44   C     C_R   0.722415 0.431366 0.098952 -0.192876
C45   C     C_R   0.211561 0.892847 0.894535 -0.190843
C46   C     C_R   0.788724 0.414577 0.107085 -0.191916
C47   C     C_R   0.325532 0.857244 0.688148 -0.262973
C48   C     C_R   0.673540 0.352403 0.311347 -0.279368
C49   C     C_R   0.424513 0.881326 0.774050 0.094976
C50   C     C_R   0.575848 0.394756 0.224882 0.095571
C51   C     C_R   0.112157 0.911973 0.809338 -0.084559
C52   C     C_R   0.888670 0.411656 0.191438 -0.080451
H13   H     H_    0.303583 0.815506 0.629624 0.118234
H14   H     H_    0.693939 0.300076 0.368107 0.120194
H15   H     H_    0.030259 0.926570 0.724568 0.109623
H16   H     H_    0.971607 0.423939 0.274824 0.118236
H17   H     H_    0.092683 0.997573 0.606376 0.116357
H18   H     H_    0.911271 0.471250 0.396740 0.114170
H19   H     H_    0.184262 0.881979 0.949654 0.108367
H20   H     H_    0.815455 0.410263 0.051344 0.106647
O11   O     O_R   0.950790 0.256670 0.090520 -0.536004
O12   O     O_R   0.049210 0.756670 0.909480 -0.532351
O13   O     O_R   0.927720 0.590370 0.921470 -0.534171
O14   O     O_R   0.072280 0.090370 0.078530 -0.544229
C53   C     C_R   0.911059 0.419493 0.893832 0.687831
C54   C     C_R   0.088743 0.924240 0.106893 0.684410
O15   O     O_R   0.943270 0.586180 0.090640 -0.534332
O16   O     O_R   0.056730 0.086180 0.909360 -0.537690
O17   O     O_R   0.064850 0.759970 0.079840 -0.533445
O18   O     O_R   0.935150 0.259970 0.920160 -0.540405
C55   C     C_R   0.929886 0.417781 0.119065 0.687556
C56   C     C_R   0.070415 0.917768 0.881165 0.690854
O19   O     O_3   0.039850 0.428050 0.996240 -0.369749
O20   O     O_3   0.960150 0.928050 0.003760 -0.366956
V3    V     V_3+5 0.992610 0.701540 0.000700 1.420674
V4    V     V_3+5 0.007390 0.201540 0.999300 1.406077
C57   C     C_3   0.217860 0.091881 0.602350 -0.366532
C58   C     C_3   0.252939 0.270121 0.635567 -0.716507
H21   H     H_    0.219684 0.357719 0.671017 0.227605
H22   H     H_    0.295404 0.235555 0.675699 0.235073
H23   H     H_    0.270143 0.354198 0.583425 0.206023
H24   H     H_    0.249640 0.006914 0.564609 0.162169
H25   H     H_    0.180578 0.140159 0.556648 0.168590
C59   C     C_3   0.787318 0.556892 0.408420 -0.360965
C60   C     C_3   0.754716 0.741928 0.385776 -0.719681
H26   H     H_    0.789057 0.836765 0.354929 0.226092
H27   H     H_    0.711475 0.717648 0.344578 0.234351
H28   H     H_    0.739194 0.813592 0.442529 0.207068
H29   H     H_    0.754868 0.463770 0.442021 0.159959
H30   H     H_    0.825621 0.594441 0.455921 0.172084
C61   C     C_3   0.082995 0.163784 0.263537 -0.359888
C62   C     C_3   0.057710 0.096121 0.345342 -0.778087
H31   H     H_    0.046200 0.942723 0.341604 0.232000
H32   H     H_    0.093763 0.123673 0.396572 0.220862
H33   H     H_    0.013108 0.171702 0.359529 0.219329
H34   H     H_    0.095863 0.316260 0.268490 0.174050
H35   H     H_    0.042595 0.148215 0.217367 0.190405
C63   C     C_3   0.936775 0.247091 0.727583 -0.364630
C64   C     C_3   0.962984 0.373920 0.661125 -0.765880
H36   H     H_    0.931107 0.366966 0.604606 0.221149
H37   H     H_    0.966831 0.522091 0.683898 0.227333
H38   H     H_    0.011721 0.326860 0.645187 0.222307
H39   H     H_    0.972517 0.249491 0.779958 0.190919
H40   H     H_    0.933418 0.099463 0.704114 0.168636
C65   C     C_3   0.498131 0.873892 0.780607 -0.358102
C66   C     C_3   0.529144 0.070318 0.788690 -0.722786
H41   H     H_    0.510859 0.161416 0.738218 0.224569
H42   H     H_    0.519158 0.137505 0.848458 0.220084
H43   H     H_    0.582234 0.059443 0.784796 0.218619
H44   H     H_    0.514936 0.782129 0.831482 0.153736
H45   H     H_    0.517881 0.805035 0.725786 0.170269
C67   C     C_3   0.502702 0.376898 0.207870 -0.415840
C68   C     C_3   0.464304 0.240999 0.260171 -0.711708
H46   H     H_    0.490520 0.107362 0.269286 0.225486
H47   H     H_    0.452871 0.307469 0.319687 0.233725
H48   H     H_    0.417235 0.206139 0.228046 0.204520
H49   H     H_    0.481610 0.519196 0.209756 0.176268
H50   H     H_    0.494271 0.317386 0.144852 0.181001
C69   C     C_3   0.419009 0.935888 0.930594 -0.353878
C70   C     C_3   0.410068 0.137406 0.962369 -0.764565
H51   H     H_    0.428704 0.240954 0.918235 0.225129
H52   H     H_    0.358694 0.167537 0.971838 0.229327
H53   H     H_    0.437105 0.157438 0.022223 0.209564
H54   H     H_    0.400343 0.832305 0.974637 0.162083
H55   H     H_    0.471333 0.911569 0.932801 0.185875
C71   C     C_3   0.586132 0.538053 0.080731 -0.387534
C72   C     C_3   0.609125 0.742813 0.072355 -0.749947
H56   H     H_    0.596401 0.826454 0.127365 0.232201
H57   H     H_    0.661930 0.753557 0.065315 0.232148
H58   H     H_    0.585033 0.805227 0.017138 0.208580
H59   H     H_    0.597167 0.454171 0.025234 0.169606
H60   H     H_    0.533025 0.545360 0.079380 0.177632

loop_
_geom_bond_atom_site_label_1
_geom_bond_atom_site_label_2
_ccdc_geom_bond_type
C57   H25   S    
C42   C44   A    
C39   C41   A    
C57   C58   S    
C61   H35   S    
C26   C71   S    
O12   V3    S    
C15   C17   A    
C63   H39   S    
C24   H6    S    
O1    C3    A    
C40   C48   A    
O2    C4    A    
C2    O7    A    
C64   H36   S    
C62   H31   S    
O5    C3    A    
C68   H47   S    
C5    C21   A    
C45   H19   S    
C29   H15   S    
C28   C50   A    
C60   H27   S    
C52   C55   S    
C33   C35   A    
C34   C36   A    
C61   C62   S    
C25   C69   S    
O16   C56   A    
C11   H7    S    
C59   C60   S    
C38   C46   A    
C58   H23   S    
C36   C38   A    
C72   H58   S    
C59   H30   S    
C53   O18   A    
C67   H50   S    
C65   H45   S    
O13   C53   A    
C8    C12   A    
C32   C34   A    
C41   C43   A    
C50   C67   S    
C48   H14   S    
C72   H56   S    
C1    C28   S    
C66   H42   S    
C20   H2    S    
C2    C27   S    
C31   H17   S    
C46   H20   S    
O17   V3    S    
C30   H16   S    
O5    V1    S    
O6    V2    S    
C71   H60   S    
C38   C52   A    
C29   C51   A    
C27   C47   A    
C70   H53   S    
C7    C13   A    
O19   V3    S    
C51   C56   S    
O13   V3    S    
C29   C31   A    
C69   H54   S    
C68   H48   S    
C49   C65   S    
C3    C8    S    
C35   C37   A    
C34   C59   S    
C21   C61   S    
C26   C50   A    
C25   C49   A    
C70   H52   S    
C60   H28   S    
C70   H51   S    
C64   H38   S    
C15   C23   A    
C9    C17   A    
C37   C51   A    
C19   H1    S    
C43   C45   A    
C40   C42   A    
C59   H29   S    
O4    V2    S    
C7    C11   A    
C67   H49   S    
C28   C48   A    
C9    H3    S    
O18   V4    S    
O6    C4    A    
C10   H4    S    
O1    V2    S    
C58   H22   S    
O2    V1    S    
C6    C22   A    
O14   V4    S    
O12   C56   A    
C32   H18   S    
C30   C52   A    
O4    C2    A    
C39   C47   A    
C61   H34   S    
O20   V4    S    
C71   H59   S    
C9    C11   A    
C5    C19   A    
C10   C12   A    
C66   H43   S    
C6    C20   A    
C13   H9    S    
C47   H13   S    
O19   V4    S    
O3    V1    S    
O16   V4    S    
C54   O17   A    
C65   C66   S    
C37   C45   A    
C57   H24   S    
C10   C18   A    
O10   V1    S    
C6    C53   S    
C14   C16   A    
C5    C54   S    
C27   C49   A    
O14   C54   A    
C67   C68   S    
O3    C1    A    
C30   C32   A    
H11   C43   S    
C13   C15   A    
C33   C57   S    
C68   H46   S    
C35   C39   A    
C62   H33   S    
C36   C40   A    
O15   V3    S    
C31   C33   A    
C66   H41   S    
O7    V1    S    
C1    O8    A    
C17   C19   A    
O11   V4    S    
O8    V2    S    
C60   H26   S    
C18   C20   A    
O11   C55   A    
C8    C14   A    
C12   H8    S    
C4    C7    S    
C16   C18   A    
C21   C23   A    
C62   H32   S    
C22   C24   A    
C72   H57   S    
C63   H40   S    
C58   H21   S    
C23   H5    S    
C64   H37   S    
C14   H10   S    
O15   C55   A    
C65   H44   S    
C69   H55   S    
C16   C24   A    
C22   C63   S    
O20   V3    S    
O9    V2    S    
C44   C46   A    
C71   C72   S    
C26   C42   A    
C63   C64   S    
H12   C44   S    
C25   C41   A    
C69   C70   S    
