data_mof_unit_30417.cif
_audit_creation_date              2012-12-10T17:43:23-0500
_audit_creation_method            fapswitch 2.2
_symmetry_space_group_name_H-M    P1
_symmetry_Int_Tables_number       1
_space_group_crystal_system       triclinic
_cell_length_a                    15.106983
_cell_length_b                    13.722117
_cell_length_c                    10.610978
_cell_angle_alpha                 91.030683
_cell_angle_beta                  89.634593
_cell_angle_gamma                 89.110445
_cell_volume                      2198.98378962

loop_
_atom_site_label
_atom_site_type_symbol
_atom_type_description
_atom_site_fract_x
_atom_site_fract_y
_atom_site_fract_z
_atom_type_partial_charge
C1    C     C_R   0.328784 0.500954 0.502617 0.823755
C2    C     C_R   0.671420 0.498897 0.495674 0.808505
C3    C     C_R   0.953887 0.501539 0.489131 -0.017990
C4    C     C_R   0.047019 0.504002 0.495133 -0.026927
C5    C     C_R   0.910967 0.425488 0.421275 0.028034
C6    C     C_R   0.089878 0.577482 0.567805 0.032555
C7    C     C_R   0.945447 0.650490 0.616935 -0.281174
C8    C     C_R   0.055620 0.362705 0.353487 -0.241626
C9    C     C_R   0.037361 0.651689 0.628391 0.259651
C10   C     C_R   0.963837 0.359014 0.346793 0.257134
C11   C     C_R   0.455481 0.794729 0.592101 -0.004787
C12   C     C_R   0.545114 0.204987 0.408768 0.000971
C13   C     C_R   0.546814 0.790805 0.410936 0.012399
C14   C     C_R   0.454825 0.209390 0.590942 0.011916
C15   C     C_R   0.551186 0.894050 0.410329 -0.044749
C16   C     C_R   0.454904 0.106058 0.596694 -0.043340
C17   C     C_R   0.453688 0.898440 0.596266 -0.037982
C18   C     C_R   0.547476 0.101310 0.405620 -0.039984
C19   C     C_R   0.501788 0.948283 0.502481 0.018640
C20   C     C_R   0.501567 0.051668 0.501795 0.016310
C21   C     C_R   0.603191 0.943276 0.319732 0.063136
C22   C     C_R   0.409938 0.056874 0.694804 0.068618
C23   C     C_R   0.406704 0.952698 0.692233 0.063384
C24   C     C_R   0.595808 0.046996 0.310935 0.063351
C25   C     C_R   0.499696 0.499354 0.259174 0.779157
C26   C     C_R   0.500770 0.500701 0.740872 0.778090
C27   C     C_3   0.432481 0.555979 0.044133 -0.157532
C28   C     C_3   0.567859 0.444557 0.956081 -0.162886
C29   C     C_3   0.509914 0.592485 0.962566 -0.130897
C30   C     C_3   0.490421 0.408066 0.037662 -0.143081
C31   C     C_3   0.423382 0.465230 0.957087 -0.188388
C32   C     C_3   0.576984 0.535242 0.043225 -0.178994
C33   C     C_3   0.500727 0.501754 0.877738 0.027934
C34   C     C_3   0.499603 0.498689 0.122429 0.027611
C35   C     C_R   0.817486 0.419492 0.430436 0.202317
C36   C     C_R   0.183527 0.574591 0.575637 0.210871
C37   C     C_R   0.768407 0.496916 0.489565 -0.138353
C38   C     C_R   0.232194 0.503296 0.504874 -0.131193
C39   C     C_R   0.812179 0.574597 0.546493 -0.276152
C40   C     C_R   0.188813 0.433103 0.433175 -0.280200
C41   C     C_R   0.903819 0.575540 0.550980 0.085638
C42   C     C_R   0.097155 0.432545 0.428361 0.069721
Cu1   Cu    Cu3+1 0.500000 0.597420 0.500000 0.923339
Cu2   Cu    Cu3+1 0.500000 0.402580 0.500000 0.920664
H1    H     H_    0.360631 0.435984 0.919390 0.120609
H2    H     H_    0.639808 0.563486 0.082111 0.122911
H3    H     H_    0.376999 0.601322 0.083280 0.130972
H4    H     H_    0.623436 0.399826 0.916126 0.129481
H5    H     H_    0.519230 0.667555 0.929145 0.134361
H6    H     H_    0.480389 0.333357 0.071815 0.142442
H7    H     H_    0.774377 0.632837 0.593198 0.163858
H8    H     H_    0.227036 0.379056 0.379193 0.159017
H9    H     H_    0.906176 0.708368 0.661708 0.146302
H10   H     H_    0.094946 0.310964 0.297475 0.155736
H11   H     H_    0.422517 0.752492 0.662248 0.138499
H12   H     H_    0.579546 0.246808 0.339597 0.139985
H13   H     H_    0.579623 0.745920 0.340069 0.143913
H14   H     H_    0.418239 0.254675 0.657479 0.146650
N1    N     N_R   0.500000 0.743810 0.500000 -0.186917
N2    N     N_R   0.500000 0.256190 0.500000 -0.187549
O1    O     O_R   0.370260 0.582280 0.500030 -0.585315
O2    O     O_R   0.629740 0.417720 0.499970 -0.578671
O3    O     O_R   0.629740 0.582280 0.499970 -0.585143
O4    O     O_R   0.370260 0.417720 0.500030 -0.584450
O5    O     O_R   0.499980 0.582260 0.316850 -0.589834
O6    O     O_R   0.500020 0.417740 0.683150 -0.589845
O7    O     O_R   0.500020 0.582260 0.683150 -0.593013
O8    O     O_R   0.499980 0.417740 0.316850 -0.598895
N3    N     N_2   0.774414 0.333851 0.386788 -0.435503
H15   H     H_    0.717320 0.344361 0.335917 0.253269
C43   C     C_3   0.771291 0.256206 0.477520 -0.686138
H16   H     H_    0.743816 0.189783 0.432561 0.211125
H17   H     H_    0.729155 0.277699 0.559755 0.252147
H18   H     H_    0.838933 0.238105 0.511313 0.219890
N4    N     N_2   0.227724 0.639929 0.658931 -0.392126
H19   H     H_    0.269747 0.687797 0.616239 0.260748
C44   C     C_3   0.262039 0.596751 0.772308 -0.669498
H20   H     H_    0.286021 0.654890 0.836562 0.219642
H21   H     H_    0.317973 0.546381 0.749549 0.204764
H22   H     H_    0.209513 0.555992 0.821441 0.222636
N5    N     N_2   0.075925 0.731235 0.694809 -0.397418
H23   H     H_    0.059446 0.797844 0.657200 0.239022
C45   C     C_3   0.062811 0.730701 0.830030 -0.662942
H24   H     H_    0.104580 0.787350 0.874696 0.223414
H25   H     H_    0.082161 0.658817 0.868562 0.237704
H26   H     H_    0.992374 0.746815 0.854296 0.203772
N6    N     N_2   0.928501 0.292870 0.256089 -0.424541
H27   H     H_    0.893202 0.235188 0.289567 0.277396
C46   C     C_3   0.896371 0.335920 0.141297 -0.675106
H28   H     H_    0.876583 0.277361 0.074126 0.218455
H29   H     H_    0.949472 0.378829 0.096634 0.230312
H30   H     H_    0.838125 0.384245 0.160940 0.224075
C47   C     C_3   0.670140 0.885252 0.238412 -0.410099
C48   C     C_3   0.629727 0.851254 0.112919 -0.344490
C49   C     C_3   0.696705 0.792410 0.033440 -0.867307
H31   H     H_    0.754677 0.837806 0.010527 0.253483
H32   H     H_    0.719449 0.727009 0.085014 0.250026
H33   H     H_    0.665399 0.768242 0.944021 0.238781
H34   H     H_    0.571407 0.805154 0.130975 0.214990
H35   H     H_    0.607153 0.914938 0.058115 0.223940
H36   H     H_    0.731381 0.926891 0.222897 0.185336
H37   H     H_    0.696756 0.821730 0.290021 0.183629
C50   C     C_3   0.368018 0.115816 0.804254 -0.425012
C51   C     C_3   0.274109 0.151370 0.771880 -0.345179
C52   C     C_3   0.234325 0.214024 0.878815 -0.853181
H38   H     H_    0.230225 0.171345 0.966579 0.252211
H39   H     H_    0.275438 0.279240 0.896123 0.246780
H40   H     H_    0.166580 0.238640 0.852951 0.244745
H41   H     H_    0.275068 0.194967 0.684724 0.219193
H42   H     H_    0.230773 0.087955 0.754426 0.214525
H43   H     H_    0.366441 0.074270 0.892667 0.206177
H44   H     H_    0.410097 0.178198 0.831030 0.182573
C53   C     C_3   0.354853 0.900017 0.793966 -0.410875
C54   C     C_3   0.415980 0.872095 0.903075 -0.353023
C55   C     C_3   0.363835 0.834916 0.015554 -0.863543
H45   H     H_    0.318931 0.893278 0.053744 0.254078
H46   H     H_    0.324132 0.770934 0.987648 0.249427
H47   H     H_    0.410205 0.812846 0.090961 0.239682
H48   H     H_    0.463939 0.815145 0.870184 0.210932
H49   H     H_    0.454597 0.936148 0.934751 0.211560
H50   H     H_    0.298206 0.944827 0.829703 0.205560
H51   H     H_    0.321066 0.835101 0.755185 0.184884
C56   C     C_3   0.635612 0.099340 0.198047 -0.422266
C57   C     C_3   0.563292 0.130749 0.105639 -0.348147
C58   C     C_3   0.603749 0.177559 0.989665 -0.874855
H52   H     H_    0.644725 0.240545 0.018436 0.253559
H53   H     H_    0.645769 0.123630 0.936568 0.255817
H54   H     H_    0.550552 0.203603 0.926511 0.240236
H55   H     H_    0.524819 0.066352 0.074773 0.212757
H56   H     H_    0.516435 0.183082 0.152119 0.211616
H57   H     H_    0.675082 0.162529 0.229747 0.183233
H58   H     H_    0.683546 0.054314 0.143199 0.210582

loop_
_geom_bond_atom_site_label_1
_geom_bond_atom_site_label_2
_ccdc_geom_bond_type
C39   H7    S    
N6    H27   S    
C47   C48   S    
C56   H58   S    
C27   C29   S    
Cu2   O6    S    
C19   C20   A    
Cu1   Cu2   S    
C6    C9    A    
N5    H23   S    
C49   H33   S    
Cu1   O3    S    
C56   C57   S    
C39   C41   A    
C29   H5    S    
C44   H20   S    
Cu2   O4    S    
C15   C19   A    
C52   H39   S    
C17   C23   A    
C4    C42   A    
C18   C24   A    
C26   O7    A    
C35   C37   A    
C8    C42   A    
C29   C32   S    
C30   C31   S    
C13   H13   S    
C55   H45   S    
C29   C33   S    
C50   H43   S    
N3    C43   S    
C28   H4    S    
C53   H51   S    
C49   H31   S    
C55   H46   S    
C58   H54   S    
C31   C33   S    
C46   H29   S    
C54   H48   S    
Cu1   O5    S    
C25   C34   S    
C40   C42   A    
C30   H6    S    
C38   C40   A    
C48   C49   S    
C25   O8    A    
C11   N1    A    
C51   C52   S    
N5    C45   S    
C54   C55   S    
C44   H21   S    
C27   C34   S    
C14   H14   S    
C52   H40   S    
C10   N6    S    
C30   C34   S    
C27   C31   S    
C26   O6    A    
C28   C32   S    
C25   O5    A    
C4    C6    A    
C47   H36   S    
C43   H17   S    
Cu2   O2    S    
C40   H8    S    
C24   C56   S    
C22   C50   S    
C50   H44   S    
C32   C34   S    
N4    H19   S    
C36   N4    S    
C23   C53   S    
C26   C33   S    
C45   H24   S    
C48   H35   S    
C16   C20   A    
C55   H47   S    
C57   H56   S    
C46   H30   S    
N4    C44   S    
C12   H12   S    
C1    C38   S    
Cu1   O7    S    
C45   H25   S    
C28   C33   S    
C13   C15   A    
C58   H52   S    
C14   C16   A    
Cu2   O8    S    
C7    H9    S    
C8    H10   S    
C3    C4    A    
C1    O4    A    
C11   H11   S    
C2    O3    A    
Cu1   O1    S    
C53   C54   S    
C44   H22   S    
C27   H3    S    
C7    C9    A    
C11   C17   A    
C16   C22   A    
C56   H57   S    
C32   H2    S    
C3    C5    A    
C1    O1    A    
C47   H37   S    
C43   H18   S    
C49   H32   S    
C13   N1    A    
Cu1   N1    S    
C14   N2    A    
C52   H38   S    
C28   C30   S    
C43   H16   S    
C37   C39   A    
C51   H42   S    
C2    C37   S    
C51   H41   S    
C15   C21   A    
C21   C47   S    
C48   H34   S    
Cu2   N2    S    
C5    C35   A    
C36   C38   A    
C17   C19   A    
C6    C36   A    
C57   H55   S    
C18   C20   A    
C7    C41   A    
N3    H15   S    
C3    C41   A    
C12   N2    A    
C5    C10   A    
C45   H26   S    
C53   H50   S    
C35   N3    S    
C8    C10   A    
C31   H1    S    
C21   C24   A    
C12   C18   A    
C50   C51   S    
C58   H53   S    
N6    C46   S    
C22   C23   A    
C46   H28   S    
C54   H49   S    
C2    O2    A    
C9    N5    S    
C57   C58   S    
