data_mof_unit_45986.cif
_audit_creation_date              2012-12-11T14:35:50-0500
_audit_creation_method            fapswitch 2.2
_symmetry_space_group_name_H-M    P1
_symmetry_Int_Tables_number       1
_space_group_crystal_system       monoclinic
_cell_length_a                    14.52825
_cell_length_b                    16.006458
_cell_length_c                    6.926203
_cell_angle_alpha                 90.0
_cell_angle_beta                  80.720108
_cell_angle_gamma                 90.0
_cell_volume                      1589.5798643

loop_
_atom_site_label
_atom_site_type_symbol
_atom_type_description
_atom_site_fract_x
_atom_site_fract_y
_atom_site_fract_z
_atom_type_partial_charge
O1    O     O_R   0.337460 0.413110 0.524760 -0.547346
O2    O     O_R   0.662540 0.913110 0.475240 -0.547346
O3    O     O_R   0.348690 0.587910 0.191230 -0.549139
O4    O     O_R   0.651310 0.087910 0.808770 -0.549138
O5    O     O_R   0.166530 0.586890 0.082470 -0.547148
O6    O     O_R   0.833470 0.086890 0.917530 -0.547148
C1    C     C_R   0.371421 0.616421 0.352501 0.637963
C2    C     C_R   0.628579 0.116421 0.647499 0.637963
O7    O     O_R   0.348700 0.413830 0.191250 -0.535386
O8    O     O_R   0.651300 0.913830 0.808750 -0.535386
O9    O     O_R   0.166530 0.411570 0.082490 -0.544136
O10   O     O_R   0.833470 0.911570 0.917510 -0.544136
C3    C     C_R   0.371073 0.385367 0.352861 0.768375
C4    C     C_R   0.628926 0.885367 0.647139 0.768375
O11   O     O_R   0.337460 0.588430 0.524740 -0.552827
O12   O     O_R   0.662540 0.088430 0.475260 -0.552827
O13   O     O_3   0.192230 0.499460 0.407330 -0.366284
O14   O     O_3   0.807770 0.999460 0.592670 -0.366284
V1    V     V_3+5 0.263080 0.500100 0.108540 1.431208
V2    V     V_3+5 0.736920 0.000100 0.891460 1.431206
O15   O     O_R   0.155290 0.412090 0.756570 -0.527618
O16   O     O_R   0.844710 0.912090 0.243430 -0.527618
C5    C     C_R   0.132713 0.382925 0.933348 0.728120
C6    C     C_R   0.867287 0.882925 0.066652 0.728114
O17   O     O_R   0.155290 0.586170 0.756550 -0.541036
O18   O     O_R   0.844710 0.086170 0.243450 -0.541036
C7    C     C_R   0.132406 0.615113 0.933126 0.737490
C8    C     C_R   0.867594 0.115113 0.066874 0.737492
V3    V     V_3+5 0.240910 0.499900 0.616030 1.440410
V4    V     V_3+5 0.759090 0.999900 0.383970 1.440410
O19   O     O_3   0.311760 0.500540 0.867100 -0.375503
O20   O     O_3   0.688240 0.000540 0.132900 -0.375503
C9    C     C_3   0.107236 0.765648 0.036705 -0.498633
C10   C     C_3   0.892764 0.265648 0.963293 -0.498633
H1    H     H_    0.137704 0.751776 0.170662 0.162381
H2    H     H_    0.862297 0.251776 0.829335 0.162381
H3    H     H_    0.166373 0.784877 0.922528 0.151775
H4    H     H_    0.833627 0.284877 0.077468 0.151776
C11   C     C_3   0.035411 0.838842 0.074776 0.182956
C12   C     C_3   0.964589 0.338842 0.925222 0.182952
H5    H     H_    0.005528 0.652853 0.270015 0.013546
H6    H     H_    0.994473 0.152852 0.729986 0.013548
C13   C     C_3   0.977585 0.661724 0.130259 0.278886
C14   C     C_3   0.022415 0.161724 0.869743 0.278884
C15   C     C_3   0.021656 0.708322 0.778537 -0.315206
C16   C     C_3   0.978343 0.208323 0.221463 -0.315207
C17   C     C_3   0.060959 0.685764 0.968276 0.003319
C18   C     C_3   0.939041 0.185764 0.031724 0.003319
C19   C     C_3   0.937381 0.810968 0.032087 -0.053258
C20   C     C_3   0.062619 0.310968 0.967913 -0.053252
C21   C     C_3   0.902914 0.733439 0.161629 0.215051
C22   C     C_3   0.097086 0.233439 0.838373 0.215055
C23   C     C_3   0.951658 0.781729 0.814327 -0.372671
C24   C     C_3   0.048341 0.281729 0.185673 -0.372673
H7    H     H_    0.568927 0.806933 0.353541 0.197387
H8    H     H_    0.431073 0.306933 0.646459 0.197387
H9    H     H_    0.432255 0.695771 0.646534 0.107899
H10   H     H_    0.567745 0.195771 0.353466 0.107899
C25   C     C_2   0.442350 0.684210 0.338874 0.187491
C26   C     C_2   0.557650 0.184209 0.661126 0.187490
C27   C     C_2   0.465353 0.717667 0.503496 -0.129524
C28   C     C_2   0.534647 0.217667 0.496504 -0.129524
H11   H     H_    0.526316 0.796081 0.801882 0.170981
H12   H     H_    0.473684 0.296081 0.198118 0.170981
C29   C     C_2   0.558923 0.818206 0.658948 -0.362705
C30   C     C_2   0.441077 0.318207 0.341052 -0.362704
C31   C     C_2   0.535543 0.784626 0.495870 -0.091923
C32   C     C_2   0.464457 0.284626 0.504130 -0.091925
H13   H     H_    0.884054 0.762175 0.772476 0.197815
H14   H     H_    0.115944 0.262176 0.227526 0.197816
O21   O     O_3   0.937955 0.585997 0.080879 -0.619859
H15   H     H_    0.902234 0.562992 0.203678 0.304963
O22   O     O_3   0.062045 0.085997 0.919124 -0.619860
H16   H     H_    0.097768 0.062992 0.796327 0.304963
O23   O     O_3   0.817109 0.704700 0.117039 -0.614725
H17   H     H_    0.767400 0.740316 0.190330 0.280228
O24   O     O_3   0.182891 0.204700 0.882965 -0.614726
H18   H     H_    0.232600 0.240312 0.809659 0.280228
O25   O     O_3   0.485961 0.714007 0.159345 -0.653871
H19   H     H_    0.463461 0.682664 0.053001 0.292475
O26   O     O_3   0.514038 0.214007 0.840655 -0.653871
H20   H     H_    0.536538 0.182664 0.946999 0.292475
H21   H     H_    0.060709 0.890237 0.971422 0.156470
H22   H     H_    0.939290 0.390237 0.028576 0.156471
O27   O     O_3   0.031066 0.871756 0.264598 -0.628699
H23   H     H_    0.020842 0.824883 0.359091 0.278108
O28   O     O_3   0.968935 0.371755 0.735400 -0.628699
H24   H     H_    0.979159 0.324882 0.640907 0.278109
H25   H     H_    0.892760 0.751433 0.319244 0.023995
H26   H     H_    0.107240 0.251432 0.680757 0.023989
H27   H     H_    0.986453 0.653022 0.725874 0.199949
H28   H     H_    0.013545 0.153023 0.274128 0.199949
H29   H     H_    0.079718 0.725969 0.660277 0.130284
H30   H     H_    0.920281 0.225970 0.339722 0.130285
H31   H     H_    0.978149 0.834671 0.716877 0.147974
H32   H     H_    0.021849 0.334672 0.283121 0.147974

loop_
_geom_bond_atom_site_label_1
_geom_bond_atom_site_label_2
_ccdc_geom_bond_type
H10   C28   S    
C30   C32   D    
O28   H24   S    
H11   C29   S    
C23   H31   S    
O13   V3    S    
O22   H16   S    
C12   H22   S    
C22   H26   S    
O4    C2    A    
C15   H29   S    
O26   H20   S    
O24   H18   S    
O9    V1    S    
C20   C24   S    
C10   C12   S    
C12   O28   S    
C21   O23   S    
O3    C1    A    
O27   H23   S    
C12   C20   S    
C16   H28   S    
O12   V4    S    
C26   C28   D    
O7    C3    A    
O13   V1    S    
O5    C7    A    
O7    V1    S    
O6    C8    A    
O8    V2    S    
C29   C31   D    
C16   H30   S    
C20   C22   S    
O3    V1    S    
O14   V4    S    
C24   H32   S    
C14   C22   S    
C1    O11   A    
V1    O19   S    
C2    O12   A    
H5    C13   S    
O10   V2    S    
H6    C14   S    
C15   H27   S    
C1    C25   S    
O11   V3    S    
C3    C30   S    
C15   C17   S    
O17   V3    S    
C16   C18   S    
C25   C27   D    
O8    C4    A    
C25   O25   S    
C5    C20   S    
C19   C21   S    
C23   H13   S    
H8    C32   S    
O15   V3    S    
C9    H3    S    
H12   C30   S    
O23   H17   S    
C26   O26   S    
C27   C31   S    
C24   H14   S    
C16   C24   S    
O1    V3    S    
C9    C11   S    
C11   C19   S    
O18   V4    S    
O15   C5    A    
C9    C17   S    
O16   C6    A    
O1    C3    A    
C11   O27   S    
C22   O24   S    
V2    O20   S    
C7    C17   S    
C6    C19   S    
C8    C18   S    
C13   O21   S    
O16   V4    S    
C10   H4    S    
H7    C31   S    
H9    C27   S    
O5    V1    S    
O17   C7    A    
O6    V2    S    
O10   C6    A    
O18   C8    A    
C28   C32   S    
O2    V4    S    
C11   H21   S    
O21   H15   S    
V3    O19   S    
C2    C26   S    
V4    O20   S    
C13   C21   S    
C19   C23   S    
O9    C5    A    
C9    H1    S    
C4    C29   S    
O14   V2    S    
C14   O22   S    
O2    C4    A    
C15   C23   S    
O25   H19   S    
O4    V2    S    
C10   C18   S    
C10   H2    S    
C13   C17   S    
C21   H25   S    
C14   C18   S    
