data_mof_unit_48909.cif
_audit_creation_date              2012-12-11T16:13:56-0500
_audit_creation_method            fapswitch 2.2
_symmetry_space_group_name_H-M    P1
_symmetry_Int_Tables_number       1
_space_group_crystal_system       triclinic
_cell_length_a                    26.175277
_cell_length_b                    7.255801
_cell_length_c                    23.772878
_cell_angle_alpha                 90.00069
_cell_angle_beta                  101.438017
_cell_angle_gamma                 90.000906
_cell_volume                      4425.33792428

loop_
_atom_site_label
_atom_site_type_symbol
_atom_type_description
_atom_site_fract_x
_atom_site_fract_y
_atom_site_fract_z
_atom_type_partial_charge
O1    O     O_R   0.192370 0.384760 0.193350 -0.536971
O2    O     O_R   0.807630 0.615240 0.806650 -0.536970
O3    O     O_R   0.307630 0.884760 0.306650 -0.536967
O4    O     O_R   0.692370 0.115240 0.693350 -0.536968
O5    O     O_R   0.296630 0.711620 0.196480 -0.543645
O6    O     O_R   0.703370 0.288380 0.803520 -0.543645
O7    O     O_R   0.203370 0.211620 0.303520 -0.543645
O8    O     O_R   0.796630 0.788380 0.696480 -0.543645
C1    C     C_R   0.312688 0.545484 0.184253 0.719549
C2    C     C_R   0.687312 0.454516 0.815747 0.719548
C3    C     C_R   0.187312 0.045483 0.315747 0.719547
C4    C     C_R   0.812688 0.954517 0.684253 0.719548
O9    O     O_R   0.192080 0.714290 0.186600 -0.535307
O10   O     O_R   0.807920 0.285710 0.813400 -0.535306
O11   O     O_R   0.307920 0.214290 0.313400 -0.535308
O12   O     O_R   0.692080 0.785710 0.686600 -0.535308
O13   O     O_R   0.202340 0.887460 0.296690 -0.495875
O14   O     O_R   0.797660 0.112540 0.703310 -0.495874
O15   O     O_R   0.297660 0.387460 0.203310 -0.495873
O16   O     O_R   0.702340 0.612540 0.796690 -0.495873
C5    C     C_R   0.173744 0.545948 0.171348 0.719288
C6    C     C_R   0.826256 0.454052 0.828652 0.719288
C7    C     C_R   0.326255 0.045952 0.328652 0.719295
C8    C     C_R   0.673745 0.954048 0.671348 0.719294
O17   O     O_3   0.253490 0.552180 0.286130 -0.367299
O18   O     O_3   0.746510 0.447820 0.713870 -0.367299
O19   O     O_3   0.246510 0.052180 0.213870 -0.367300
O20   O     O_3   0.753490 0.947820 0.786130 -0.367300
V1    V     V_3+5 0.249350 0.825920 0.243300 1.530338
V2    V     V_3+5 0.750650 0.174080 0.756700 1.530339
V3    V     V_3+5 0.250650 0.325920 0.256700 1.530339
V4    V     V_3+5 0.749350 0.674080 0.743300 1.530339
C9    C     C_3   0.530922 0.871901 0.486200 0.501221
C10   C     C_3   0.469078 0.128099 0.513800 0.501224
C11   C     C_3   0.969062 0.371959 0.013804 0.501198
C12   C     C_3   0.030937 0.628040 0.986197 0.501240
C13   C     C_3   0.514199 0.046522 0.450068 -0.272837
C14   C     C_3   0.485801 0.953479 0.549931 -0.272833
C15   C     C_3   0.985800 0.546594 0.049927 -0.272951
C16   C     C_3   0.014199 0.453409 0.950075 -0.272879
H1    H     H_    0.525898 0.081492 0.409011 0.136709
H2    H     H_    0.474101 0.918510 0.590988 0.136708
H3    H     H_    0.974103 0.581660 0.090979 0.136689
H4    H     H_    0.025899 0.418378 0.909022 0.136696
H5    H     H_    0.545953 0.298328 0.511738 0.142574
H6    H     H_    0.454047 0.701672 0.488262 0.142575
H7    H     H_    0.954081 0.798385 0.988235 0.142564
H8    H     H_    0.045918 0.201613 0.011760 0.142588
C17   C     C_1   0.371946 0.036935 0.374557 -0.171241
C18   C     C_1   0.628054 0.963065 0.625443 -0.171241
C19   C     C_1   0.128052 0.536921 0.125446 -0.171239
C20   C     C_1   0.871948 0.463079 0.874554 -0.171239
C21   C     C_3   0.474576 0.836197 0.493985 -0.280506
C22   C     C_3   0.525424 0.163803 0.506015 -0.280508
C23   C     C_3   0.025405 0.336167 0.006028 -0.280411
C24   C     C_3   0.974593 0.663832 0.993972 -0.280449
C25   C     C_3   0.457716 0.013120 0.458586 0.065671
C26   C     C_3   0.542284 0.986880 0.541414 0.065670
C27   C     C_3   0.042281 0.513103 0.041418 0.065691
C28   C     C_3   0.957719 0.486897 0.958583 0.065674
C29   C     C_1   0.410460 0.027460 0.412592 0.008660
C30   C     C_1   0.589540 0.972540 0.587407 0.008660
C31   C     C_1   0.089538 0.527438 0.087412 0.008694
C32   C     C_1   0.910462 0.472562 0.912589 0.008689
C33   C     C_R   0.872188 0.135503 0.632079 0.615121
C34   C     C_R   0.127813 0.864497 0.367921 0.615120
C35   C     C_R   0.627810 0.635500 0.867918 0.615121
C36   C     C_R   0.372189 0.364500 0.132082 0.615121
C37   C     C_R   0.908566 0.142735 0.596175 -0.208528
C38   C     C_R   0.091434 0.857265 0.403826 -0.208529
C39   C     C_R   0.591432 0.642732 0.903823 -0.208529
C40   C     C_R   0.408568 0.357268 0.096177 -0.208529
H9    H     H_    0.923793 0.275895 0.587108 0.161347
H10   H     H_    0.076207 0.724104 0.412892 0.161347
H11   H     H_    0.576203 0.775892 0.912887 0.161348
H12   H     H_    0.423797 0.224108 0.087112 0.161348
C41   C     C_R   0.925237 0.981438 0.572498 -0.069147
C42   C     C_R   0.074763 0.018562 0.427502 -0.069146
C43   C     C_R   0.574763 0.481437 0.927501 -0.069147
C44   C     C_R   0.425237 0.518563 0.072499 -0.069147
C45   C     C_R   0.904345 0.811717 0.585572 -0.127864
C46   C     C_R   0.095655 0.188283 0.414428 -0.127864
C47   C     C_R   0.595657 0.311718 0.914430 -0.127865
C48   C     C_R   0.404343 0.688282 0.085569 -0.127864
H13   H     H_    0.916202 0.684367 0.568154 0.164081
H14   H     H_    0.083798 0.315633 0.431846 0.164081
H15   H     H_    0.583801 0.184368 0.931850 0.164080
H16   H     H_    0.416199 0.815631 0.068150 0.164081
C49   C     C_R   0.867853 0.803709 0.621438 -0.228005
C50   C     C_R   0.132146 0.196291 0.378561 -0.228004
C51   C     C_R   0.632148 0.303710 0.878564 -0.228005
C52   C     C_R   0.367852 0.696290 0.121436 -0.228003
H17   H     H_    0.852791 0.670290 0.630405 0.213370
H18   H     H_    0.147209 0.329710 0.369594 0.213370
H19   H     H_    0.647212 0.170292 0.869598 0.213365
H20   H     H_    0.352788 0.829708 0.130402 0.213365
C53   C     C_R   0.851147 0.965077 0.645386 -0.175154
C54   C     C_R   0.148853 0.034923 0.354614 -0.175154
C55   C     C_R   0.648853 0.465076 0.854614 -0.175155
C56   C     C_R   0.351147 0.534924 0.145386 -0.175155
N1    N     N_R   0.980824 0.835623 0.511757 -0.279166
N2    N     N_R   0.019176 0.164377 0.488243 -0.279166
N3    N     N_R   0.519177 0.335624 0.988246 -0.279165
N4    N     N_R   0.480823 0.664375 0.011754 -0.279165
N5    N     N_R   0.015767 0.844525 0.477938 -0.282951
N6    N     N_R   0.984233 0.155475 0.522062 -0.282951
N7    N     N_R   0.484234 0.344527 0.022064 -0.282951
N8    N     N_R   0.515766 0.655473 0.977936 -0.282951
C57   C     C_R   0.035762 0.009056 0.465397 0.547839
C58   C     C_R   0.964238 0.990944 0.534603 0.547840
C59   C     C_R   0.464238 0.509057 0.034603 0.547840
C60   C     C_R   0.535762 0.490943 0.965397 0.547840
O21   O     O_3   0.566046 0.737110 0.473968 -0.569637
C61   C     C_3   0.544471 0.648660 0.421780 0.062854
H21   H     H_    0.533568 0.750683 0.386405 0.123244
H22   H     H_    0.509432 0.567547 0.426434 0.126013
C62   C     C_3   0.584785 0.516897 0.405704 -0.277955
H23   H     H_    0.620944 0.594362 0.403357 0.208915
H24   H     H_    0.594628 0.408952 0.439247 0.199364
C63   C     C_3   0.564328 0.425070 0.347849 -0.826867
H25   H     H_    0.527203 0.351667 0.348376 0.229082
H26   H     H_    0.593420 0.324003 0.338578 0.238069
H27   H     H_    0.557552 0.530036 0.313150 0.238252
O22   O     O_3   0.433954 0.262888 0.526033 -0.569636
C64   C     C_3   0.455531 0.351349 0.578218 0.062857
H28   H     H_    0.490567 0.432475 0.573558 0.126013
H29   H     H_    0.466441 0.249331 0.613594 0.123240
C65   C     C_3   0.415215 0.483099 0.594298 -0.277948
H30   H     H_    0.405367 0.591040 0.560754 0.199363
H31   H     H_    0.379060 0.405621 0.596650 0.208913
C66   C     C_3   0.435675 0.574935 0.652151 -0.826855
H32   H     H_    0.442458 0.469970 0.686851 0.238249
H33   H     H_    0.406582 0.675991 0.661424 0.238069
H34   H     H_    0.472798 0.648350 0.651619 0.229079
O23   O     O_3   0.933921 0.237199 0.026023 -0.569641
C67   C     C_3   0.955432 0.148984 0.078269 0.062948
H35   H     H_    0.966160 0.251154 0.113631 0.123247
H36   H     H_    0.990568 0.068195 0.073762 0.125942
C68   C     C_3   0.915146 0.016857 0.094229 -0.277919
H37   H     H_    0.878914 0.094012 0.096477 0.208874
H38   H     H_    0.905441 0.908875 0.060675 0.199364
C69   C     C_3   0.935545 0.925111 0.152109 -0.826900
H39   H     H_    0.972726 0.851964 0.151672 0.229085
H40   H     H_    0.906476 0.823828 0.161305 0.238054
H41   H     H_    0.942198 0.030088 0.186810 0.238258
O24   O     O_3   0.066078 0.762777 0.973967 -0.569628
C70   C     C_3   0.044525 0.851191 0.921768 0.062899
H42   H     H_    0.009465 0.932241 0.926385 0.125983
H43   H     H_    0.033663 0.749140 0.886393 0.123240
C71   C     C_3   0.084840 0.983036 0.905730 -0.277939
H44   H     H_    0.094648 0.090980 0.939280 0.199370
H45   H     H_    0.121015 0.905637 0.903409 0.208906
C72   C     C_3   0.064406 0.074862 0.847871 -0.826870
H46   H     H_    0.057656 0.969901 0.813168 0.238252
H47   H     H_    0.093499 0.175966 0.838624 0.238069
H48   H     H_    0.027270 0.148223 0.848375 0.229074
F1    F     F_    0.858171 0.296495 0.653836 -0.702627
F2    F     F_    0.141830 0.703504 0.346164 -0.702629
F3    F     F_    0.641825 0.796491 0.846159 -0.702626
F4    F     F_    0.358175 0.203509 0.153842 -0.702625

loop_
_geom_bond_atom_site_label_1
_geom_bond_atom_site_label_2
_ccdc_geom_bond_type
O17   V3    S    
H8    C23   S    
C47   H15   S    
C26   C30   S    
C9    C26   S    
C16   C28   S    
C23   C27   S    
C38   C42   A    
O13   V1    S    
O1    C5    A    
C37   C41   A    
C70   H42   S    
C52   H20   S    
C40   H12   S    
C66   H34   S    
O15   V3    S    
C65   H30   S    
C39   C43   A    
C61   H21   S    
O4    V2    S    
O23   C67   S    
C35   F3    S    
O7    C3    A    
O5    C1    A    
C43   C60   S    
C3    C54   S    
O9    V1    S    
C70   H43   S    
O24   C70   S    
C62   H24   S    
O16   V4    S    
O4    C8    A    
C68   C69   S    
C7    C17   S    
O19   V1    S    
O1    V3    S    
C44   C59   S    
O2    V4    S    
O3    V1    S    
C14   C26   S    
O3    C7    A    
C1    O15   A    
C69   H39   S    
C2    O16   A    
C43   C47   A    
C71   C72   S    
O2    C6    A    
C64   C65   S    
C37   H9    S    
O14   V2    S    
C72   H47   S    
C35   C39   A    
C63   H27   S    
C44   C48   A    
C45   C49   A    
C12   C27   S    
N4    N8    A    
O11   C7    A    
O12   C8    A    
C9    C21   S    
C69   H41   S    
C2    C55   S    
O10   V2    S    
C67   C68   S    
C63   H26   S    
C50   H18   S    
O5    V1    S    
C8    C18   S    
N1    N5    A    
O7    V3    S    
C11   C23   S    
O8    V4    S    
C12   C16   S    
C70   C71   S    
C17   C29   T    
C36   C40   A    
C67   H36   S    
C20   C32   T    
C62   C63   S    
C11   O23   S    
C21   C25   S    
O18   V4    S    
C15   H3    S    
N1    C58   A    
C46   H14   S    
C49   H17   S    
C9    C13   S    
N8    C60   A    
C49   C53   A    
N3    C60   A    
C11   C15   S    
C36   C56   A    
C38   H10   S    
C12   C24   S    
C10   C25   S    
C42   C46   A    
C15   C24   S    
C41   C45   A    
O8    C4    A    
C16   C23   S    
C15   C27   S    
O9    C5    A    
C72   H48   S    
C25   C29   S    
H7    C24   S    
C34   F2    S    
C4    C53   S    
C13   C22   S    
C12   O24   S    
O6    V2    S    
H5    C22   S    
C10   C22   S    
C1    C56   S    
C64   H28   S    
C18   C30   T    
C71   H45   S    
C27   C31   S    
C66   H32   S    
C65   C66   S    
C5    C19   S    
C63   H25   S    
C52   C56   A    
C6    C20   S    
O21   C61   S    
C22   C26   S    
C19   C31   T    
N5    C57   A    
C3    O13   A    
C10   O22   S    
C10   C14   S    
N7    C59   A    
C48   H16   S    
C67   H35   S    
C66   H33   S    
C65   H31   S    
O6    C2    A    
N4    C59   A    
C61   H22   S    
C68   H37   S    
O11   V3    S    
C35   C55   A    
O12   V4    S    
C33   F1    S    
C47   C51   A    
C9    O21   S    
C46   C50   A    
C28   C32   S    
C34   C54   A    
O20   V2    S    
C33   C53   A    
C40   C44   A    
C62   H23   S    
C39   H11   S    
C68   H38   S    
O10   C6    A    
C34   C38   A    
C14   C21   S    
C33   C37   A    
H6    C21   S    
N2    N6    A    
C42   C57   S    
C69   H40   S    
C13   H1    S    
C41   C58   S    
C45   H13   S    
C61   C62   S    
C51   H19   S    
C14   H2    S    
C24   C28   S    
C16   H4    S    
N6    C58   A    
C4    O14   A    
C64   H29   S    
C71   H44   S    
C11   C28   S    
N2    C57   A    
N3    N7    A    
C48   C52   A    
C51   C55   A    
C72   H46   S    
C36   F4    S    
C50   C54   A    
C13   C25   S    
O22   C64   S    
