data_mof_unit_37885.cif
_audit_creation_date              2012-12-11T15:23:36-0500
_audit_creation_method            fapswitch 2.2
_symmetry_space_group_name_H-M    P1
_symmetry_Int_Tables_number       1
_space_group_crystal_system       triclinic
_cell_length_a                    17.242728
_cell_length_b                    24.268136
_cell_length_c                    14.903474
_cell_angle_alpha                 89.983607
_cell_angle_beta                  125.405462
_cell_angle_gamma                 90.025862
_cell_volume                      5083.07063474

loop_
_atom_site_label
_atom_site_type_symbol
_atom_type_description
_atom_site_fract_x
_atom_site_fract_y
_atom_site_fract_z
_atom_type_partial_charge
C1    C     C_R   0.310712 0.375114 0.908728 -0.126793
C2    C     C_R   0.647095 0.347300 0.090357 -0.138995
C3    C     C_R   0.811036 0.874666 0.909011 -0.125552
C4    C     C_R   0.146420 0.847052 0.090023 -0.141273
C5    C     C_R   0.309977 0.636279 0.998325 0.040029
C6    C     C_R   0.618409 0.683764 0.001080 0.048691
C7    C     C_R   0.810542 0.136722 0.998864 0.039735
C8    C     C_R   0.118055 0.183868 0.000829 0.049636
C9    C     C_R   0.565675 0.499554 0.367625 0.049753
C10   C     C_R   0.551520 0.499426 0.725629 0.040183
C11   C     C_R   0.065703 0.999551 0.367646 0.049606
C12   C     C_R   0.051590 0.999426 0.725701 0.040113
C13   C     C_R   0.202049 0.498630 0.631121 0.142867
C14   C     C_R   0.825463 0.499634 0.281304 0.130876
C15   C     C_R   0.691978 0.999336 0.639025 0.140098
C16   C     C_R   0.323532 0.998868 0.268225 0.132696
C17   C     C_2   0.980619 0.456544 0.362280 -0.111266
C18   C     C_2   0.079969 0.453956 0.458943 -0.112853
C19   C     C_2   0.478437 0.954683 0.360450 -0.110151
C20   C     C_2   0.577014 0.957941 0.458520 -0.117091
C21   C     C_2   0.928001 0.501808 0.340829 -0.183216
C22   C     C_2   0.129381 0.499417 0.512992 -0.192923
C23   C     C_2   0.424802 0.999969 0.315625 -0.189057
C24   C     C_2   0.606483 0.001046 0.527372 -0.194019
C25   C     C_R   0.155668 0.685334 0.898285 -0.168540
C26   C     C_R   0.709526 0.767887 0.100784 -0.172982
C27   C     C_R   0.655786 0.185252 0.899218 -0.169093
C28   C     C_R   0.208914 0.268151 0.100228 -0.173005
C29   C     C_R   0.608074 0.231072 0.899230 -0.172975
C30   C     C_R   0.256737 0.313929 0.100095 -0.168221
C31   C     C_R   0.108041 0.731197 0.898363 -0.172963
C32   C     C_R   0.757433 0.813613 0.100695 -0.168320
C33   C     C_R   0.640682 0.257433 0.998960 0.143353
C34   C     C_R   0.238228 0.332747 0.000476 0.144494
C35   C     C_R   0.140166 0.757282 0.998206 0.143160
C36   C     C_R   0.738668 0.832537 0.001026 0.144738
C37   C     C_R   0.707803 0.230981 0.098591 -0.173706
C38   C     C_R   0.157413 0.313646 0.900843 -0.168389
C39   C     C_R   0.206832 0.730571 0.097704 -0.173437
C40   C     C_R   0.657495 0.813696 0.901437 -0.168713
C41   C     C_R   0.254350 0.684665 0.097523 -0.168645
C42   C     C_R   0.609495 0.767989 0.901426 -0.172666
C43   C     C_R   0.755440 0.185152 0.098476 -0.168586
C44   C     C_R   0.109473 0.267910 0.900879 -0.172825
C45   C     C_R   0.400263 0.623459 0.090738 -0.126064
C46   C     C_R   0.557557 0.651634 0.909686 -0.140300
C47   C     C_R   0.900620 0.123595 0.091045 -0.126395
C48   C     C_R   0.057411 0.151637 0.909564 -0.140008
C49   C     C_R   0.236026 0.665920 0.997962 0.144778
C50   C     C_R   0.642139 0.741550 0.001109 0.143070
C51   C     C_R   0.736703 0.166235 0.998828 0.145052
C52   C     C_R   0.141814 0.241648 0.000639 0.142932
C53   C     C_R   0.606540 0.549440 0.627306 -0.167987
C54   C     C_R   0.608106 0.549498 0.535512 -0.173652
C55   C     C_R   0.106590 0.049438 0.627351 -0.168016
C56   C     C_R   0.108138 0.049496 0.535542 -0.173597
C57   C     C_R   0.599314 0.499605 0.482951 0.142911
C58   C     C_R   0.595035 0.499531 0.665732 0.144667
C59   C     C_R   0.099343 0.999602 0.482978 0.142932
C60   C     C_R   0.095098 0.999531 0.665792 0.144716
C61   C     C_R   0.608651 0.449713 0.535888 -0.172982
C62   C     C_R   0.607043 0.449703 0.627653 -0.168194
C63   C     C_R   0.108682 0.949711 0.535919 -0.173180
C64   C     C_R   0.107094 0.949703 0.627700 -0.168352
C65   C     C_R   0.549533 0.453787 0.303866 -0.140256
C66   C     C_R   0.520063 0.453301 0.751331 -0.124467
C67   C     C_R   0.049556 0.953788 0.303881 -0.140449
C68   C     C_R   0.020110 0.953304 0.751379 -0.125616
C69   C     C_R   0.247390 0.544605 0.694651 -0.161862
C70   C     C_R   0.768709 0.545638 0.253395 -0.146310
C71   C     C_R   0.741762 0.045119 0.699731 -0.159943
C72   C     C_R   0.267918 0.045109 0.244989 -0.148466
C73   C     C_R   0.548733 0.545217 0.303187 -0.140203
C74   C     C_R   0.520920 0.545520 0.752284 -0.125237
C75   C     C_R   0.048769 0.045212 0.303210 -0.140088
C76   C     C_R   0.020971 0.045519 0.752339 -0.124552
C77   C     C_R   0.248112 0.453203 0.696310 -0.131442
C78   C     C_R   0.768328 0.453247 0.252136 -0.118949
C79   C     C_R   0.743005 0.953509 0.699583 -0.131015
C80   C     C_R   0.266909 0.952981 0.244990 -0.116046
C81   C     C_R   0.308631 0.623408 0.906510 -0.125627
C82   C     C_R   0.648525 0.651604 0.092320 -0.135973
C83   C     C_R   0.809112 0.124082 0.906942 -0.123935
C84   C     C_R   0.148093 0.151760 0.092118 -0.140789
C85   C     C_R   0.402488 0.375088 0.092796 -0.125491
C86   C     C_R   0.555732 0.347254 0.907745 -0.140097
C87   C     C_R   0.902721 0.874999 0.092994 -0.125637
C88   C     C_R   0.055523 0.847259 0.907539 -0.139368
C89   C     C_R   0.312231 0.362206 0.000616 0.040451
C90   C     C_R   0.616911 0.315182 0.999051 0.049524
C91   C     C_R   0.812603 0.861912 0.000964 0.040156
C92   C     C_R   0.116375 0.815028 0.998634 0.050240
H1    H     H_    0.252654 0.370203 0.823204 0.092358
H2    H     H_    0.684706 0.333622 0.174698 0.083640
H3    H     H_    0.753205 0.869033 0.823729 0.091634
H4    H     H_    0.183619 0.833171 0.174204 0.083872
H5    H     H_    0.959468 0.541122 0.378976 0.125406
H6    H     H_    0.108931 0.539622 0.474245 0.126250
H7    H     H_    0.457347 0.040309 0.330515 0.129124
H8    H     H_    0.563878 0.037987 0.506066 0.129060
H9    H     H_    0.135336 0.669343 0.819763 0.106976
H10   H     H_    0.732541 0.750577 0.179377 0.105543
H11   H     H_    0.635001 0.168976 0.820708 0.106678
H12   H     H_    0.231724 0.250952 0.178834 0.105744
H13   H     H_    0.552382 0.248374 0.820647 0.105393
H14   H     H_    0.314443 0.330305 0.178587 0.107701
H15   H     H_    0.052818 0.748745 0.819811 0.105306
H16   H     H_    0.815395 0.829824 0.179203 0.107477
H17   H     H_    0.730754 0.248226 0.177199 0.105610
H18   H     H_    0.136902 0.329767 0.822327 0.107348
H19   H     H_    0.229463 0.747637 0.176331 0.105549
H20   H     H_    0.636699 0.830001 0.822932 0.107833
H21   H     H_    0.311697 0.668082 0.176002 0.107552
H22   H     H_    0.553576 0.750795 0.822834 0.105606
H23   H     H_    0.813188 0.168823 0.176980 0.107547
H24   H     H_    0.053850 0.250559 0.822305 0.105587
H25   H     H_    0.604225 0.588733 0.659759 0.107451
H26   H     H_    0.606865 0.588842 0.500767 0.105506
H27   H     H_    0.104280 0.088733 0.659806 0.107409
H28   H     H_    0.106889 0.088840 0.500792 0.105513
H29   H     H_    0.607862 0.410371 0.501475 0.105624
H30   H     H_    0.605148 0.410398 0.660433 0.107661
H31   H     H_    0.107883 0.910369 0.501500 0.105586
H32   H     H_    0.105206 0.910398 0.660485 0.107653
H33   H     H_    0.427334 0.628434 0.176063 0.092754
H34   H     H_    0.510697 0.665342 0.825368 0.083959
H35   H     H_    0.927815 0.128432 0.176427 0.092819
H36   H     H_    0.010549 0.165273 0.825197 0.084096
H37   H     H_    0.238461 0.586304 0.664372 0.090559
H38   H     H_    0.790770 0.588254 0.265436 0.098167
H39   H     H_    0.728959 0.087046 0.669676 0.091563
H40   H     H_    0.290000 0.087530 0.253013 0.100128
H41   H     H_    0.566869 0.587464 0.330378 0.083679
H42   H     H_    0.531568 0.588285 0.742644 0.092543
H43   H     H_    0.066960 0.087450 0.330434 0.083709
H44   H     H_    0.031636 0.088281 0.742710 0.092502
H45   H     H_    0.241247 0.411210 0.668441 0.082851
H46   H     H_    0.789756 0.410575 0.263770 0.090398
H47   H     H_    0.731099 0.911409 0.670798 0.082044
H48   H     H_    0.287044 0.910278 0.252415 0.091372
H49   H     H_    0.250716 0.628201 0.820868 0.093744
H50   H     H_    0.685568 0.665307 0.176583 0.083392
H51   H     H_    0.751509 0.129935 0.821657 0.091150
H52   H     H_    0.185026 0.165535 0.176337 0.084729
H53   H     H_    0.429741 0.370081 0.178167 0.092605
H54   H     H_    0.508760 0.333561 0.823429 0.083720
H55   H     H_    0.930051 0.870083 0.178401 0.092599
H56   H     H_    0.008547 0.833680 0.823146 0.083399
H57   H     H_    0.946557 0.417652 0.323344 0.117269
H58   H     H_    0.104718 0.413630 0.496436 0.113209
H59   H     H_    0.446446 0.914023 0.339593 0.116161
H60   H     H_    0.619798 0.920832 0.482906 0.117249
N1    N     N_R   0.395440 0.396300 0.944370 -0.039637
N2    N     N_R   0.604560 0.396300 0.055630 -0.037428
N3    N     N_R   0.895440 0.896300 0.944370 -0.039566
N4    N     N_R   0.104560 0.896300 0.055630 -0.037612
N5    N     N_R   0.449890 0.602500 0.055780 -0.040196
N6    N     N_R   0.550110 0.602500 0.944220 -0.037473
N7    N     N_R   0.949890 0.102500 0.055780 -0.039992
N8    N     N_R   0.050110 0.102500 0.944220 -0.037352
N9    N     N_R   0.525090 0.470990 0.205640 -0.037046
N10   N     N_R   0.474910 0.470990 0.794360 -0.039871
N11   N     N_R   0.025090 0.970990 0.205640 -0.037041
N12   N     N_R   0.974910 0.970990 0.794360 -0.040283
N13   N     N_R   0.320240 0.527820 0.794510 -0.039135
N14   N     N_R   0.679760 0.527820 0.205490 -0.041359
N15   N     N_R   0.820240 0.027820 0.794510 -0.038908
N16   N     N_R   0.179760 0.027820 0.205490 -0.041596
N17   N     N_R   0.524580 0.527810 0.205160 -0.037045
N18   N     N_R   0.475420 0.527810 0.794840 -0.039654
N19   N     N_R   0.024580 0.027810 0.205160 -0.037024
N20   N     N_R   0.975420 0.027810 0.794840 -0.039852
N21   N     N_R   0.320750 0.470990 0.794990 -0.042358
N22   N     N_R   0.679250 0.470990 0.205010 -0.044335
N23   N     N_R   0.820750 0.970990 0.794990 -0.042174
N24   N     N_R   0.179250 0.970990 0.205010 -0.045097
N25   N     N_R   0.393580 0.602500 0.942610 -0.039665
N26   N     N_R   0.606420 0.602500 0.057390 -0.036936
N27   N     N_R   0.893580 0.102500 0.942610 -0.039538
N28   N     N_R   0.106420 0.102500 0.057390 -0.036927
N29   N     N_R   0.451750 0.396300 0.057540 -0.039610
N30   N     N_R   0.548250 0.396300 0.942460 -0.037121
N31   N     N_R   0.951750 0.896300 0.057540 -0.039520
N32   N     N_R   0.048250 0.896300 0.942460 -0.036912
Ni1   Ni    Ni4+2 0.435420 0.434250 0.870220 0.209512
Ni2   Ni    Ni4+2 0.564580 0.434250 0.129780 0.209359
Ni3   Ni    Ni4+2 0.935420 0.934250 0.870220 0.209742
Ni4   Ni    Ni4+2 0.064580 0.934250 0.129780 0.209114
Ni5   Ni    Ni4+2 0.563400 0.564580 0.128670 0.210521
Ni6   Ni    Ni4+2 0.436600 0.564580 0.871330 0.210601
Ni7   Ni    Ni4+2 0.063400 0.064580 0.128670 0.210541
Ni8   Ni    Ni4+2 0.936600 0.064580 0.871330 0.212092
H61   H     H_    0.568464 0.411668 0.331635 0.083816
H62   H     H_    0.529867 0.410547 0.740639 0.092423
H63   H     H_    0.068517 0.911673 0.331667 0.083787
H64   H     H_    0.029924 0.910554 0.740684 0.092533

loop_
_geom_bond_atom_site_label_1
_geom_bond_atom_site_label_2
_ccdc_geom_bond_type
C25   C31   A    
C23   H7    S    
C55   C56   A    
C26   C32   A    
C6    C82   A    
C81   N25   A    
C87   C91   A    
C27   C29   A    
C14   C70   A    
C7    C83   A    
C19   C20   S    
C16   C72   A    
N17   Ni5   S    
C82   H50   S    
N12   Ni3   S    
C5    C49   S    
N4    N32   A    
C39   C41   A    
C55   H27   S    
C53   C54   A    
N20   Ni8   S    
N15   Ni8   S    
C12   C68   A    
N21   Ni1   S    
N2    N30   A    
N16   Ni7   S    
C87   H55   S    
C22   H6    S    
C32   C36   A    
C14   C21   S    
C3    C91   A    
C10   C58   S    
C85   H53   S    
C26   C50   A    
C87   N31   A    
N3    N31   A    
C88   N32   A    
C84   H52   S    
N13   N21   A    
C46   N6    A    
C29   C33   A    
C77   N21   A    
C70   H38   S    
C5    C81   A    
N2    Ni2   S    
C61   H29   S    
C27   H11   S    
C57   C61   A    
C76   N20   A    
C13   C69   A    
C20   C24   D    
N8    N28   A    
C43   H23   S    
C4    H4    S    
C65   N9    A    
C42   H22   S    
C15   C79   A    
N27   Ni8   S    
C88   C92   A    
C11   C67   A    
C19   H59   S    
C72   H40   S    
C38   H18   S    
N5    Ni5   S    
N11   N19   A    
C8    C52   S    
C41   H21   S    
C37   H17   S    
C28   C52   A    
N9    N17   A    
C35   C92   S    
C44   C52   A    
C39   H19   S    
C2    N2    A    
C24   H8    S    
C55   C60   A    
C30   H14   S    
C72   N16   A    
C29   H13   S    
C9    C73   A    
C11   C59   S    
C78   H46   S    
C41   C49   A    
C66   H62   S    
C27   C51   A    
N24   Ni4   S    
C25   C49   A    
N4    Ni4   S    
C76   H44   S    
C13   C77   A    
N14   N22   A    
N1    N29   A    
C30   C34   A    
N7    Ni7   S    
C2    H2    S    
C45   N5    A    
C80   N24   A    
C9    C57   S    
C40   H20   S    
C79   H47   S    
C86   C90   A    
N7    N27   A    
N26   Ni5   S    
C85   C89   A    
C19   C23   D    
C47   N7    A    
C8    C84   A    
C80   H48   S    
C5    C45   A    
C1    H1    S    
C33   C37   A    
C20   H60   S    
N11   Ni4   S    
C16   C80   A    
N30   Ni1   S    
C34   C38   A    
C37   C43   A    
C35   C39   A    
C8    C48   A    
C38   C44   A    
N9    Ni2   S    
C74   N18   A    
C79   N23   A    
C44   H24   S    
C48   H36   S    
C21   H5    S    
C84   N28   A    
C28   H12   S    
C18   H58   S    
N10   N18   A    
C36   C40   A    
C53   C58   A    
C82   N26   A    
C9    C65   A    
C3    N3    A    
C17   C18   S    
C88   H56   S    
N19   Ni7   S    
C68   H64   S    
N5    N25   A    
C6    C50   S    
C1    N1    A    
N8    Ni8   S    
C58   C62   A    
C42   C50   A    
C36   C91   S    
C69   H37   S    
C15   C24   S    
C4    N4    A    
C73   H41   S    
C16   C23   S    
C54   H26   S    
C12   C76   A    
C75   N19   A    
C31   C35   A    
N12   N20   A    
C66   N10   A    
C73   N17   A    
C62   H30   S    
N15   N23   A    
N16   N24   A    
C1    C89   A    
N25   Ni6   S    
C6    C46   A    
C18   C22   D    
C31   H15   S    
C46   H34   S    
C17   H57   S    
C77   H45   S    
C40   C42   A    
N28   Ni7   S    
N10   Ni1   S    
C63   H31   S    
N29   Ni2   S    
C56   C59   A    
C47   H35   S    
C56   H28   S    
C85   N29   A    
C15   C71   A    
C64   H32   S    
N18   Ni6   S    
C59   C63   A    
N32   Ni3   S    
C83   N27   A    
C60   C64   A    
N14   Ni5   S    
C48   N8    A    
N6    Ni6   S    
N6    N26   A    
C68   N12   A    
C7    C51   S    
C28   C30   A    
C11   C75   A    
N31   Ni4   S    
C26   H10   S    
C83   H51   S    
C10   C74   A    
C25   H9    S    
C75   H43   S    
N1    Ni1   S    
C43   C51   A    
C74   H42   S    
C71   N15   A    
C81   H49   S    
C3    H3    S    
C13   C22   S    
C53   H25   S    
C14   C78   A    
C65   H61   S    
C61   C62   A    
C69   N13   A    
C34   C89   S    
C70   N14   A    
N13   Ni6   S    
N23   Ni3   S    
C63   C64   A    
C12   C60   S    
C67   N11   A    
C86   H54   S    
C71   H39   S    
C2    C90   A    
C32   H16   S    
C45   H33   S    
C86   N30   A    
C78   N22   A    
N3    Ni3   S    
C67   H63   S    
C33   C90   S    
N22   Ni2   S    
C10   C66   A    
C7    C47   A    
C4    C92   A    
C54   C57   A    
C17   C21   D    
