data_mof_unit_10033.cif
_audit_creation_date              2012-12-10T17:10:59-0500
_audit_creation_method            fapswitch 2.2
_symmetry_space_group_name_H-M    P1
_symmetry_Int_Tables_number       1
_space_group_crystal_system       triclinic
_cell_length_a                    11.727615
_cell_length_b                    13.069015
_cell_length_c                    13.332868
_cell_angle_alpha                 93.577081
_cell_angle_beta                  76.803706
_cell_angle_gamma                 99.962653
_cell_volume                      1958.98595849

loop_
_atom_site_label
_atom_site_type_symbol
_atom_type_description
_atom_site_fract_x
_atom_site_fract_y
_atom_site_fract_z
_atom_type_partial_charge
C1    C     C_R   0.523649 0.700647 0.494477 0.849791
C2    C     C_R   0.438136 0.525936 0.981270 0.021514
C3    C     C_R   0.467756 0.551502 0.876330 -0.000150
C4    C     C_R   0.528840 0.548213 0.038256 0.061005
C5    C     C_R   0.637489 0.614740 0.997093 0.036657
C6    C     C_R   0.645746 0.666951 0.904636 -0.108108
C7    C     C_R   0.559559 0.635892 0.845474 -0.039190
C8    C     C_R   0.515533 0.501430 0.133080 -0.183433
C9    C     C_R   0.707985 0.588801 0.151759 -0.203873
C10   C     C_R   0.395898 0.500156 0.809940 -0.099980
C11   C     C_R   0.466553 0.186041 0.504027 -0.200222
C12   C     C_R   0.436666 0.499293 0.696532 0.785992
C13   C     C_R   0.540681 0.814746 0.486251 -0.238103
C14   C     C_R   0.660936 0.985993 0.494750 -0.056289
C15   C     C_R   0.652700 0.877648 0.483778 -0.144794
C16   C     C_R   0.443425 0.861869 0.480441 0.615934
C17   C     C_R   0.452485 0.969908 0.485381 -0.115792
C18   C     C_R   0.557944 0.032125 0.503521 -0.088362
C19   C     C_R   0.557073 0.138828 0.526610 -0.046554
C20   C     C_R   0.366979 0.124301 0.478370 -0.269166
C21   C     C_R   0.357137 0.017043 0.473822 0.692618
C22   C     C_R   0.946430 0.607555 0.589448 -0.240926
C23   C     C_R   0.478020 0.299450 0.502282 0.851968
C24   C     C_R   0.827512 0.593361 0.582104 0.682034
C25   C     C_R   0.855615 0.455230 0.460670 0.692647
C26   C     C_R   0.976924 0.462882 0.466577 -0.169727
C27   C     C_R   0.023337 0.539491 0.533722 -0.161192
C28   C     C_R   0.144178 0.544117 0.541623 0.081939
C29   C     C_R   0.172166 0.408536 0.415939 0.747774
C30   C     C_R   0.053319 0.397100 0.407537 -0.208578
C31   C     C_R   0.563295 0.506139 0.303749 0.812688
C32   C     C_R   0.729631 0.629576 0.053352 -0.021640
C33   C     C_R   0.599278 0.528190 0.193281 -0.069376
C34   C     C_R   0.284504 0.443008 0.852793 -0.221334
C35   C     C_R   0.242512 0.439777 0.959226 -0.009415
C36   C     C_R   0.317691 0.483750 0.024531 -0.063286
Cu1   Cu    Cu3+1 0.386470 0.492430 0.492410 1.043372
Cu2   Cu    Cu3+1 0.613530 0.507570 0.507590 1.067543
H1    H     H_    0.775067 0.606760 0.197198 0.169876
H2    H     H_    0.295410 0.158937 0.462929 0.223966
H3    H     H_    0.439063 0.443883 0.162465 0.182548
H4    H     H_    0.228008 0.404202 0.803128 0.163071
N1    N     N_R   0.215880 0.481050 0.481000 -0.252566
N2    N     N_R   0.784100 0.518950 0.519000 -0.274736
O1    O     O_R   0.419710 0.645650 0.494620 -0.531646
O2    O     O_R   0.611450 0.658430 0.507430 -0.549112
O3    O     O_R   0.357340 0.490460 0.641450 -0.611158
O4    O     O_R   0.549080 0.503250 0.654260 -0.543909
O5    O     O_R   0.388550 0.341570 0.492570 -0.549369
O6    O     O_R   0.580290 0.354350 0.505380 -0.535025
O7    O     O_R   0.450920 0.496750 0.345740 -0.538351
O8    O     O_R   0.642660 0.509540 0.358550 -0.552292
C37   C     C_1   0.777869 0.048750 0.486332 0.308064
N3    N     N_1   0.871231 0.098087 0.479406 -0.226459
F1    F     F_    0.256196 0.960484 0.453117 -0.580878
C38   C     C_1   0.761356 0.833333 0.465164 0.384333
N4    N     N_1   0.848488 0.798937 0.449675 -0.221841
F2    F     F_    0.338951 0.802552 0.470840 -0.593918
C39   C     C_1   0.192218 0.610329 0.617828 0.405795
N5    N     N_1   0.230585 0.663267 0.679276 -0.249156
F3    F     F_    0.244998 0.346499 0.358063 -0.663292
C40   C     C_1   0.985354 0.697412 0.649453 0.394679
N6    N     N_1   0.015718 0.769911 0.697120 -0.183161
C41   C     C_1   0.014368 0.318158 0.336189 0.475362
N7    N     N_1   0.983673 0.254953 0.278880 -0.195991
F4    F     F_    0.755244 0.657279 0.636423 -0.662748
C42   C     C_1   0.732615 0.759578 0.875311 0.309206
N8    N     N_1   0.800744 0.834098 0.851802 -0.206925
F5    F     F_    0.807979 0.384857 0.396311 -0.646494
C43   C     C_1   0.848768 0.682359 0.012697 0.252835
N9    N     N_1   0.944539 0.724125 0.980614 -0.225041
C44   C     C_1   0.264085 0.506815 0.130761 0.261796
N10   N     N_1   0.221096 0.526907 0.215076 -0.242645
C45   C     C_1   0.121289 0.391760 0.999895 0.267213
N11   N     N_1   0.024238 0.353413 0.032468 -0.227565
C46   C     C_1   0.546150 0.707049 0.771446 0.369844
N12   N     N_1   0.534677 0.765722 0.714578 -0.263810
C47   C     C_1   0.637735 0.195953 0.586434 0.336738
N13   N     N_1   0.701426 0.241607 0.634478 -0.261227

loop_
_geom_bond_atom_site_label_1
_geom_bond_atom_site_label_2
_ccdc_geom_bond_type
C35   C45   S    
C30   C41   S    
C14   C18   A    
C35   C36   A    
C34   H4    S    
C31   O8    A    
C12   O4    A    
C37   N3    T    
C11   C19   A    
C26   C27   A    
C40   N6    T    
Cu1   Cu2   S    
C18   C19   A    
C3    C7    A    
C5    C6    A    
Cu1   O7    S    
C1    O2    A    
C23   O5    A    
Cu2   O8    S    
C9    H1    S    
C38   N4    T    
C34   C35   A    
C9    C32   A    
C16   C17   A    
C31   C33   S    
C43   N9    T    
Cu1   O3    S    
Cu2   O4    S    
C4    C8    A    
C5    C32   A    
C39   N5    T    
C29   N1    A    
C9    C33   A    
C12   O3    A    
C25   N2    A    
C29   F3    S    
C11   C20   A    
C45   N11   T    
C42   N8    T    
C46   N12   T    
C21   F1    S    
C47   N13   T    
C44   N10   T    
C23   O6    A    
C32   C43   S    
C25   C26   A    
C17   C21   A    
Cu1   N1    S    
C19   C47   S    
C2    C4    A    
Cu2   N2    S    
C29   C30   A    
C22   C40   S    
Cu1   O5    S    
C17   C18   A    
C10   C34   A    
C16   F2    S    
C8    H3    S    
C6    C7    A    
C10   C12   S    
C6    C42   S    
C26   C30   A    
C22   C27   A    
C13   C15   A    
C24   N2    A    
C22   C24   A    
C25   F5    S    
Cu1   O1    S    
C28   C39   S    
C2    C36   A    
C31   O7    A    
C4    C5    A    
C7    C46   S    
Cu2   O6    S    
C24   F4    S    
C28   N1    A    
C41   N7    T    
C2    C3    A    
C3    C10   A    
C15   C38   S    
C1    O1    A    
C20   H2    S    
C11   C23   S    
C8    C33   A    
Cu2   O2    S    
C14   C37   S    
C1    C13   S    
C20   C21   A    
C13   C16   A    
C27   C28   A    
C14   C15   A    
C36   C44   S    
