data_mof_unit_24001.cif
_audit_creation_date              2012-12-10T17:49:33-0500
_audit_creation_method            fapswitch 2.2
_symmetry_space_group_name_H-M    P1
_symmetry_Int_Tables_number       1
_space_group_crystal_system       triclinic
_cell_length_a                    14.705192
_cell_length_b                    14.571219
_cell_length_c                    15.8821
_cell_angle_alpha                 76.882788
_cell_angle_beta                  102.452324
_cell_angle_gamma                 114.589234
_cell_volume                      2985.38993776

loop_
_atom_site_label
_atom_site_type_symbol
_atom_type_description
_atom_site_fract_x
_atom_site_fract_y
_atom_site_fract_z
_atom_type_partial_charge
C1    C     C_R   0.880492 0.311044 0.515685 0.787332
C2    C     C_3   0.010462 0.404319 0.069817 -0.385204
C3    C     C_3   0.005311 0.504270 0.083105 0.196718
C4    C     C_3   0.096190 0.599149 0.047806 -0.147459
C5    C     C_3   0.097013 0.597460 0.949607 -0.185338
C6    C     C_1   0.003619 0.502101 0.175480 -0.062892
C7    C     C_1   0.000588 0.503134 0.824295 -0.098164
C8    C     C_1   0.999462 0.501624 0.748880 -0.166299
C9    C     C_R   0.813594 0.200618 0.528108 -0.142477
C10   C     C_R   0.186468 0.797022 0.478897 -0.054217
C11   C     C_R   0.779806 0.019010 0.555741 -0.096217
C12   C     C_R   0.999586 0.500166 0.659606 0.827479
C13   C     C_R   0.849258 0.120281 0.548658 -0.035533
C14   C     C_R   0.709164 0.175542 0.516062 -0.236273
C15   C     C_R   0.638990 0.073775 0.528266 0.064940
C16   C     C_R   0.675673 0.994108 0.549129 0.097678
C17   C     C_R   0.533102 0.049585 0.517420 0.080629
C18   C     C_R   0.464931 0.946524 0.517297 0.079370
C19   C     C_R   0.503991 0.869126 0.542842 -0.310352
C20   C     C_R   0.607163 0.891285 0.561420 -0.001619
C21   C     C_R   0.493115 0.124566 0.509636 -0.236721
C22   C     C_R   0.389827 0.100542 0.495123 -0.167912
C23   C     C_R   0.119454 0.688268 0.484867 0.808916
C24   C     C_R   0.321055 0.001199 0.484683 0.132432
C25   C     C_R   0.359112 0.923207 0.496524 0.075611
C26   C     C_R   0.214843 0.976063 0.466309 -0.009719
C27   C     C_R   0.149042 0.873382 0.467655 -0.265873
C28   C     C_R   0.290073 0.823486 0.487343 -0.232967
C29   C     C_R   0.714230 0.666447 0.350387 -0.085939
C30   C     C_R   0.795440 0.635432 0.375038 -0.016829
C31   C     C_R   0.714959 0.510682 0.488456 0.033407
C32   C     C_R   0.630110 0.538871 0.468580 -0.070408
C33   C     C_R   0.635055 0.625366 0.403340 0.127796
C34   C     C_R   0.000526 0.499989 0.340391 0.835983
C35   C     C_R   0.542136 0.485324 0.512186 0.094448
C36   C     C_R   0.461497 0.520815 0.491740 0.079754
C37   C     C_R   0.475386 0.613805 0.435407 -0.339326
C38   C     C_R   0.562320 0.668475 0.395238 0.025040
C39   C     C_R   0.531564 0.396892 0.575134 -0.222028
C40   C     C_R   0.447347 0.347457 0.618687 -0.195863
C41   C     C_R   0.368282 0.381280 0.599040 0.163584
C42   C     C_R   0.372152 0.465917 0.533185 -0.004300
C43   C     C_R   0.285034 0.331012 0.644928 -0.288120
C44   C     C_R   0.204739 0.362834 0.623781 0.087907
C45   C     C_3   0.010797 0.405669 0.972112 -0.415150
C46   C     C_R   0.285245 0.490835 0.511518 0.025057
C47   C     C_3   0.904277 0.509936 0.931311 -0.328992
C48   C     C_3   0.906559 0.511551 0.028892 -0.383391
C49   C     C_1   0.002244 0.500811 0.250972 -0.138950
C50   C     C_3   0.003113 0.505267 0.916615 0.254517
Cu1   Cu    Cu3+1 0.081750 0.475690 0.522550 0.953034
Cu2   Cu    Cu3+1 0.918250 0.524310 0.477450 0.955495
H1    H     H_    0.944147 0.337324 0.093055 0.189878
H2    H     H_    0.081228 0.399420 0.963963 0.172785
H3    H     H_    0.078855 0.394078 0.109144 0.170501
H4    H     H_    0.085074 0.668479 0.053735 0.201752
H5    H     H_    0.315089 0.764154 0.486195 0.147664
H6    H     H_    0.365400 0.161133 0.494268 0.203791
H7    H     H_    0.808835 0.959662 0.566882 0.218111
H8    H     H_    0.683605 0.237360 0.494500 0.161494
H9    H     H_    0.455462 0.789489 0.554965 0.132548
H10   H     H_    0.539714 0.202418 0.518561 0.141357
H11   H     H_    0.443660 0.281207 0.667769 0.146492
H12   H     H_    0.720513 0.451052 0.540842 0.122959
H13   H     H_    0.282228 0.267731 0.697083 0.145532
H14   H     H_    0.838328 0.442038 0.910551 0.161086
H15   H     H_    0.839721 0.446590 0.053634 0.177358
H16   H     H_    0.900577 0.583104 0.035802 0.190243
H17   H     H_    0.165196 0.585241 0.943604 0.088001
N1    N     N_R   0.795410 0.560790 0.443550 -0.173779
N2    N     N_R   0.204590 0.439170 0.556520 -0.180285
O1    O     O_R   0.977910 0.338120 0.529720 -0.598758
O2    O     O_R   0.839850 0.379180 0.491640 -0.581894
O3    O     O_R   0.069060 0.479460 0.639610 -0.583385
O4    O     O_R   0.931000 0.520530 0.601530 -0.569819
O5    O     O_R   0.160150 0.620820 0.508360 -0.593109
O6    O     O_R   0.022090 0.661880 0.470280 -0.579892
O7    O     O_R   0.069000 0.479470 0.398470 -0.564998
O8    O     O_R   0.930940 0.520540 0.360390 -0.579594
C51   C     C_2   0.637984 0.803116 0.595831 0.370353
H18   H     H_    0.591376 0.729550 0.575240 0.079907
O9    O     O_2   0.710813 0.809256 0.651752 -0.533895
H19   H     H_    0.068144 0.853195 0.457951 0.159626
C52   C     C_2   0.957578 0.136894 0.565398 0.403781
H20   H     H_    0.011237 0.194493 0.603201 0.079642
O10   O     O_2   0.987299 0.082517 0.540047 -0.560244
H21   H     H_    0.946333 0.337779 0.949527 0.184171
C53   C     C_2   0.167476 0.052359 0.444190 0.362676
H22   H     H_    0.090954 0.029509 0.457095 0.142779
O11   O     O_2   0.209422 0.138350 0.406163 -0.534536
C54   C     C_2   0.579603 0.776408 0.357212 0.424260
H23   H     H_    0.515755 0.797780 0.328826 0.093346
O12   O     O_2   0.664325 0.843352 0.362366 -0.549161
H24   H     H_    0.278933 0.549247 0.457949 0.132906
H25   H     H_    0.141768 0.325878 0.660655 0.112070
C55   C     C_2   0.710870 0.731189 0.263939 0.437020
H26   H     H_    0.780704 0.782929 0.238767 0.063265
O13   O     O_2   0.630716 0.722955 0.217768 -0.523525
H27   H     H_    0.858242 0.668778 0.337694 0.124446
H28   H     H_    0.892820 0.578143 0.890672 0.219894
H29   H     H_    0.422629 0.650087 0.427210 0.123292
H30   H     H_    0.587411 0.363635 0.592894 0.126210
C56   C     C_2   0.106234 0.699074 0.893179 0.373300
H31   H     H_    0.162842 0.734814 0.849160 0.079847
O14   O     O_2   0.049866 0.740751 0.894750 -0.532535
C57   C     C_2   0.196406 0.604864 0.101377 0.346295
H32   H     H_    0.225119 0.546774 0.103175 0.088559
O15   O     O_2   0.246287 0.675273 0.142599 -0.522381

loop_
_geom_bond_atom_site_label_1
_geom_bond_atom_site_label_2
_ccdc_geom_bond_type
C10   C27   A    
C5    C56   S    
C12   O3    A    
C41   C42   A    
C36   C42   A    
C19   C20   A    
Cu1   O3    S    
C23   O5    A    
C9    C14   A    
C3    C6    S    
C7    C8    T    
C28   H5    S    
C25   C28   A    
C13   C52   S    
C26   C27   A    
C29   C30   A    
C40   H11   S    
C36   C37   A    
C45   H21   S    
C24   C26   A    
C2    H3    S    
C57   H32   S    
C15   C16   A    
C29   C33   A    
C3    C48   S    
C44   N2    A    
C18   C19   A    
C42   C46   A    
C9    C13   A    
C5    H17   S    
C56   H31   S    
C52   H20   S    
C31   N1    A    
C31   C32   A    
C55   O13   D    
Cu2   O8    S    
C47   H14   S    
C43   H13   S    
Cu2   O4    S    
C6    C49   T    
C21   C22   A    
C4    H4    S    
C41   C43   A    
C18   C25   A    
Cu1   N2    S    
C11   H7    S    
C30   N1    A    
C47   C50   S    
C2    C45   S    
C1    O1    A    
C20   C51   S    
Cu1   Cu2   S    
C32   C35   A    
C1    C9    S    
C24   C25   A    
C51   O9    D    
Cu2   O2    S    
C54   H23   S    
C51   H18   S    
C4    C57   S    
C38   C54   S    
C48   H16   S    
C47   H28   S    
C35   C36   A    
C35   C39   A    
C43   C44   A    
C37   C38   A    
C34   O8    A    
C54   O12   D    
C11   C16   A    
C47   C48   S    
C46   H24   S    
C8    C12   S    
C55   H26   S    
C17   C18   A    
C46   N2    A    
C56   O14   D    
C16   C20   A    
C23   O6    A    
C21   H10   S    
C40   C41   A    
C53   O11   D    
C45   H2    S    
C22   C24   A    
C5    C50   S    
Cu1   O1    S    
Cu2   O6    S    
C39   C40   A    
C39   H30   S    
C10   C28   A    
C15   C17   A    
C34   C49   S    
C31   H12   S    
C7    C50   S    
C52   O10   D    
C4    C5    S    
C2    H1    S    
C22   H6    S    
C29   C55   S    
C10   C23   S    
C14   H8    S    
C33   C38   A    
C1    O2    A    
C32   C33   A    
C27   H19   S    
C2    C3    S    
Cu1   O7    S    
C44   H25   S    
C34   O7    A    
C37   H29   S    
C11   C13   A    
C57   O15   D    
C45   C50   S    
C19   H9    S    
C30   H27   S    
C48   H15   S    
C17   C21   A    
Cu2   N1    S    
C53   H22   S    
C26   C53   S    
C12   O4    A    
Cu1   O5    S    
C14   C15   A    
C3    C4    S    
