data_mof_unit_47348.cif
_audit_creation_date              2012-12-10T20:34:47-0500
_audit_creation_method            fapswitch 2.2
_symmetry_space_group_name_H-M    P1
_symmetry_Int_Tables_number       1
_space_group_crystal_system       triclinic
_cell_length_a                    10.6436
_cell_length_b                    10.685304
_cell_length_c                    9.871756
_cell_angle_alpha                 89.961557
_cell_angle_beta                  89.724958
_cell_angle_gamma                 90.391511
_cell_volume                      1122.67638906

loop_
_atom_site_label
_atom_site_type_symbol
_atom_type_description
_atom_site_fract_x
_atom_site_fract_y
_atom_site_fract_z
_atom_type_partial_charge
C1    C     C_R   0.502554 0.259881 0.500034 0.950080
C2    C     C_3   0.878408 0.495928 0.500221 0.127907
C3    C     C_3   0.929117 0.623572 0.448498 -0.400191
C4    C     C_3   0.926060 0.389298 0.407356 -0.420056
C5    C     C_R   0.535946 0.063247 0.620515 0.043326
C6    C     C_R   0.520694 0.128344 0.499326 -0.053311
C7    C     C_R   0.532572 0.064791 0.375571 -0.190426
C8    C     C_R   0.535439 0.935558 0.375301 -0.208196
C9    C     C_R   0.527276 0.871074 0.498900 -0.065186
C10   C     C_R   0.542309 0.935904 0.620102 0.055056
C11   C     C_3   0.477068 0.923724 0.753873 -0.475369
C12   C     C_R   0.257622 0.497705 0.500245 0.910141
C13   C     C_3   0.467766 0.065645 0.753856 0.123968
C14   C     C_R   0.417858 0.425497 0.071919 0.229258
C15   C     C_R   0.588321 0.564795 0.071429 -0.139005
C16   C     C_R   0.588389 0.564723 0.927490 -0.144830
C17   C     C_R   0.417156 0.426320 0.929288 0.257023
C18   C     C_3   0.277637 0.436778 0.926780 -0.506231
C19   C     C_3   0.278568 0.432564 0.079845 -0.512985
C20   C     C_R   0.505313 0.739893 0.499838 0.878742
C21   C     C_R   0.742210 0.498060 0.499956 0.830478
C22   C     C_3   0.069913 0.470299 0.645401 -0.374715
C23   C     C_3   0.927329 0.472319 0.645899 -0.384247
C24   C     C_3   0.073339 0.624333 0.452091 -0.464599
C25   C     C_3   0.070423 0.392621 0.401612 0.115143
C26   C     C_3   0.120982 0.495058 0.500254 0.091136
H1    H     H_    0.103810 0.544359 0.715579 0.172002
H2    H     H_    0.888755 0.400008 0.302829 0.168173
H3    H     H_    0.110708 0.646569 0.349235 0.179980
H4    H     H_    0.897017 0.640693 0.342948 0.178293
H5    H     H_    0.530732 0.113421 0.279272 0.171377
H6    H     H_    0.534332 0.887188 0.278887 0.169442
H7    H     H_    0.385290 0.873849 0.746531 0.238217
H8    H     H_    0.540685 0.887407 0.833551 0.172104
H9    H     H_    0.523606 0.111082 0.835252 0.121023
H10   H     H_    0.657899 0.619423 0.125301 0.144700
H11   H     H_    0.102913 0.378312 0.683475 0.229498
H12   H     H_    0.658056 0.619246 0.872826 0.146001
H13   H     H_    0.246763 0.528711 0.886971 0.204423
H14   H     H_    0.231422 0.353774 0.881174 0.244750
H15   H     H_    0.244981 0.520718 0.127108 0.212474
H16   H     H_    0.236710 0.345049 0.121602 0.229950
H17   H     H_    0.890627 0.381441 0.685502 0.188019
H18   H     H_    0.894857 0.547465 0.715768 0.180906
H19   H     H_    0.106788 0.699259 0.521790 0.194152
H20   H     H_    0.892545 0.700907 0.512802 0.175239
H21   H     H_    0.098670 0.417631 0.296581 0.128068
H22   H     H_    0.891324 0.297651 0.446538 0.197211
N1    N     N_R   0.499150 0.499140 0.142800 -0.110946
N2    N     N_R   0.499150 0.499180 0.857150 -0.113403
O1    O     O_R   0.500020 0.316790 0.614690 -0.600273
O2    O     O_R   0.500000 0.316760 0.385350 -0.620880
O3    O     O_R   0.314800 0.500000 0.614670 -0.615238
O4    O     O_R   0.314790 0.499960 0.385330 -0.624723
O5    O     O_R   0.500000 0.683240 0.614650 -0.620298
O6    O     O_R   0.499980 0.683210 0.385310 -0.626044
O7    O     O_R   0.685210 0.500040 0.614670 -0.637446
O8    O     O_R   0.685200 0.500000 0.385330 -0.634018
Zn1   Zn    Zn3+2 0.500010 0.500020 0.653130 0.955318
Zn2   Zn    Zn3+2 0.499990 0.499980 0.346870 0.949191
Br1   Br    Br    0.294335 0.120192 0.742408 -0.508520
Br2   Br    Br    0.139183 0.226535 0.435030 -0.511629

loop_
_geom_bond_atom_site_label_1
_geom_bond_atom_site_label_2
_ccdc_geom_bond_type
C17   N2    A    
C3    H4    S    
C2    C4    S    
C18   H13   S    
C21   O7    A    
C6    C7    A    
O5    Zn1   S    
C25   Br2   S    
C11   C13   S    
C9    C10   A    
C25   H21   S    
C9    C20   S    
C5    C13   S    
C12   O3    A    
C11   H8    S    
C19   H16   S    
C20   O6    A    
C2    C21   S    
C17   C18   S    
O3    Zn1   S    
C23   H17   S    
C21   O8    A    
O4    Zn2   S    
C1    O1    A    
C14   C17   A    
C3    C24   S    
N1    Zn2   S    
C20   O5    A    
N2    Zn1   S    
C5    C10   A    
C4    H2    S    
C24   C26   S    
C4    C25   S    
O1    Zn1   S    
C2    C3    S    
C22   H1    S    
C15   N1    A    
C22   C26   S    
C5    C6    A    
C1    O2    A    
O7    Zn1   S    
C14   N1    A    
C7    H5    S    
C10   C11   S    
C24   H19   S    
C3    H20   S    
O8    Zn2   S    
C15   C16   A    
C8    H6    S    
C19   H15   S    
C15   H10   S    
C11   H7    S    
C13   Br1   S    
C18   C19   S    
C4    H22   S    
C12   C26   S    
C2    C23   S    
C7    C8    A    
C18   H14   S    
C22   C23   S    
O2    Zn2   S    
C16   H12   S    
C25   C26   S    
C24   H3    S    
C22   H11   S    
C14   C19   S    
C13   H9    S    
C12   O4    A    
C23   H18   S    
O6    Zn2   S    
C16   N2    A    
C8    C9    A    
C1    C6    S    
