data_mof_unit_40761.cif
_audit_creation_date              2013-03-05T16:30:42-0500
_audit_creation_method            fapswitch 2.2
_symmetry_space_group_name_H-M    P1
_symmetry_Int_Tables_number       1
_space_group_crystal_system       triclinic
_cell_length_a                    10.920327
_cell_length_b                    10.826786
_cell_length_c                    9.544258
_cell_angle_alpha                 89.949242
_cell_angle_beta                  89.241796
_cell_angle_gamma                 90.183583
_cell_volume                      1128.33204609

loop_
_atom_site_label
_atom_site_type_symbol
_atom_site_description
_atom_site_fract_x
_atom_site_fract_y
_atom_site_fract_z
_atom_type_partial_charge
O1    O     O_R   0.500000 0.319640 0.618810 -0.590830
O2    O     O_R   0.500010 0.319680 0.381230 -0.586218
C1    C     C_R   0.502119 0.262402 0.500013 0.785382
O3    O     O_R   0.321940 0.499980 0.618760 -0.530805
O4    O     O_R   0.321950 0.500020 0.381180 -0.603803
C2    C     C_R   0.265285 0.507069 0.501178 0.757471
Cu1   Cu    Cu3+1 0.499990 0.499980 0.640670 0.997557
Cu2   Cu    Cu3+1 0.500010 0.500020 0.359330 0.953203
O5    O     O_R   0.499990 0.680320 0.618770 -0.568854
O6    O     O_R   0.500000 0.680360 0.381190 -0.582659
O7    O     O_R   0.678050 0.499980 0.618820 -0.564150
O8    O     O_R   0.678060 0.500020 0.381240 -0.612955
C3    C     C_R   0.501829 0.737701 0.499956 0.836017
C4    C     C_R   0.734255 0.492676 0.499035 0.719944
C5    C     C_2   0.933672 0.520763 0.393137 -0.192934
C6    C     C_2   0.865523 0.469677 0.496197 0.395874
H1    H     H_    0.891108 0.568782 0.306637 0.129958
C7    C     C_2   0.067120 0.511187 0.390843 -0.239157
C8    C     C_2   0.134328 0.532690 0.505470 0.254845
H2    H     H_    0.109994 0.481886 0.293091 0.150291
C9    C     C_R   0.511096 0.063874 0.625785 0.051824
C10   C     C_R   0.513864 0.129492 0.499984 -0.056140
C11   C     C_R   0.532711 0.064762 0.373982 -0.196661
H3    H     H_    0.542132 0.112923 0.274887 0.160930
C12   C     C_R   0.532050 0.936008 0.374016 -0.178361
H4    H     H_    0.540786 0.888313 0.274957 0.151032
C13   C     C_R   0.512826 0.870909 0.499985 -0.045378
C14   C     C_R   0.510161 0.936679 0.625874 0.005919
C15   C     C_3   0.423139 0.932125 0.748826 0.167100
C16   C     C_3   0.424641 0.072766 0.748063 -0.491334
H5    H     H_    0.464017 0.891368 0.844299 0.094468
H6    H     H_    0.336145 0.116609 0.720579 0.228311
H7    H     H_    0.469636 0.112797 0.841513 0.168140
C17   C     C_R   0.602046 0.535239 0.071951 0.251174
N1    N     N_R   0.500780 0.500930 0.147930 -0.187749
C18   C     C_R   0.404241 0.452471 0.075798 -0.061724
H8    H     H_    0.325936 0.415337 0.132210 0.148113
C19   C     C_R   0.404199 0.452563 0.927008 -0.028686
H9    H     H_    0.325922 0.415637 0.872773 0.170263
N2    N     N_R   0.500780 0.500890 0.852020 -0.194477
C20   C     C_R   0.602214 0.534698 0.924678 0.256133
C21   C     C_3   0.666288 0.656153 0.916533 -0.455877
C22   C     C_3   0.664869 0.657667 0.075680 -0.496064
H10   H     H_    0.759918 0.647676 0.870474 0.235467
H11   H     H_    0.609227 0.729543 0.869505 0.203440
H12   H     H_    0.757807 0.651746 0.121015 0.202388
H13   H     H_    0.605785 0.731346 0.120338 0.208073
O9    O     O_3   0.920188 0.399735 0.600531 -0.545550
C23   C     C_3   0.862519 0.283173 0.612053 -0.277924
H14   H     H_    0.848172 0.239523 0.507775 0.135958
H15   H     H_    0.774346 0.290129 0.670838 0.171529
H16   H     H_    0.922790 0.221023 0.672458 0.207662
N3    N     N_R   0.082081 0.590145 0.628987 0.191114
O10   O     O_R   0.112623 0.553081 0.753425 -0.306026
O11   O     O_R   0.010377 0.685316 0.617290 -0.320253
N4    N     N_R   0.303428 0.879538 0.714821 0.156497
O12   O     O_R   0.255711 0.794821 0.795484 -0.293369
O13   O     O_R   0.243966 0.915906 0.604912 -0.338141

loop_
_geom_bond_atom_site_label_1
_geom_bond_atom_site_label_2
_geom_bond_distance
_ccdc_geom_bond_type
C5    C7    1.461189 S    
C16   H6    1.112428 S    
C11   H3    1.083138 S    
O6    C3    1.293242 A    
N2    C20   1.363837 A    
C15   C16   1.522735 S    
C15   N4    1.464674 S    
O4    Cu2   1.952879 S    
C9    C16   1.494751 S    
N1    C18   1.370010 A    
Cu2   O8    1.958326 S    
Cu1   N2    2.017344 S    
C23   H16   1.109294 S    
C8    N3    1.444996 S    
C18   C19   1.420099 A    
O2    C1    1.292249 A    
Cu1   Cu2   2.685178 S    
C15   H5    1.111588 S    
O1    Cu1   1.963803 S    
N3    O10   1.301277 A    
C19   N2    1.369014 A    
C2    C8    1.457674 S    
C6    O9    1.392357 S    
C19   H9    1.080907 S    
C17   C20   1.405603 A    
C21   H10   1.111707 S    
O3    Cu1   1.958326 S    
O9    C23   1.412144 S    
O3    C2    1.290968 A    
C14   C15   1.500891 S    
O7    C4    1.293029 A    
C9    C14   1.377126 A    
N4    O13   1.302319 A    
Cu1   O7    1.952878 S    
C7    H2    1.086365 S    
N3    O11   1.301762 A    
O4    C2    1.296967 A    
C17   N1    1.364713 A    
C22   H12   1.110573 S    
C4    C6    1.455648 S    
C12   C13   1.406126 A    
C21   C22   1.518924 S    
C5    C6    1.343249 D    
Cu1   O5    1.963473 S    
C11   C12   1.393988 A    
C7    C8    1.345500 D    
N4    O12   1.300217 A    
Cu2   O6    1.963802 S    
C23   H14   1.114858 S    
C20   C21   1.489045 S    
O2    Cu2   1.963473 S    
C13   C14   1.397231 A    
C5    H1    1.085760 S    
O5    C3    1.292427 A    
C10   C11   1.405559 A    
C18   H8    1.080727 S    
C1    C10   1.445097 S    
C16   H7    1.111618 S    
C23   H15   1.110789 S    
C12   H4    1.080927 S    
C9    C10   1.394504 A    
C22   H13   1.109469 S    
Cu2   N1    2.017579 S    
C3    C13   1.446825 S    
C17   C22   1.491230 S    
O8    C4    1.290461 A    
O1    C1    1.292585 A    
C21   H11   1.109523 S    
