data_mof_unit_43180.cif
_audit_creation_date              2012-12-10T17:37:18-0500
_audit_creation_method            fapswitch 2.2
_symmetry_space_group_name_H-M    P1
_symmetry_Int_Tables_number       1
_space_group_crystal_system       triclinic
_cell_length_a                    12.335098
_cell_length_b                    13.19721
_cell_length_c                    15.838657
_cell_angle_alpha                 77.937823
_cell_angle_beta                  101.233565
_cell_angle_gamma                 116.464905
_cell_volume                      2241.92693228

loop_
_atom_site_label
_atom_site_type_symbol
_atom_type_description
_atom_site_fract_x
_atom_site_fract_y
_atom_site_fract_z
_atom_type_partial_charge
C1    C     C_R   0.854702 0.286610 0.508886 0.783696
C2    C     C_3   0.001178 0.501233 0.917290 0.192396
C3    C     C_3   0.112644 0.516871 0.041903 -0.159345
C4    C     C_3   0.002261 0.501301 0.082825 0.193480
C5    C     C_3   0.085702 0.601918 0.967025 -0.154284
C6    C     C_3   0.975341 0.586353 0.009528 -0.156263
C7    C     C_1   0.000207 0.500907 0.825408 -0.077954
C8    C     C_1   0.002170 0.501059 0.174634 -0.085961
C9    C     C_R   0.272124 0.026314 0.402332 -0.196706
C10   C     C_R   0.227307 0.834647 0.475344 -0.072026
C11   C     C_R   0.812194 0.091548 0.582662 -0.284405
C12   C     C_R   0.999685 0.499946 0.659979 0.819831
C13   C     C_R   0.729288 0.987299 0.619207 -0.201676
C14   C     C_R   0.604333 0.954064 0.596775 0.459013
C15   C     C_R   0.561017 0.017554 0.524697 -0.044853
C16   C     C_R   0.646585 0.124778 0.487929 0.034218
C17   C     C_R   0.436023 0.980985 0.489747 0.069797
C18   C     C_R   0.396516 0.057951 0.430528 0.169827
C19   C     C_R   0.482007 0.162035 0.395215 -0.234507
C20   C     C_R   0.605223 0.190975 0.418901 -0.164300
C21   C     C_R   0.350513 0.867774 0.506438 -0.224467
C22   C     C_R   0.187301 0.915460 0.426282 -0.190499
C23   C     C_R   0.144958 0.713244 0.487913 0.800571
C24   C     C_R   0.771406 0.164548 0.522158 -0.097323
C25   C     C_R   0.342315 0.322138 0.631320 -0.301931
C26   C     C_R   0.760970 0.644340 0.382790 -0.012636
C27   C     C_R   0.661938 0.670296 0.351296 -0.324715
C28   C     C_R   0.553661 0.611578 0.389816 0.506340
C29   C     C_R   0.547771 0.530844 0.466427 -0.121547
C30   C     C_R   0.651231 0.504291 0.493740 0.224401
C31   C     C_R   0.444273 0.472773 0.515716 -0.024241
C32   C     C_R   0.442812 0.383492 0.584163 0.174029
C33   C     C_R   0.542469 0.356925 0.606733 -0.278455
C34   C     C_R   0.000547 0.500330 0.340012 0.824957
C35   C     C_R   0.645280 0.417955 0.564168 -0.140242
C36   C     C_R   0.342730 0.500092 0.502655 0.051347
C37   C     C_R   0.243793 0.350335 0.612231 0.075041
C38   C     C_3   0.917799 0.400645 0.033073 -0.159974
C39   C     C_3   0.890854 0.485681 0.958257 -0.157953
C40   C     C_1   0.999622 0.500486 0.749719 -0.181213
C41   C     C_1   0.001557 0.500720 0.250266 -0.184924
C42   C     C_3   0.028146 0.416200 0.990592 -0.159483
Cu1   Cu    Cu3+1 0.098270 0.475420 0.519690 0.945774
Cu2   Cu    Cu3+1 0.901730 0.524580 0.480310 0.926814
H1    H     H_    0.799828 0.472870 0.922550 0.131715
H2    H     H_    0.379607 0.802137 0.538291 0.215961
H3    H     H_    0.907596 0.119412 0.608088 0.170640
H4    H     H_    0.761899 0.936226 0.671108 0.157958
H5    H     H_    0.667334 0.266327 0.382161 0.167662
H6    H     H_    0.165281 0.302705 0.647697 0.120618
H7    H     H_    0.542356 0.289743 0.659633 0.144053
H8    H     H_    0.340220 0.253004 0.682847 0.133068
H9    H     H_    0.338278 0.571410 0.457670 0.202523
H10   H     H_    0.842816 0.688460 0.350662 0.150890
H11   H     H_    0.848913 0.318023 0.061559 0.129491
H12   H     H_    0.667632 0.733892 0.294595 0.163685
H13   H     H_    0.718366 0.393887 0.588783 0.203023
H14   H     H_    0.953692 0.656195 0.018693 0.128284
H15   H     H_    0.154616 0.684512 0.938508 0.126471
H16   H     H_    0.203636 0.529673 0.077697 0.122137
H17   H     H_    0.049785 0.346352 0.981426 0.127323
H18   H     H_    0.092120 0.891092 0.401417 0.150883
H19   H     H_    0.453786 0.218507 0.345520 0.136415
H20   H     H_    0.241159 0.085877 0.359001 0.131719
N1    N     N_R   0.246280 0.438200 0.549540 -0.196442
N2    N     N_R   0.754330 0.561180 0.450980 -0.198920
O1    O     O_R   0.972510 0.318130 0.524770 -0.582486
O2    O     O_R   0.806530 0.359650 0.491510 -0.605000
O3    O     O_R   0.082970 0.479240 0.637550 -0.572758
O4    O     O_R   0.916990 0.520750 0.604290 -0.590137
O5    O     O_R   0.193470 0.640350 0.508490 -0.587516
O6    O     O_R   0.027490 0.681870 0.475230 -0.585519
O7    O     O_R   0.083010 0.479250 0.395710 -0.574494
O8    O     O_R   0.917030 0.520760 0.362450 -0.585920
O9    O     O_3   0.528079 0.861911 0.649183 -0.635687
C43   C     C_3   0.481521 0.900483 0.704764 0.047585
H21   H     H_    0.390974 0.831455 0.719134 0.171368
H22   H     H_    0.465600 0.977784 0.674565 0.129825
C44   C     C_3   0.565370 0.922707 0.790462 -0.351201
H23   H     H_    0.579920 0.844961 0.820126 0.229013
H24   H     H_    0.655188 0.994231 0.777785 0.209500
C45   C     C_3   0.510678 0.953650 0.854315 -0.929862
H25   H     H_    0.497003 0.032211 0.826352 0.252453
H26   H     H_    0.573610 0.969671 0.915509 0.256399
H27   H     H_    0.421812 0.882451 0.869719 0.253895
O10   O     O_3   0.455410 0.634093 0.349748 -0.597285
C46   C     C_3   0.388985 0.557797 0.288464 -0.356078
H28   H     H_    0.355461 0.467162 0.319920 0.160962
H29   H     H_    0.444354 0.572098 0.235807 0.164041
H30   H     H_    0.307952 0.573597 0.258000 0.200094

loop_
_geom_bond_atom_site_label_1
_geom_bond_atom_site_label_2
_ccdc_geom_bond_type
Cu1   O7    S    
C12   O3    A    
C3    C42   S    
C9    H20   S    
C6    H14   S    
Cu2   N2    S    
C19   C20   A    
C43   C44   S    
C4    C8    S    
C27   H12   S    
C10   C22   A    
C26   C27   A    
C20   H5    S    
C30   C35   A    
C28   C29   A    
C43   H22   S    
C38   C42   S    
C31   C36   A    
C5    C6    S    
C9    C22   A    
C15   C16   A    
C11   C24   A    
C1    O2    A    
C18   C19   A    
O9    C43   S    
C36   H9    S    
C25   C37   A    
C11   H3    S    
C2    C39   S    
C38   H11   S    
C2    C7    S    
C19   H19   S    
C37   N1    A    
C7    C40   T    
Cu2   O4    S    
C16   C20   A    
C39   H1    S    
C3    H16   S    
C25   C32   A    
C16   C24   A    
C13   C14   A    
C34   C41   S    
C26   H10   S    
C10   C21   A    
C5    H15   S    
C26   N2    A    
C23   O5    A    
C8    C41   T    
C4    C6    S    
C44   H24   S    
C36   N1    A    
C17   C21   A    
C13   H4    S    
C12   C40   S    
Cu1   Cu2   S    
C29   C30   A    
C22   H18   S    
C31   C32   A    
C14   C15   A    
Cu1   N1    S    
C17   C18   A    
C43   H21   S    
Cu2   O8    S    
C42   H17   S    
C30   N2    A    
C34   O8    A    
C4    C38   S    
C45   H26   S    
C46   H29   S    
C28   O10   S    
Cu2   O2    S    
C2    C5    S    
C3    C4    S    
C21   H2    S    
C15   C17   A    
C12   O4    A    
Cu1   O5    S    
O10   C46   S    
C23   O6    A    
C3    C5    S    
C44   C45   S    
C1    O1    A    
C10   C23   S    
C33   H7    S    
C45   H27   S    
C35   H13   S    
C14   O9    S    
C25   H8    S    
C29   C31   A    
C1    C24   S    
C32   C33   A    
C37   H6    S    
C11   C13   A    
C38   C39   S    
C2    C42   S    
C33   C35   A    
Cu2   O6    S    
C34   O7    A    
C44   H23   S    
C9    C18   A    
C46   H28   S    
Cu1   O1    S    
C45   H25   S    
C46   H30   S    
C27   C28   A    
C6    C39   S    
Cu1   O3    S    
