data_mof_unit_38620.cif
_audit_creation_date              2013-03-05T16:12:12-0500
_audit_creation_method            fapswitch 2.2
_symmetry_space_group_name_H-M    P1
_symmetry_Int_Tables_number       1
_space_group_crystal_system       triclinic
_cell_length_a                    10.724631
_cell_length_b                    9.4012
_cell_length_c                    27.820344
_cell_angle_alpha                 89.98495
_cell_angle_beta                  89.999512
_cell_angle_gamma                 90.016498
_cell_volume                      2804.96930507

loop_
_atom_site_label
_atom_site_type_symbol
_atom_site_description
_atom_site_fract_x
_atom_site_fract_y
_atom_site_fract_z
_atom_type_partial_charge
O1    O     O_R   0.317570 0.620260 0.500030 -0.596847
O2    O     O_R   0.317570 0.379740 0.500030 -0.596045
C1    C     C_R   0.259616 0.500191 0.500090 0.766789
O3    O     O_R   0.499900 0.620250 0.430280 -0.592942
O4    O     O_R   0.499900 0.379750 0.430280 -0.592924
C2    C     C_R   0.499949 0.500012 0.407461 0.806027
Cu1   Cu    Cu3+1 0.499860 0.642410 0.500020 0.893988
Cu2   Cu    Cu3+1 0.499860 0.357590 0.500020 0.894433
O5    O     O_R   0.682190 0.620260 0.500010 -0.596301
O6    O     O_R   0.682190 0.379740 0.500010 -0.596415
O7    O     O_R   0.499860 0.620280 0.569750 -0.590828
O8    O     O_R   0.499860 0.379720 0.569750 -0.590178
C3    C     C_R   0.740140 0.500215 0.500076 0.765163
C4    C     C_R   0.499844 0.500009 0.592542 0.828842
C5    C     C_R   0.390356 0.518583 0.178200 0.532881
O9    O     O_2   0.283425 0.536274 0.203077 -0.536092
N1    N     N_R   0.500282 0.499938 0.202250 -0.469944
C6    C     C_R   0.610178 0.481149 0.178194 0.532847
C7    C     C_R   0.512803 0.371892 0.278923 -0.104261
C8    C     C_R   0.512390 0.371687 0.329042 -0.227102
C9    C     C_R   0.487945 0.628343 0.329003 -0.227172
C10   C     C_R   0.487721 0.628102 0.278882 -0.104205
C11   C     C_R   0.500294 0.499985 0.253744 0.364730
C12   C     C_R   0.500198 0.499510 0.102070 -0.043722
C13   C     C_R   0.388243 0.518568 0.127735 -0.020201
C14   C     C_R   0.276707 0.536351 0.102661 -0.146645
C15   C     C_R   0.612207 0.480742 0.127728 -0.020200
C16   C     C_R   0.500090 0.500020 0.354548 -0.041904
H1    H     H_    0.478177 0.728776 0.347678 0.143049
H2    H     H_    0.478150 0.727425 0.259515 0.135319
H3    H     H_    0.189160 0.549913 0.121557 0.187057
C17   C     C_R   0.500420 0.500283 0.645414 -0.095355
C18   C     C_R   0.386665 0.522612 0.974538 0.043211
C19   C     C_R   0.613433 0.474677 0.974544 0.042899
C20   C     C_R   0.500037 0.498553 0.949302 0.069066
C21   C     C_R   0.277230 0.549165 0.947442 -0.202549
C22   C     C_R   0.278604 0.549038 0.897549 -0.146405
C23   C     C_R   0.388972 0.523315 0.872478 -0.041377
C24   C     C_R   0.500002 0.498284 0.898143 -0.046283
C25   C     C_R   0.610937 0.472645 0.872495 -0.017048
C26   C     C_R   0.609016 0.473414 0.822044 0.500164
N2    N     N_R   0.500162 0.499036 0.797903 -0.453642
C27   C     C_R   0.390903 0.522387 0.822020 0.598849
C28   C     C_R   0.523048 0.374559 0.721004 -0.177686
C29   C     C_R   0.523164 0.374154 0.670953 -0.234088
C30   C     C_R   0.477585 0.626847 0.670754 -0.324891
C31   C     C_R   0.480324 0.628764 0.721178 0.513956
C32   C     C_R   0.500729 0.500883 0.746296 0.277404
O10   O     O_2   0.284320 0.543668 0.797223 -0.516404
C33   C     C_R   0.386264 0.519908 0.025673 0.042618
C34   C     C_R   0.500141 0.499202 0.050911 0.066925
C35   C     C_R   0.613959 0.478164 0.025670 0.043127
C36   C     C_R   0.275375 0.536684 0.052766 -0.205117
H4    H     H_    0.540931 0.275094 0.652287 0.153347
H5    H     H_    0.539617 0.276243 0.740287 0.151336
H6    H     H_    0.192112 0.569758 0.878653 0.186146
H7    H     H_    0.188178 0.572063 0.963458 0.135934
H8    H     H_    0.184766 0.549052 0.036745 0.135564
O11   O     O_2   0.717149 0.463672 0.203065 -0.536095
C37   C     C_R   0.723707 0.462800 0.102644 -0.146796
H9    H     H_    0.522116 0.271265 0.347748 0.143145
H10   H     H_    0.522429 0.272552 0.259587 0.135293
H11   H     H_    0.811306 0.449550 0.121533 0.187069
C38   C     C_R   0.722734 0.447312 0.947465 -0.207577
C39   C     C_R   0.721257 0.446724 0.897575 -0.149396
O12   O     O_2   0.715292 0.449916 0.797277 -0.555806
C40   C     C_R   0.724932 0.461902 0.052750 -0.205334
H12   H     H_    0.811729 0.424223 0.963503 0.136880
H13   H     H_    0.455870 0.724010 0.651547 0.153032
H14   H     H_    0.807669 0.425513 0.878691 0.187631
H15   H     H_    0.815525 0.449576 0.036710 0.135631
C41   C     C_3   0.071264 0.655888 0.500683 -0.377129
C42   C     C_3   0.071812 0.422474 0.545263 -0.375633
H16   H     H_    0.105338 0.715013 0.468568 0.162517
H17   H     H_    0.106148 0.310750 0.545851 0.160517
H18   H     H_    0.105469 0.713001 0.533182 0.160557
H19   H     H_    0.106664 0.475513 0.578415 0.159155
C43   C     C_3   0.928568 0.655905 0.500719 -0.376793
C44   C     C_3   0.927875 0.422432 0.545249 -0.377475
H20   H     H_    0.894519 0.712860 0.533268 0.159154
H21   H     H_    0.892978 0.475359 0.578411 0.157129
H22   H     H_    0.894408 0.715190 0.468655 0.163079
H23   H     H_    0.893538 0.310686 0.545801 0.159736
H24   H     H_    0.106736 0.480140 0.421728 0.159347
H25   H     H_    0.106089 0.313509 0.453223 0.162321
H26   H     H_    0.893115 0.480358 0.421721 0.159252
H27   H     H_    0.893480 0.313640 0.453163 0.162423
C45   C     C_3   0.071815 0.425202 0.454524 -0.375928
C46   C     C_3   0.121692 0.500905 0.500145 0.157597
C47   C     C_3   0.878059 0.500939 0.500140 0.158791
C48   C     C_3   0.927908 0.425291 0.454509 -0.375748
C49   C     C_3   0.608957 0.083899 0.527597 -0.188410
C50   C     C_3   0.608967 0.916153 0.527583 -0.189071
H28   H     H_    0.609041 0.123526 0.565260 0.135552
H29   H     H_    0.609142 0.876387 0.565238 0.137731
H30   H     H_    0.697378 0.121291 0.511044 0.138894
H31   H     H_    0.697327 0.878975 0.510978 0.138222
H32   H     H_    0.379033 0.123653 0.561839 0.141055
H33   H     H_    0.378952 0.876151 0.561825 0.138782
C51   C     C_3   0.386654 0.083787 0.524312 -0.188160
C52   C     C_3   0.386655 0.916138 0.524308 -0.188097
C53   C     C_3   0.505220 0.083667 0.451621 -0.186228
C54   C     C_3   0.505163 0.916400 0.451620 -0.185676
N3    N     N_3   0.500250 0.143650 0.501060 -0.112002
N4    N     N_3   0.500250 0.856350 0.501060 -0.111719
H34   H     H_    0.423904 0.122176 0.430465 0.140946
H35   H     H_    0.423755 0.877962 0.430501 0.138662
H36   H     H_    0.590321 0.122637 0.432895 0.138555
H37   H     H_    0.590176 0.877415 0.432859 0.140591
H38   H     H_    0.301800 0.120864 0.505120 0.138950
H39   H     H_    0.301856 0.879175 0.505077 0.138601
O13   O     O_3   0.449650 0.751052 0.746353 -0.588325
C55   C     C_3   0.542809 0.856463 0.740567 0.023335
H40   H     H_    0.497170 0.961690 0.745288 0.176929
H41   H     H_    0.585939 0.857855 0.704105 0.114965
C56   C     C_3   0.643840 0.839922 0.779110 -0.355423
H42   H     H_    0.599543 0.833789 0.815188 0.235223
H43   H     H_    0.696304 0.739809 0.772725 0.240071
C57   C     C_3   0.734982 0.964660 0.778235 -0.861322
H44   H     H_    0.781167 0.971969 0.742578 0.254016
H45   H     H_    0.807649 0.948719 0.806163 0.266035
H46   H     H_    0.685319 0.065962 0.785814 0.259872

loop_
_geom_bond_atom_site_label_1
_geom_bond_atom_site_label_2
_geom_bond_distance
_ccdc_geom_bond_type
C51   H38   1.111223 S    
H27   C48   1.113236 S    
C3    C47   1.479138 S    
C17   C29   1.403590 A    
C7    C11   1.399466 A    
C7    C8    1.394336 A    
C12   C15   1.408459 A    
C49   H30   1.111119 S    
C41   H18   1.113758 S    
Cu1   Cu2   2.677649 S    
C43   C47   1.554259 S    
Cu1   O7    1.950982 S    
N1    C11   1.432575 S    
C37   H11   1.083638 S    
C38   H12   1.075737 S    
C21   C22   1.388097 A    
C15   C37   1.394821 A    
C23   C24   1.408248 A    
O7    C4    1.296212 A    
C43   H20   1.113725 S    
C57   H46   1.111548 S    
C7    H10   1.082837 S    
C5    O9    1.349792 S    
C51   N3    1.489556 S    
C18   C21   1.417082 A    
C56   H42   1.111930 S    
Cu1   O5    1.966538 S    
C19   C20   1.422181 A    
C26   N2    1.368227 A    
C8    H9    1.082957 S    
O5    C3    1.288533 A    
C49   C50   1.577014 S    
C44   C47   1.550737 S    
C41   C43   1.530363 S    
C50   N4    1.489919 S    
C22   H6    1.083872 S    
C2    C16   1.472078 S    
C37   C40   1.388169 A    
C30   H13   1.083533 S    
Cu1   N4    2.011512 S    
C53   H36   1.112784 S    
C55   C56   1.532310 S    
C12   C34   1.423265 A    
C14   H3    1.083639 S    
C50   H29   1.112203 S    
C9    C10   1.394377 A    
C42   H17   1.113239 S    
O3    Cu1   1.951398 S    
C49   H28   1.112156 S    
O13   C55   1.416161 S    
C33   C34   1.422150 A    
C57   H45   1.110636 S    
C52   N4    1.489624 S    
C33   C36   1.416850 A    
C34   C35   1.422120 A    
C12   C13   1.408437 A    
O3    C2    1.296583 A    
C21   H7    1.075714 S    
C24   C25   1.408181 A    
C44   H21   1.113159 S    
C27   O10   1.350039 S    
C8    C16   1.406078 A    
C18   C33   1.422815 A    
C9    H1    1.082915 S    
O1    C1    1.288437 A    
C20   C24   1.423256 A    
C22   C23   1.395083 A    
C43   H22   1.113752 S    
C31   C32   1.407582 A    
C45   C48   1.543346 S    
Cu2   O8    1.951091 S    
C19   C38   1.417058 A    
N1    C6    1.366865 A    
C42   C44   1.543673 S    
C54   N4    1.487574 S    
N2    C32   1.435840 S    
C57   H44   1.110899 S    
C53   N3    1.487626 S    
Cu2   N3    2.011499 S    
C35   C40   1.416832 A    
C41   H16   1.113740 S    
C25   C26   1.403707 A    
H33   C52   1.112348 S    
C9    C16   1.406066 A    
O8    C4    1.296644 A    
C29   H4    1.083333 S    
H32   C51   1.112350 S    
C25   C39   1.395055 A    
N2    C27   1.368066 A    
C14   C36   1.388156 A    
C50   H31   1.110778 S    
C28   C29   1.392465 A    
C55   H40   1.111665 S    
H25   C45   1.113231 S    
C5    N1    1.366868 A    
C30   C31   1.403236 A    
C10   H2    1.082834 S    
O1    Cu1   1.965993 S    
C17   C30   1.404740 A    
O2    Cu2   1.966113 S    
C6    C15   1.404162 A    
H24   C45   1.113165 S    
C4    C17   1.470930 S    
O6    C3    1.291770 A    
O4    Cu2   1.951289 S    
C36   H8    1.075422 S    
C26   O12   1.350138 S    
C52   H39   1.110856 S    
C19   C35   1.422752 A    
C56   C57   1.526607 S    
C54   H37   1.112779 S    
C1    C46   1.479206 S    
C38   C39   1.388063 A    
O2    C1    1.291899 A    
C13   C14   1.394805 A    
C42   C46   1.550692 S    
C23   C27   1.403941 A    
C44   H23   1.113223 S    
C41   C46   1.554383 S    
C28   H5    1.083285 S    
C47   C48   1.550450 S    
O4    C2    1.296497 A    
C51   C52   1.576107 S    
C18   C20   1.422202 A    
C56   H43   1.111010 S    
C53   H34   1.112683 S    
C40   H15   1.075458 S    
C53   C54   1.572506 S    
C5    C13   1.404145 A    
C49   N3    1.489942 S    
C28   C32   1.401198 A    
C6    O11   1.349789 S    
C45   C46   1.550390 S    
Cu2   O6    1.966419 S    
H26   C48   1.113164 S    
C42   H19   1.113154 S    
C10   C11   1.399475 A    
C54   H35   1.112652 S    
C39   H14   1.083870 S    
C31   O13   1.386033 S    
C55   H41   1.114932 S    
