data_mof_unit_57307.cif
_audit_creation_date              2012-10-26T18:26:38-0400
_audit_creation_method            fapswitch 2.2
_symmetry_space_group_name_H-M    P1
_symmetry_Int_Tables_number       1
_space_group_crystal_system       triclinic
_cell_length_a                    15.824209
_cell_length_b                    8.748347
_cell_length_c                    7.437182
_cell_angle_alpha                 102.317153
_cell_angle_beta                  94.092919
_cell_angle_gamma                 92.246902
_cell_volume                      1001.7406414

loop_
_atom_site_label
_atom_site_type_symbol
_atom_type_description
_atom_site_fract_x
_atom_site_fract_y
_atom_site_fract_z
_atom_type_partial_charge
C1    C     C_R   0.494742 0.200733 0.455495 0.564366
C2    C     C_3   0.977214 0.639325 0.592952 -0.100922
C3    C     C_1   0.250324 0.500489 0.507468 -0.035311
C4    C     C_1   0.749675 0.499511 0.492532 -0.035308
C5    C     C_3   0.032582 0.525576 0.676452 -0.100636
C6    C     C_3   0.967418 0.474424 0.323548 -0.100636
C7    C     C_3   0.082837 0.500353 0.504602 0.053356
C8    C     C_3   0.917163 0.499647 0.495398 0.053356
C9    C     C_1   0.174675 0.500586 0.507872 -0.064789
C10   C     C_1   0.825325 0.499414 0.492128 -0.064788
C11   C     C_3   0.410037 0.955490 0.293028 -0.375658
C12   C     C_R   0.505254 0.799266 0.544507 0.564368
C13   C     C_3   0.589915 0.044530 0.707073 -0.375644
C14   C     C_R   0.339914 0.499961 0.502470 0.545660
C15   C     C_R   0.660086 0.500039 0.497530 0.545667
C16   C     C_2   0.479461 0.035752 0.438549 -0.028438
C17   C     C_2   0.520525 0.964249 0.561471 -0.028449
C18   C     C_3   0.970965 0.385900 0.578877 -0.101111
C19   C     C_3   0.029034 0.614100 0.421123 -0.101111
C20   C     C_3   0.022786 0.360675 0.407048 -0.100922
Cu1   Cu    Cu3+1 0.509330 0.517380 0.684380 0.941357
Cu2   Cu    Cu3+1 0.490670 0.482620 0.315620 0.941363
H1    H     H_    0.042949 0.246281 0.331002 0.100927
H2    H     H_    0.438201 0.879518 0.175744 0.167890
H3    H     H_    0.364285 0.885659 0.354097 0.133052
H4    H     H_    0.627098 0.958122 0.764242 0.127790
H5    H     H_    0.635691 0.114366 0.646065 0.133068
H6    H     H_    0.561713 0.120498 0.824299 0.167895
H7    H     H_    0.957051 0.753719 0.668998 0.100928
H8    H     H_    0.945674 0.292184 0.643440 0.100644
H9    H     H_    0.054326 0.707816 0.356559 0.100644
H10   H     H_    0.939335 0.453502 0.178689 0.103854
H11   H     H_    0.060665 0.546498 0.821310 0.103854
H12   H     H_    0.435012 0.377580 0.948839 0.241063
H13   H     H_    0.564988 0.622420 0.051161 0.241068
H14   H     H_    0.372837 0.041914 0.235934 0.127768
N1    N     N_2   0.476600 0.456420 0.038510 -0.260150
N2    N     N_2   0.523400 0.543580 0.961490 -0.260146
O1    O     O_R   0.506070 0.286130 0.619780 -0.514181
O2    O     O_R   0.493930 0.713870 0.380220 -0.514168
O3    O     O_R   0.490300 0.256770 0.308360 -0.501012
O4    O     O_R   0.509700 0.743230 0.691640 -0.501019
O5    O     O_R   0.386960 0.514660 0.655680 -0.499235
O6    O     O_R   0.613040 0.485340 0.344320 -0.499235
O7    O     O_R   0.371190 0.485310 0.344260 -0.498535
O8    O     O_R   0.628810 0.514690 0.655740 -0.498535

loop_
_geom_bond_atom_site_label_1
_geom_bond_atom_site_label_2
_ccdc_geom_bond_type
C12   C17   S    
C12   O2    A    
C12   O4    A    
C5    C7    S    
C13   H6    S    
N1    N2    D    
C18   H8    S    
H12   N1    S    
C6    C20   S    
C11   C16   S    
C7    C19   S    
Cu1   O1    S    
C20   H1    S    
C13   C17   S    
Cu2   O2    S    
H13   N2    S    
C4    C15   S    
C19   H9    S    
C1    C16   S    
Cu1   Cu2   S    
C6    C19   S    
C16   C17   D    
C3    C14   S    
C2    H7    S    
C3    C9    T    
C1    O3    A    
C11   H14   S    
C15   O6    A    
Cu1   O8    S    
C14   O7    A    
C18   C20   S    
C8    C18   S    
C13   H4    S    
Cu2   O3    S    
C1    O1    A    
C4    C10   T    
Cu1   O4    S    
C2    C5    S    
C11   H2    S    
Cu2   O7    S    
C8    C10   S    
C7    C20   S    
C2    C8    S    
C7    C9    S    
C11   H3    S    
C13   H5    S    
C6    C8    S    
C5    C18   S    
C15   O8    A    
C2    C19   S    
Cu1   O5    S    
Cu2   N1    S    
Cu2   O6    S    
Cu1   N2    S    
C14   O5    A    
C6    H10   S    
C5    H11   S    
