data_mof_unit_31906.cif
_audit_creation_date              2012-12-10T18:48:23-0500
_audit_creation_method            fapswitch 2.2
_symmetry_space_group_name_H-M    P1
_symmetry_Int_Tables_number       1
_space_group_crystal_system       triclinic
_cell_length_a                    10.648828
_cell_length_b                    9.943696
_cell_length_c                    11.525526
_cell_angle_alpha                 89.999667
_cell_angle_beta                  89.021219
_cell_angle_gamma                 90.000091
_cell_volume                      1220.24498961

loop_
_atom_site_label
_atom_site_type_symbol
_atom_type_description
_atom_site_fract_x
_atom_site_fract_y
_atom_site_fract_z
_atom_type_partial_charge
C1    C     C_R   0.260769 0.500341 0.501539 0.894251
C2    C     C_R   0.937371 0.509240 0.391341 0.110935
C3    C     C_R   0.931310 0.506515 0.607463 0.109403
C4    C     C_R   0.068690 0.506515 0.392537 0.109406
C5    C     C_R   0.871948 0.502852 0.498883 -0.112263
C6    C     C_R   0.128052 0.502852 0.501118 -0.112257
C7    C     C_R   0.578589 0.071395 0.427491 0.328366
C8    C     C_R   0.421296 0.928203 0.572575 0.322113
C9    C     C_R   0.421411 0.071394 0.572508 0.328365
C10   C     C_R   0.578704 0.928204 0.427424 0.322110
C11   C     C_3   0.132695 0.525303 0.723089 -0.377760
C12   C     C_R   0.739230 0.500341 0.498461 0.894252
C13   C     C_3   0.140510 0.394371 0.792761 -0.767187
C14   C     C_3   0.867305 0.525305 0.276912 -0.377766
C15   C     C_3   0.859490 0.394373 0.207241 -0.767165
C16   C     C_3   0.853511 0.510898 0.720489 -0.428232
C17   C     C_3   0.818046 0.654705 0.754947 -0.791708
C18   C     C_3   0.146489 0.510897 0.279511 -0.428229
C19   C     C_3   0.181955 0.654705 0.245052 -0.791718
C20   C     C_R   0.500434 0.500014 0.282136 0.877167
C21   C     C_R   0.499566 0.500014 0.717864 0.877167
C22   C     C_1   0.500336 0.500082 0.161618 -0.146509
C23   C     C_1   0.499663 0.500081 0.838382 -0.146513
C24   C     C_1   0.500143 0.500138 0.059363 0.024687
C25   C     C_1   0.499855 0.500137 0.940637 0.024686
C26   C     C_R   0.062629 0.509239 0.608660 0.110943
Cl1   Cl    Cl    0.680925 0.157137 0.332883 -0.538639
Cl2   Cl    Cl    0.318532 0.841629 0.667404 -0.532215
Cl3   Cl    Cl    0.319072 0.157134 0.667115 -0.538637
Cl4   Cl    Cl    0.681467 0.841631 0.332595 -0.532215
H1    H     H_    0.240020 0.370661 0.811128 0.283666
H2    H     H_    0.912298 0.604509 0.222858 0.228278
H3    H     H_    0.756626 0.701325 0.689683 0.286242
H4    H     H_    0.766425 0.653308 0.839471 0.249731
H5    H     H_    0.902779 0.718403 0.763849 0.265568
H6    H     H_    0.766969 0.449682 0.713331 0.197369
H7    H     H_    0.903053 0.463615 0.793256 0.228945
H8    H     H_    0.097223 0.718411 0.236174 0.265574
H9    H     H_    0.243397 0.701313 0.310303 0.286242
H10   H     H_    0.233552 0.653310 0.160516 0.249732
H11   H     H_    0.233030 0.449681 0.286669 0.197368
H12   H     H_    0.091244 0.405684 0.877909 0.225689
H13   H     H_    0.096946 0.463615 0.206745 0.228943
H14   H     H_    0.098114 0.308515 0.745799 0.297933
H15   H     H_    0.087704 0.604507 0.777142 0.228276
H16   H     H_    0.229274 0.563847 0.709134 0.229080
H17   H     H_    0.908768 0.405683 0.122096 0.225683
H18   H     H_    0.901874 0.308514 0.254208 0.297938
H19   H     H_    0.759980 0.370671 0.188862 0.283658
H20   H     H_    0.770728 0.563850 0.290867 0.229081
N1    N     N_R   0.500000 0.857200 0.500000 -0.194736
N2    N     N_R   0.500000 0.142800 0.500000 -0.189281
O1    O     O_R   0.316770 0.614620 0.499990 -0.589407
O2    O     O_R   0.683230 0.385380 0.500010 -0.573118
O3    O     O_R   0.683230 0.614620 0.500010 -0.589407
O4    O     O_R   0.316770 0.385380 0.499990 -0.573118
O5    O     O_R   0.500020 0.614670 0.334450 -0.576081
O6    O     O_R   0.499980 0.385330 0.665550 -0.573948
O7    O     O_R   0.499980 0.614670 0.665550 -0.576076
O8    O     O_R   0.500020 0.385330 0.334450 -0.573944
Zn1   Zn    Zn3+2 0.500000 0.653120 0.500000 1.030275
Zn2   Zn    Zn3+2 0.500000 0.346880 0.500000 1.049013

loop_
_geom_bond_atom_site_label_1
_geom_bond_atom_site_label_2
_ccdc_geom_bond_type
O6    Zn2   S    
C7    C10   A    
C2    C4    A    
O5    Zn1   S    
C19   H8    S    
C15   H17   S    
C20   O8    A    
O2    Zn2   S    
C10   Cl4   S    
N1    Zn1   S    
C9    Cl3   S    
C16   H7    S    
C4    C18   S    
C21   C23   S    
C21   O6    A    
C14   H20   S    
C18   H13   S    
C16   H6    S    
C11   C13   S    
C8    N1    A    
C6    C26   A    
C9    N2    A    
C17   H3    S    
C15   H18   S    
C8    Cl2   S    
C10   N1    A    
O3    Zn1   S    
C4    C6    A    
C13   H12   S    
C1    O4    A    
C20   C22   S    
C7    N2    A    
C21   O7    A    
O4    Zn2   S    
C15   H19   S    
C2    C14   S    
C22   C24   T    
O7    Zn1   S    
C2    C5    A    
C11   H15   S    
C19   H10   S    
C19   H9    S    
C1    C6    S    
C12   O3    A    
C23   C25   T    
C7    Cl1   S    
C24   C25   S    
C5    C12   S    
O8    Zn2   S    
C18   C19   S    
C17   H4    S    
C18   H11   S    
C3    C26   A    
C1    O1    A    
C14   C15   S    
C16   C17   S    
C11   H16   S    
N2    Zn2   S    
C17   H5    S    
C11   C26   S    
C20   O5    A    
O1    Zn1   S    
C13   H1    S    
C13   H14   S    
C12   O2    A    
C3    C16   S    
C14   H2    S    
C8    C9    A    
C3    C5    A    
