data_mof_unit_22327.cif
_audit_creation_date              2012-12-10T17:35:37-0500
_audit_creation_method            fapswitch 2.2
_symmetry_space_group_name_H-M    P1
_symmetry_Int_Tables_number       1
_space_group_crystal_system       triclinic
_cell_length_a                    10.73159
_cell_length_b                    12.319823
_cell_length_c                    13.46523
_cell_angle_alpha                 117.315475
_cell_angle_beta                  78.066296
_cell_angle_gamma                 101.492084
_cell_volume                      1536.3706309

loop_
_atom_site_label
_atom_site_type_symbol
_atom_type_description
_atom_site_fract_x
_atom_site_fract_y
_atom_site_fract_z
_atom_type_partial_charge
C1    C     C_R   0.508638 0.854191 0.288105 0.793581
C2    C     C_3   0.123572 0.997749 0.495957 0.128339
C3    C     C_3   0.076390 0.113791 0.598707 -0.395518
C4    C     C_3   0.044098 0.881620 0.503842 -0.364094
C5    C     C_R   0.320489 0.272929 0.020888 -0.183938
C6    C     C_R   0.434309 0.229128 0.832600 -0.113458
C7    C     C_R   0.562202 0.817678 0.090766 -0.228305
C8    C     C_R   0.552909 0.749415 0.976195 0.073020
C9    C     C_R   0.505601 0.624083 0.936299 -0.234957
C10   C     C_R   0.457709 0.570960 0.012149 0.086498
C11   C     C_R   0.439195 0.650035 0.129076 0.091899
C12   C     C_R   0.740190 0.999425 0.498960 0.742376
C13   C     C_R   0.423773 0.442439 0.975831 0.094719
C14   C     C_R   0.353184 0.398559 0.053864 0.129070
C15   C     C_R   0.314690 0.480663 0.164341 -0.185429
C16   C     C_R   0.356817 0.604956 0.201680 -0.186385
C17   C     C_R   0.464270 0.356244 0.866209 -0.291326
C18   C     C_R   0.359074 0.188037 0.911772 0.143039
C19   C     C_R   0.502127 0.771867 0.168280 -0.108629
C20   C     C_R   0.722190 0.353859 0.345999 0.093063
C21   C     C_R   0.314787 0.749227 0.629132 0.124036
C22   C     C_R   0.275948 0.650464 0.656386 -0.233536
C23   C     C_R   0.473521 0.145733 0.712842 0.801760
C24   C     C_R   0.348785 0.552546 0.609687 -0.191051
C25   C     C_R   0.459570 0.550144 0.531267 0.008397
C26   C     C_R   0.495633 0.654277 0.507456 0.245926
C27   C     C_R   0.533868 0.447818 0.474178 -0.097691
C28   C     C_R   0.643003 0.450477 0.393146 0.059377
C29   C     C_R   0.666363 0.548599 0.362480 0.117053
C30   C     C_R   0.598044 0.649103 0.422747 -0.263609
C31   C     C_R   0.502531 0.341201 0.493343 0.019405
C32   C     C_R   0.682788 0.251587 0.367876 0.045814
C33   C     C_R   0.260943 0.998003 0.496842 0.756282
C34   C     C_3   0.956931 0.994121 0.384499 -0.365221
C35   C     C_3   0.101605 0.997324 0.385332 -0.374486
C36   C     C_3   0.932267 0.117264 0.600556 -0.127177
C37   C     C_3   0.901801 0.884397 0.506564 -0.409404
C38   C     C_3   0.879560 0.000498 0.497768 0.105282
Cu1   Cu    Cu3+1 0.529690 0.098270 0.475420 0.939325
Cu2   Cu    Cu3+1 0.470310 0.901730 0.524580 0.930191
H1    H     H_    0.940572 0.069817 0.367504 0.177087
H2    H     H_    0.058075 0.876976 0.581488 0.177640
H3    H     H_    0.881870 0.107481 0.677600 0.105075
H4    H     H_    0.090260 0.112482 0.677888 0.159832
H5    H     H_    0.254650 0.448371 0.223126 0.165804
H6    H     H_    0.263914 0.240432 0.080788 0.171862
H7    H     H_    0.522311 0.386796 0.806262 0.157488
H8    H     H_    0.613518 0.909582 0.120470 0.156909
H9    H     H_    0.498834 0.570754 0.847485 0.125881
H10   H     H_    0.923164 0.907170 0.313610 0.177396
H11   H     H_    0.320387 0.664220 0.286940 0.174631
H12   H     H_    0.741715 0.177286 0.332390 0.148935
H13   H     H_    0.421639 0.331055 0.551999 0.126132
H14   H     H_    0.253819 0.820874 0.660043 0.151148
H15   H     H_    0.313530 0.478888 0.634082 0.134618
H16   H     H_    0.187991 0.648872 0.712423 0.162451
H17   H     H_    0.624699 0.719559 0.395573 0.232754
H18   H     H_    0.138235 0.915430 0.311272 0.166194
H19   H     H_    0.156050 0.079759 0.376350 0.174459
H20   H     H_    0.136680 0.197697 0.596978 0.162615
H21   H     H_    0.852694 0.886011 0.587185 0.165960
H22   H     H_    0.863055 0.798794 0.437302 0.200909
H23   H     H_    0.076079 0.797030 0.430165 0.184025
N1    N     N_R   0.574690 0.246280 0.438200 -0.198069
N2    N     N_R   0.426100 0.754320 0.561190 -0.199236
O1    O     O_R   0.537340 0.972510 0.318130 -0.582534
O2    O     O_R   0.487200 0.806530 0.359650 -0.606322
O3    O     O_R   0.707380 0.082980 0.479220 -0.570581
O4    O     O_R   0.657240 0.917000 0.520740 -0.616181
O5    O     O_R   0.512800 0.193470 0.640350 -0.583502
O6    O     O_R   0.462660 0.027490 0.681870 -0.550498
O7    O     O_R   0.342760 0.083000 0.479260 -0.592203
O8    O     O_R   0.292620 0.917020 0.520780 -0.604615
I1    I     I_    0.286651 0.004868 0.882664 -0.434934
C39   C     C_R   0.590001 0.812407 0.901421 0.123254
C40   C     C_R   0.578372 0.938997 0.945221 -0.112569
C41   C     C_R   0.617509 0.000658 0.877611 -0.099574
C42   C     C_R   0.663325 0.936328 0.764616 -0.060814
C43   C     C_R   0.671405 0.810086 0.718803 -0.124137
C44   C     C_R   0.636405 0.748553 0.786847 -0.155548
H24   H     H_    0.537523 0.990940 0.031507 0.137824
H25   H     H_    0.609830 0.097999 0.912357 0.145447
H26   H     H_    0.691527 0.985828 0.713871 0.131741
H27   H     H_    0.705128 0.758722 0.630686 0.131307
H28   H     H_    0.647157 0.651789 0.749565 0.113531
I2    I     I_    0.772418 0.547984 0.209332 -0.382026
I3    I     I_    0.915302 0.357075 0.265475 -0.430192
C45   C     C_R   0.907331 0.241873 0.613849 0.135815
C46   C     C_R   0.977487 0.296015 0.543508 -0.132630
C47   C     C_R   0.957950 0.412927 0.561877 -0.128645
C48   C     C_R   0.868630 0.478003 0.650534 -0.123090
C49   C     C_R   0.799022 0.426531 0.721505 -0.110423
C50   C     C_R   0.817536 0.309164 0.703261 -0.101465
H29   H     H_    0.050660 0.250681 0.476580 0.129523
H30   H     H_    0.013870 0.454053 0.508364 0.158873
H31   H     H_    0.854919 0.569075 0.665126 0.127157
H32   H     H_    0.732238 0.478721 0.791843 0.127430
H33   H     H_    0.762731 0.271593 0.759954 0.103843

loop_
_geom_bond_atom_site_label_1
_geom_bond_atom_site_label_2
_ccdc_geom_bond_type
C2    C35   S    
C12   O4    A    
C20   I3    S    
Cu2   O6    S    
Cu1   O3    S    
C16   H11   S    
C37   H22   S    
C7    C8    A    
C41   C42   A    
C36   C45   S    
C24   H15   S    
Cu1   N1    S    
C12   O3    A    
C4    H23   S    
C11   C19   A    
C44   H28   S    
C35   H18   S    
C3    C36   S    
C28   C29   A    
C37   C38   S    
C45   C46   A    
C43   H27   S    
C15   C16   A    
C30   H17   S    
Cu2   O8    S    
C35   H19   S    
C34   C35   S    
C46   H29   S    
C32   H12   S    
C33   O7    A    
C48   H31   S    
C42   H26   S    
C8    C9    A    
Cu2   O2    S    
Cu1   O7    S    
C9    C10   A    
C3    H20   S    
C18   I1    S    
C21   C22   A    
C23   O5    A    
C34   H1    S    
C49   H32   S    
C6    C18   A    
C3    H4    S    
C34   H10   S    
C1    C19   S    
Cu2   O4    S    
C27   C31   A    
C23   O6    A    
C47   H30   S    
C9    H9    S    
C24   C25   A    
C32   N1    A    
Cu1   Cu2   S    
C42   C43   A    
C22   H16   S    
C5    C18   A    
C20   C28   A    
C25   C26   A    
C8    C39   S    
C31   H13   S    
C2    C4    S    
C39   C40   A    
C29   C30   A    
C11   C16   A    
C1    O1    A    
C29   I2    S    
C40   C41   A    
C5    C14   A    
C2    C33   S    
C33   O8    A    
C26   C30   A    
C7    C19   A    
Cu2   N2    S    
Cu1   O1    S    
C22   C24   A    
C15   H5    S    
C48   C49   A    
C20   C32   A    
C6    C17   A    
C45   C50   A    
C21   N2    A    
C34   C38   S    
C26   N2    A    
C31   N1    A    
C17   H7    S    
C10   C13   A    
C40   H24   S    
C37   H21   S    
C25   C27   A    
C5    H6    S    
C13   C17   A    
C7    H8    S    
C36   C38   S    
C2    C3    S    
C47   C48   A    
C21   H14   S    
C4    H2    S    
C41   H25   S    
C6    C23   S    
C49   C50   A    
C1    O2    A    
Cu1   O5    S    
C12   C38   S    
C10   C11   A    
C43   C44   A    
C39   C44   A    
C4    C37   S    
C27   C28   A    
C14   C15   A    
C36   H3    S    
C46   C47   A    
C13   C14   A    
C50   H33   S    
