data_mof_unit_18139.cif
_audit_creation_date              2012-12-10T17:46:25-0500
_audit_creation_method            fapswitch 2.2
_symmetry_space_group_name_H-M    P1
_symmetry_Int_Tables_number       1
_space_group_crystal_system       triclinic
_cell_length_a                    20.751596
_cell_length_b                    21.291871
_cell_length_c                    14.805945
_cell_angle_alpha                 90.00001
_cell_angle_beta                  128.012519
_cell_angle_gamma                 89.999903
_cell_volume                      5154.17845533

loop_
_atom_site_label
_atom_site_type_symbol
_atom_type_description
_atom_site_fract_x
_atom_site_fract_y
_atom_site_fract_z
_atom_type_partial_charge
C1    C     C_R   0.601887 0.913088 0.630256 0.789631
C2    C     C_R   0.720457 0.194151 0.127054 -0.228787
C3    C     C_R   0.710954 0.767659 0.953296 0.064986
C4    C     C_R   0.241704 0.713596 0.984360 0.064567
C5    C     C_R   0.789051 0.267655 0.046709 0.064987
C6    C     C_R   0.758292 0.713595 0.015637 0.064568
C7    C     C_R   0.210952 0.267658 0.953294 0.064987
C8    C     C_R   0.330268 0.799459 0.011661 -0.222317
C9    C     C_R   0.709765 0.176858 0.028339 -0.219096
C10   C     C_R   0.669733 0.799461 0.988340 -0.222317
C11   C     C_R   0.290225 0.176853 0.971653 -0.219093
C12   C     C_R   0.830280 0.299451 0.011673 -0.222319
C13   C     C_R   0.678775 0.781332 0.085517 -0.230569
C14   C     C_R   0.209760 0.676860 0.028334 -0.219091
C15   C     C_R   0.169732 0.299461 0.988340 -0.222319
C16   C     C_R   0.790229 0.676855 0.971656 -0.219093
C17   C     C_3   0.715448 0.967734 0.509760 -0.365328
C18   C     C_3   0.754185 0.013627 0.611010 -0.290579
C19   C     C_3   0.845344 0.001021 0.703373 -0.895102
C20   C     C_3   0.284548 0.967745 0.490228 -0.365326
C21   C     C_3   0.245826 0.013651 0.388998 -0.290529
C22   C     C_3   0.154650 0.001095 0.296668 -0.895135
C23   C     C_3   0.215451 0.467741 0.509768 -0.365318
C24   C     C_R   0.279530 0.194145 0.872935 -0.228787
C25   C     C_3   0.254175 0.513645 0.611002 -0.290555
C26   C     C_3   0.345347 0.501078 0.703336 -0.895151
C27   C     C_3   0.784549 0.467742 0.490233 -0.365324
C28   C     C_3   0.745823 0.513643 0.388996 -0.290563
C29   C     C_3   0.654653 0.501069 0.296656 -0.895141
C30   C     C_R   0.821242 0.281320 0.914500 -0.230568
C31   C     C_R   0.220453 0.694153 0.127051 -0.228788
C32   C     C_R   0.178777 0.281334 0.085520 -0.230571
C33   C     C_R   0.779533 0.694147 0.872938 -0.228788
C34   C     C_R   0.323376 0.009702 0.671444 -0.335652
C35   C     C_R   0.676625 0.009711 0.328558 -0.335661
C36   C     C_R   0.823376 0.509708 0.671443 -0.335655
C37   C     C_R   0.397228 0.086263 0.368675 0.787194
C38   C     C_R   0.176624 0.509703 0.328556 -0.335653
C39   C     C_R   0.350450 0.996253 0.607349 0.297351
C40   C     C_R   0.649550 0.996256 0.392651 0.297353
C41   C     C_R   0.850450 0.496256 0.607349 0.297353
C42   C     C_R   0.149550 0.496253 0.392651 0.297351
C43   C     C_R   0.488426 0.009117 0.774711 -0.033163
C44   C     C_R   0.511574 0.009117 0.225290 -0.033158
C45   C     C_R   0.988426 0.509116 0.774710 -0.033160
C46   C     C_R   0.011574 0.509117 0.225290 -0.033162
C47   C     C_R   0.462576 0.015174 0.845270 -0.025774
C48   C     C_R   0.398113 0.913088 0.369744 0.789627
C49   C     C_R   0.537424 0.015176 0.154732 -0.025773
C50   C     C_R   0.962576 0.515174 0.845269 -0.025773
C51   C     C_R   0.037424 0.515174 0.154731 -0.025774
C52   C     C_R   0.377949 0.016674 0.789050 0.134908
C53   C     C_R   0.622051 0.016682 0.210952 0.134910
C54   C     C_R   0.877949 0.516679 0.789049 0.134910
C55   C     C_R   0.122051 0.516675 0.210950 0.134907
C56   C     C_R   0.516344 0.018626 0.968578 0.089636
C57   C     C_R   0.483656 0.018625 0.031423 0.089637
C58   C     C_R   0.016345 0.518624 0.968577 0.089636
C59   C     C_R   0.602773 0.086263 0.631326 0.787190
C60   C     C_R   0.983656 0.518625 0.031423 0.089637
C61   C     C_R   0.398510 0.021418 0.968778 -0.243761
C62   C     C_R   0.601490 0.021425 0.031224 -0.243762
C63   C     C_R   0.898510 0.521422 0.968777 -0.243759
C64   C     C_R   0.101490 0.521419 0.031223 -0.243766
C65   C     C_R   0.346995 0.021618 0.850111 -0.205830
C66   C     C_R   0.653004 0.021629 0.149891 -0.205830
C67   C     C_R   0.846996 0.521624 0.850110 -0.205829
C68   C     C_R   0.153005 0.521620 0.149890 -0.205827
C69   C     C_R   0.661949 0.135437 0.705797 -0.054767
C70   C     C_R   0.101887 0.413088 0.630256 0.789626
C71   C     C_R   0.345935 0.859087 0.303189 -0.049851
C72   C     C_R   0.338055 0.135441 0.294209 -0.054769
C73   C     C_R   0.654065 0.859086 0.696810 -0.049844
C74   C     C_R   0.161945 0.635440 0.705792 -0.054770
C75   C     C_R   0.845935 0.359086 0.303189 -0.049849
C76   C     C_R   0.838054 0.635440 0.294207 -0.054769
C77   C     C_R   0.154064 0.359086 0.696810 -0.049850
C78   C     C_R   0.758219 0.216347 0.746237 -0.194269
C79   C     C_R   0.271806 0.765881 0.284012 -0.194890
C80   C     C_R   0.241806 0.216364 0.253788 -0.194267
C81   C     C_R   0.897228 0.586263 0.368674 0.787192
C82   C     C_R   0.728184 0.765876 0.715980 -0.194895
C83   C     C_R   0.258197 0.716362 0.746215 -0.194268
C84   C     C_R   0.771806 0.265881 0.284012 -0.194892
C85   C     C_R   0.741800 0.716360 0.253782 -0.194269
C86   C     C_R   0.228184 0.265876 0.715980 -0.194889
C87   C     C_R   0.704505 0.168522 0.675717 -0.199602
C88   C     C_R   0.314843 0.819958 0.344143 -0.195347
C89   C     C_R   0.295516 0.168537 0.324304 -0.199601
C90   C     C_R   0.685150 0.819954 0.655851 -0.195348
C91   C     C_R   0.204487 0.668534 0.675699 -0.199601
C92   C     C_R   0.898113 0.413088 0.369744 0.789629
C93   C     C_R   0.814842 0.319958 0.344142 -0.195347
C94   C     C_R   0.795510 0.668533 0.324298 -0.199601
C95   C     C_R   0.185152 0.319955 0.655852 -0.195348
C96   C     C_R   0.674368 0.150092 0.807504 -0.251077
C97   C     C_R   0.333751 0.843500 0.202017 -0.247648
C98   C     C_R   0.325626 0.150089 0.192492 -0.251070
C99   C     C_R   0.666251 0.843501 0.797984 -0.247648
C100  C     C_R   0.174372 0.650089 0.807506 -0.251069
C101  C     C_R   0.833753 0.343498 0.202019 -0.247648
C102  C     C_R   0.825628 0.650091 0.192494 -0.251072
C103  C     C_R   0.102772 0.586263 0.631325 0.787191
C104  C     C_R   0.166250 0.343500 0.797983 -0.247646
C105  C     C_R   0.728924 0.197644 0.880962 0.089742
C106  C     C_R   0.295438 0.787067 0.143986 0.090316
C107  C     C_R   0.271078 0.197647 0.119041 0.089744
C108  C     C_R   0.704560 0.787067 0.856013 0.090316
C109  C     C_R   0.228919 0.697648 0.880956 0.089744
C110  C     C_R   0.795441 0.287065 0.143989 0.090315
C111  C     C_R   0.771079 0.697647 0.119042 0.089743
C112  C     C_R   0.204558 0.287066 0.856011 0.090316
C113  C     C_R   0.769848 0.231734 0.847490 0.164859
C114  C     C_R   0.321224 0.781332 0.914482 -0.230570
C115  C     C_R   0.262116 0.749037 0.184710 0.161373
C116  C     C_R   0.230168 0.231745 0.152526 0.164857
C117  C     C_R   0.737876 0.749033 0.815283 0.161373
C118  C     C_R   0.269832 0.731744 0.847474 0.164858
C119  C     C_R   0.762118 0.249036 0.184712 0.161373
C120  C     C_R   0.730165 0.731743 0.152524 0.164857
C121  C     C_R   0.237874 0.249032 0.815281 0.161372
C122  C     C_R   0.741708 0.213594 0.984365 0.064568
C123  C     C_R   0.289045 0.767659 0.046703 0.064985
C124  C     C_R   0.258289 0.213594 0.015634 0.064567
Cu1   Cu    Cu3+1 0.526640 0.000000 0.436960 0.930160
Cu2   Cu    Cu3+1 0.473360 0.000000 0.563040 0.930157
Cu3   Cu    Cu3+1 0.026640 0.500000 0.436960 0.930158
Cu4   Cu    Cu3+1 0.973360 0.500000 0.563040 0.930160
H1    H     H_    0.353802 0.807073 0.890636 0.146303
H2    H     H_    0.630255 0.023566 0.990655 0.125870
H3    H     H_    0.869745 0.523563 0.009346 0.125869
H4    H     H_    0.130256 0.523558 0.990654 0.125871
H5    H     H_    0.354669 0.876563 0.170159 0.144500
H6    H     H_    0.638543 0.124915 0.825533 0.147316
H7    H     H_    0.645339 0.876566 0.829847 0.144498
H8    H     H_    0.361438 0.124901 0.174450 0.147308
H9    H     H_    0.854672 0.376561 0.170160 0.144501
H10   H     H_    0.138562 0.624901 0.825549 0.147306
H11   H     H_    0.145336 0.376565 0.829844 0.144498
H12   H     H_    0.695593 0.164341 0.158257 0.154300
H13   H     H_    0.861444 0.624905 0.174456 0.147310
H14   H     H_    0.325502 0.829996 0.423914 0.140547
H15   H     H_    0.694800 0.158597 0.596468 0.147727
H16   H     H_    0.674489 0.829991 0.576079 0.140547
H17   H     H_    0.305232 0.158619 0.403563 0.147719
H18   H     H_    0.825500 0.329997 0.423911 0.140547
H19   H     H_    0.194774 0.658614 0.596442 0.147722
H20   H     H_    0.174492 0.329993 0.576081 0.140547
H21   H     H_    0.805222 0.658612 0.403553 0.147723
H22   H     H_    0.289608 0.742116 0.720555 0.132059
H23   H     H_    0.646197 0.807074 0.109364 0.146302
H24   H     H_    0.747758 0.236374 0.316682 0.133662
H25   H     H_    0.710388 0.742114 0.279441 0.132058
H26   H     H_    0.252228 0.236367 0.683305 0.133661
H27   H     H_    0.789639 0.242095 0.720585 0.132059
H28   H     H_    0.247758 0.736374 0.316683 0.133661
H29   H     H_    0.210397 0.242120 0.279450 0.132058
H30   H     H_    0.752226 0.736366 0.683304 0.133661
H31   H     H_    0.372121 0.837693 0.059282 0.145870
H32   H     H_    0.678262 0.133095 0.990735 0.140358
H33   H     H_    0.627881 0.837695 0.940719 0.145872
H34   H     H_    0.304389 0.164332 0.841728 0.154298
H35   H     H_    0.321725 0.133089 0.009255 0.140356
H36   H     H_    0.872135 0.337683 0.059298 0.145872
H37   H     H_    0.178253 0.633099 0.990728 0.140357
H38   H     H_    0.127881 0.337695 0.940720 0.145871
H39   H     H_    0.821729 0.633091 0.009259 0.140356
H40   H     H_    0.281559 0.023273 0.805417 0.142970
H41   H     H_    0.718441 0.023287 0.194585 0.142972
H42   H     H_    0.781559 0.523282 0.805416 0.142970
H43   H     H_    0.218441 0.523275 0.194583 0.142972
H44   H     H_    0.447813 0.010231 0.188280 0.126225
H45   H     H_    0.853827 0.307057 0.890660 0.146302
H46   H     H_    0.552187 0.010233 0.811720 0.126226
H47   H     H_    0.947813 0.510233 0.188280 0.126226
H48   H     H_    0.052187 0.510231 0.811720 0.126225
H49   H     H_    0.258325 0.009507 0.630161 0.140102
H50   H     H_    0.741675 0.009518 0.369843 0.140102
H51   H     H_    0.758325 0.509514 0.630159 0.140102
H52   H     H_    0.241675 0.509508 0.369840 0.140102
H53   H     H_    0.855063 0.952011 0.735211 0.261937
H54   H     H_    0.879251 0.008636 0.668544 0.256029
H55   H     H_    0.869941 0.033701 0.776381 0.252561
H56   H     H_    0.195588 0.664343 0.158252 0.154299
H57   H     H_    0.746765 0.062749 0.580827 0.214760
H58   H     H_    0.724913 0.007958 0.652569 0.238135
H59   H     H_    0.695419 0.923486 0.523015 0.192062
H60   H     H_    0.765513 0.949439 0.509248 0.166478
H61   H     H_    0.144876 0.952088 0.264799 0.261935
H62   H     H_    0.120776 0.008738 0.331540 0.256031
H63   H     H_    0.130065 0.033783 0.223673 0.252568
H64   H     H_    0.253298 0.062772 0.419212 0.214791
H65   H     H_    0.275069 0.007959 0.347402 0.238098
H66   H     H_    0.304567 0.923497 0.476957 0.192046
H67   H     H_    0.146202 0.307077 0.109368 0.146303
H68   H     H_    0.234477 0.949452 0.490729 0.166479
H69   H     H_    0.355107 0.452072 0.735202 0.261943
H70   H     H_    0.379224 0.508712 0.668468 0.256039
H71   H     H_    0.369935 0.533766 0.776331 0.252571
H72   H     H_    0.246717 0.562766 0.580794 0.214791
H73   H     H_    0.224928 0.507958 0.652593 0.238108
H74   H     H_    0.195429 0.423494 0.523035 0.192051
H75   H     H_    0.265520 0.449447 0.509264 0.166476
H76   H     H_    0.644901 0.452061 0.264799 0.261942
H77   H     H_    0.620770 0.508703 0.331516 0.256037
H78   H     H_    0.804392 0.664333 0.841731 0.154298
H79   H     H_    0.630064 0.533753 0.223655 0.252569
H80   H     H_    0.753273 0.562765 0.419198 0.214785
H81   H     H_    0.775074 0.507959 0.347411 0.238114
H82   H     H_    0.804572 0.423495 0.476969 0.192054
H83   H     H_    0.734481 0.449448 0.490739 0.166479
H84   H     H_    0.369744 0.023558 0.009346 0.125868
N1    N     N_R   0.433280 0.000000 0.657760 -0.178690
N2    N     N_R   0.566720 0.000000 0.342240 -0.178692
N3    N     N_R   0.933280 0.500000 0.657760 -0.178691
N4    N     N_R   0.066720 0.500000 0.342240 -0.178691
O1    O     O_R   0.600040 0.935040 0.546740 -0.596466
O2    O     O_R   0.444990 0.064930 0.346780 -0.583970
O3    O     O_R   0.444990 0.935070 0.346780 -0.582539
O4    O     O_R   0.555010 0.064930 0.653220 -0.583974
O5    O     O_R   0.055010 0.435070 0.653220 -0.582537
O6    O     O_R   0.944990 0.564930 0.346780 -0.583972
O7    O     O_R   0.944990 0.435070 0.346780 -0.582538
O8    O     O_R   0.055010 0.564930 0.653220 -0.583971
O9    O     O_R   0.399960 0.064960 0.453260 -0.589413
O10   O     O_R   0.399960 0.935040 0.453260 -0.596465
O11   O     O_R   0.600040 0.064960 0.546740 -0.589409
O12   O     O_R   0.100040 0.435040 0.546740 -0.596465
O13   O     O_R   0.899960 0.564960 0.453260 -0.589410
O14   O     O_R   0.899960 0.435040 0.453260 -0.596465
O15   O     O_R   0.100040 0.564960 0.546740 -0.589410
O16   O     O_R   0.555010 0.935070 0.653220 -0.582536

loop_
_geom_bond_atom_site_label_1
_geom_bond_atom_site_label_2
_ccdc_geom_bond_type
C44   C49   A    
C78   C87   A    
C96   C105  A    
C33   C117  A    
Cu4   O13   S    
C79   C115  A    
C31   H56   S    
C35   C53   A    
C6    C111  A    
C62   H2    S    
C66   H41   S    
C11   C124  A    
C97   H5    S    
C7    C124  A    
C4    C109  A    
C69   C96   A    
C19   H53   S    
C91   H19   S    
C55   C68   A    
C36   C41   A    
C49   C57   A    
C15   C32   A    
C72   C98   A    
C56   C57   A    
C94   H21   S    
C89   H17   S    
C99   C108  A    
C71   C97   A    
C65   H40   S    
C50   C54   A    
C23   C42   S    
C60   C63   A    
C44   N2    A    
C64   C68   A    
C83   C118  A    
C105  C113  A    
C28   C29   S    
C70   O12   A    
C73   C90   A    
C38   C42   A    
C25   H73   S    
C59   O4    A    
C103  O8    A    
C68   H43   S    
C49   C53   A    
Cu3   N4    S    
C5    C110  A    
C17   H60   S    
C58   C60   A    
C98   H8    S    
C11   C24   A    
C70   O5    A    
C29   H77   S    
C7    C112  A    
C18   C19   S    
C85   C94   A    
C88   H14   S    
C80   C89   A    
C26   H69   S    
Cu3   O6    S    
C76   C94   A    
C79   H28   S    
C38   C55   A    
C80   C116  A    
C106  C123  A    
Cu4   O14   S    
C15   H38   S    
C102  H13   S    
C63   H3    S    
C22   H62   S    
C59   O11   A    
C14   C31   A    
C30   H45   S    
C69   C87   A    
C8    C114  A    
C83   H22   S    
Cu1   O2    S    
C3    C6    A    
C35   H50   S    
C37   O9    A    
C110  C119  A    
C107  C124  A    
C100  C109  A    
C29   H76   S    
C81   O13   A    
C21   C22   S    
C70   C77   S    
C103  O15   A    
Cu4   O8    S    
C102  C111  A    
Cu2   O10   S    
C36   H51   S    
C37   O2    A    
C32   H67   S    
C19   H54   S    
C20   H66   S    
C79   C88   A    
C25   C26   S    
Cu2   O4    S    
C109  C118  A    
C9    C122  A    
C67   H42   S    
C58   C64   A    
C63   C67   A    
C33   H78   S    
C38   H52   S    
C39   N1    A    
C23   H74   S    
C34   C39   A    
C50   C58   A    
C64   H4    S    
C82   C117  A    
C42   N4    A    
C13   H23   S    
C5    C12   A    
C45   H48   S    
C19   H55   S    
C104  C112  A    
C20   C39   S    
C62   C66   A    
C21   H64   S    
C96   H6    S    
C54   C67   A    
C9    H32   S    
C28   H81   S    
C17   C40   S    
C5    C122  A    
C77   C95   A    
C27   H82   S    
C98   C107  A    
C4    C123  A    
C23   H75   S    
C111  C120  A    
C22   H61   S    
C61   H84   S    
C74   C91   A    
Cu4   O5    S    
C85   C120  A    
Cu2   O16   S    
C44   H44   S    
C53   C66   A    
Cu2   N1    S    
C16   C33   A    
C12   H36   S    
C48   O10   A    
Cu1   N2    S    
C27   C41   S    
C92   O14   A    
C20   C21   S    
C86   C121  A    
C11   H35   S    
C17   C18   S    
C99   H7    S    
C93   H18   S    
C85   H25   S    
C82   C90   A    
C32   C116  A    
C14   H37   S    
C26   H71   S    
C101  C110  A    
C114  C118  A    
C100  H10   S    
C75   C92   S    
C59   C69   S    
C97   C106  A    
C84   H24   S    
C81   O6    A    
C10   H33   S    
C46   N4    A    
Cu1   Cu2   S    
C28   H80   S    
C114  H1    S    
C56   C62   A    
Cu2   O9    S    
C48   C71   S    
Cu3   Cu4   S    
C43   N1    A    
Cu1   O3    S    
C13   C120  A    
C75   C93   A    
C75   C101  A    
C73   C99   A    
C101  H9    S    
C12   C30   A    
C108  C117  A    
C92   O7    A    
C24   H34   S    
C95   H20   S    
C34   H49   S    
C10   C13   A    
C29   H79   S    
C76   C81   S    
C74   C100  A    
C2    C119  A    
C8    C123  A    
C57   C61   A    
C47   C52   A    
Cu3   O7    S    
C3    C108  A    
C83   C91   A    
C18   H57   S    
C34   C52   A    
C27   H83   S    
C104  H11   S    
C106  C115  A    
C48   O3    A    
C2    H12   S    
C35   C40   A    
C86   H26   S    
C1    C73   S    
C112  C121  A    
C3    C10   A    
C72   C89   A    
C2    C9    A    
C1    O16   A    
C80   H29   S    
Cu3   O12   S    
C45   C50   A    
C17   H59   S    
C84   C119  A    
C82   H30   S    
C46   C51   A    
C7    C15   A    
C24   C121  A    
C45   N3    A    
C18   H58   S    
C105  C122  A    
C51   C55   A    
C84   C93   A    
C31   C115  A    
C4    C14   A    
C26   H70   S    
C107  C116  A    
C36   C54   A    
C86   C95   A    
C41   N3    A    
Cu4   N3    S    
C6    C16   A    
C71   C88   A    
C78   C113  A    
C61   C65   A    
C23   C25   S    
C43   H46   S    
Cu3   O15   S    
C37   C72   S    
C40   N2    A    
C27   C28   S    
C25   H72   S    
C21   H65   S    
C46   H47   S    
C74   C103  S    
C77   C104  A    
C1    O1    A    
C51   C60   A    
C16   H39   S    
C76   C102  A    
C87   H15   S    
C22   H63   S    
Cu1   O11   S    
C8    H31   S    
C43   C47   A    
C20   H68   S    
C90   H16   S    
C52   C65   A    
C47   C56   A    
C78   H27   S    
C30   C113  A    
Cu1   O1    S    
