data_mof_unit_58360.cif
_audit_creation_date              2012-12-10T19:27:35-0500
_audit_creation_method            fapswitch 2.2
_symmetry_space_group_name_H-M    P1
_symmetry_Int_Tables_number       1
_space_group_crystal_system       triclinic
_cell_length_a                    23.541663
_cell_length_b                    10.878351
_cell_length_c                    10.001901
_cell_angle_alpha                 91.008948
_cell_angle_beta                  88.890135
_cell_angle_gamma                 91.610983
_cell_volume                      2559.56562838

loop_
_atom_site_label
_atom_site_type_symbol
_atom_type_description
_atom_site_fract_x
_atom_site_fract_y
_atom_site_fract_z
_atom_type_partial_charge
C1    C     C_R   0.501951 0.258277 0.499958 1.000527
C2    C     C_R   0.705193 0.601225 0.443208 -0.142492
C3    C     C_R   0.239329 0.372611 0.502868 -0.135651
C4    C     C_R   0.765140 0.602207 0.452343 -0.119962
C5    C     C_R   0.208145 0.480411 0.522668 0.122442
C6    C     C_R   0.792134 0.496793 0.494039 0.111909
C7    C     C_3   0.521199 0.045490 0.625535 -0.109247
C8    C     C_3   0.495895 0.957437 0.381534 -0.134930
C9    C     C_3   0.560166 0.964417 0.536929 -0.131020
C10   C     C_3   0.456752 0.035981 0.471637 -0.153906
C11   C     C_3   0.508639 0.877856 0.503022 -0.157361
C12   C     C_R   0.503433 0.742006 0.500898 1.022884
C13   C     C_3   0.507180 0.123501 0.503445 -0.144674
C14   C     C_3   0.470397 0.958263 0.593295 -0.162796
C15   C     C_3   0.547076 0.044707 0.415468 -0.133062
C16   C     C_R   0.389736 0.500295 0.500029 0.997766
C17   C     C_R   0.610205 0.499571 0.498807 1.021271
C18   C     C_3   0.503456 0.390003 0.045906 -0.057609
C19   C     C_3   0.495584 0.608591 0.955297 -0.050962
C20   C     C_3   0.545656 0.454090 0.949457 -0.073416
C21   C     C_3   0.453663 0.544403 0.051107 -0.109933
C22   C     C_3   0.457759 0.435355 0.952304 -0.122012
C23   C     C_R   0.235964 0.596241 0.518043 0.512739
C24   C     C_3   0.541617 0.563802 0.047019 -0.131408
C25   C     C_R   0.880025 0.556180 0.599381 0.598290
C26   C     C_R   0.120099 0.428828 0.411851 0.561179
C27   C     C_R   0.881449 0.434349 0.398470 0.664119
C28   C     C_R   0.117650 0.529604 0.625623 0.690053
C29   C     C_R   0.941070 0.432373 0.397850 -0.178492
C30   C     C_R   0.058848 0.545392 0.616887 -0.196635
C31   C     C_R   0.970222 0.494521 0.502729 -0.137991
C32   C     C_R   0.029941 0.490991 0.507357 -0.140672
C33   C     C_R   0.939641 0.558169 0.604327 -0.156611
C34   C     C_R   0.761039 0.393120 0.535325 0.503235
C35   C     C_R   0.060791 0.433848 0.402045 -0.160402
C36   C     C_R   0.972108 0.372818 0.294149 0.427198
C37   C     C_R   0.028714 0.617407 0.711758 0.390709
C38   C     C_R   0.031610 0.382858 0.290606 0.447285
C39   C     C_R   0.969274 0.622197 0.706988 0.420660
C40   C     C_3   0.933905 0.352491 0.085386 -0.131072
C41   C     C_3   0.070513 0.802666 0.760809 -0.122130
C42   C     C_2   0.602577 0.415343 0.897634 1.022971
C43   C     C_2   0.396134 0.580868 0.104590 1.047200
C44   C     C_2   0.500028 0.264431 0.100172 1.083049
C45   C     C_R   0.295648 0.605010 0.513733 -0.195024
C46   C     C_2   0.494892 0.734930 0.907806 1.016523
C47   C     C_2   0.406145 0.369057 0.896339 1.054755
C48   C     C_2   0.592076 0.635653 0.097436 1.039473
C49   C     C_3   0.074512 0.433132 0.092746 -0.130624
C50   C     C_3   0.932020 0.641373 0.917316 -0.134782
C51   C     C_3   0.192878 0.733533 0.387630 -0.238749
C52   C     C_3   0.784559 0.195452 0.476610 -0.089994
C53   C     C_2   0.322886 0.729258 0.509046 0.985616
C54   C     C_2   0.671710 0.292573 0.616986 0.985457
C55   C     C_2   0.320347 0.302442 0.355531 1.090014
C56   C     C_R   0.701491 0.396480 0.547210 -0.234052
C57   C     C_2   0.678126 0.706555 0.376598 1.015170
C58   C     C_2   0.211223 0.249269 0.525616 0.998958
C59   C     C_2   0.800888 0.714134 0.424816 1.049856
C60   C     C_2   0.618838 0.928010 0.575298 1.040042
C61   C     C_2   0.396229 0.067774 0.456768 0.954684
C62   C     C_2   0.536286 0.092609 0.762420 0.980377
C63   C     C_2   0.482754 0.918614 0.241628 0.995421
C64   C     C_2   0.425757 0.917772 0.694287 0.973779
C65   C     C_2   0.593446 0.093288 0.323188 1.106804
C66   C     C_R   0.326890 0.496391 0.496827 -0.175322
C67   C     C_R   0.672921 0.498974 0.495814 -0.198094
C68   C     C_R   0.296972 0.385553 0.462589 -0.305517
H1    H     H_    0.925644 0.452034 0.100760 0.110063
H2    H     H_    0.535815 0.866471 0.808550 0.339224
H3    H     H_    0.362447 0.209468 0.866986 0.390840
H4    H     H_    0.633709 0.799778 0.101310 0.384371
H5    H     H_    0.037032 0.487765 0.068369 0.084168
H6    H     H_    0.091673 0.393894 0.997644 0.216230
H7    H     H_    0.107654 0.496434 0.134946 0.184361
H8    H     H_    0.972688 0.626759 0.968335 0.141877
H9    H     H_    0.907984 0.552671 0.903478 0.147643
H10   H     H_    0.905967 0.701046 0.983741 0.214597
H11   H     H_    0.167255 0.660619 0.335466 0.133590
H12   H     H_    0.895095 0.309532 0.041456 0.216957
H13   H     H_    0.232824 0.753667 0.329827 0.192185
H14   H     H_    0.167764 0.818324 0.389995 0.215194
H15   H     H_    0.766177 0.223229 0.379945 0.151557
H16   H     H_    0.757695 0.119855 0.518919 0.231849
H17   H     H_    0.827078 0.157961 0.453832 0.201371
H18   H     H_    0.318048 0.908185 0.564319 0.358425
H19   H     H_    0.678273 0.155037 0.748961 0.405139
H20   H     H_    0.246378 0.282136 0.255528 0.350805
H21   H     H_    0.690850 0.858857 0.265999 0.380984
H22   H     H_    0.147678 0.152146 0.617056 0.350392
H23   H     H_    0.969040 0.338827 0.011717 0.156209
H24   H     H_    0.868262 0.789591 0.325607 0.347055
H25   H     H_    0.667130 0.812647 0.676707 0.368376
H26   H     H_    0.327389 0.135127 0.552819 0.357205
H27   H     H_    0.590381 0.082748 0.916321 0.422254
H28   H     H_    0.500008 0.959891 0.048916 0.383845
H29   H     H_    0.375013 0.780842 0.766329 0.388647
H30   H     H_    0.639898 0.239456 0.257097 0.360207
H31   H     H_    0.098443 0.797812 0.669838 0.174898
H32   H     H_    0.094166 0.855696 0.838542 0.200185
H33   H     H_    0.031530 0.853793 0.739340 0.165915
H34   H     H_    0.679913 0.469867 0.826652 0.356231
H35   H     H_    0.320581 0.524894 0.183474 0.331003
H36   H     H_    0.449944 0.134863 0.187824 0.348618
N1    N     N_R   0.852830 0.495060 0.497970 -0.327264
N2    N     N_R   0.147029 0.475660 0.522355 -0.324231
N3    N     N_3   0.499960 0.500030 0.863290 -0.176508
N4    N     N_3   0.500040 0.499970 0.136710 -0.183130
O1    O     O_R   0.500000 0.313960 0.616610 -0.595544
O2    O     O_2   0.151020 0.376860 0.312348 -0.558970
O3    O     O_2   0.851767 0.378782 0.299411 -0.536492
O4    O     O_2   0.145655 0.567461 0.736067 -0.471732
O5    O     O_3   0.945139 0.292199 0.205356 -0.543244
O6    O     O_3   0.056901 0.684530 0.810176 -0.583364
O7    O     O_2   0.616909 0.309474 0.909865 -0.587777
O8    O     O_R   0.641008 0.503875 0.846949 -0.757479
O9    O     O_2   0.380319 0.685949 0.094399 -0.503756
O10   O     O_R   0.358657 0.490701 0.154907 -0.762860
O11   O     O_2   0.541359 0.199887 0.094798 -0.606339
O12   O     O_R   0.500000 0.686040 0.383390 -0.607880
O13   O     O_R   0.448463 0.221495 0.154723 -0.687438
O14   O     O_2   0.454339 0.798650 0.933666 -0.593556
O15   O     O_R   0.542374 0.781403 0.839972 -0.694858
O16   O     O_2   0.368676 0.428322 0.847460 -0.601476
O17   O     O_R   0.399619 0.241649 0.905502 -0.668908
O18   O     O_2   0.632420 0.581369 0.140289 -0.598769
O19   O     O_R   0.594496 0.763155 0.085519 -0.719758
O20   O     O_3   0.060445 0.335477 0.180224 -0.542893
O21   O     O_3   0.941195 0.700794 0.794509 -0.550869
O22   O     O_3   0.204023 0.701333 0.520453 -0.570562
O23   O     O_R   0.500030 0.313950 0.383350 -0.596705
O24   O     O_3   0.790726 0.291441 0.573214 -0.592878
O25   O     O_2   0.365533 0.748188 0.439949 -0.596892
O26   O     O_R   0.297764 0.826502 0.579411 -0.706798
O27   O     O_2   0.623135 0.261299 0.589786 -0.640800
O28   O     O_R   0.700223 0.229692 0.715200 -0.713558
O29   O     O_2   0.371178 0.287094 0.346236 -0.523608
O30   O     O_R   0.286034 0.249037 0.256347 -0.662863
O31   O     O_2   0.628035 0.727992 0.395480 -0.655580
O32   O     O_R   0.710139 0.780290 0.288362 -0.763440
O33   O     O_2   0.230579 0.155803 0.475484 -0.614955
O34   O     O_R   0.499970 0.686050 0.616650 -0.580624
O35   O     O_R   0.162831 0.239900 0.608657 -0.784413
O36   O     O_2   0.790474 0.811122 0.482755 -0.583024
O37   O     O_R   0.846892 0.707866 0.334658 -0.807025
O38   O     O_2   0.660476 0.986007 0.533609 -0.637551
O39   O     O_R   0.625741 0.828016 0.658419 -0.721375
O40   O     O_2   0.369326 0.030969 0.360068 -0.508695
O41   O     O_R   0.369983 0.133409 0.561034 -0.789807
O42   O     O_2   0.502803 0.154684 0.826379 -0.551470
O43   O     O_R   0.587508 0.060051 0.818273 -0.795278
O44   O     O_2   0.438748 0.861541 0.218200 -0.473411
O45   O     O_R   0.416140 0.499970 0.616650 -0.582920
O46   O     O_R   0.519216 0.956190 0.137878 -0.737230
O47   O     O_2   0.405690 0.992985 0.772632 -0.502849
O48   O     O_R   0.406475 0.795497 0.697251 -0.782513
O49   O     O_2   0.620161 0.021849 0.252614 -0.581863
O50   O     O_R   0.607192 0.218974 0.321051 -0.773465
O51   O     O_R   0.583860 0.500030 0.383350 -0.577322
O52   O     O_R   0.416170 0.499960 0.383400 -0.572321
O53   O     O_R   0.583830 0.500040 0.616600 -0.585692
O54   O     O_2   0.848896 0.614281 0.694540 -0.497641
Zn1   Zn    Zn3+2 0.499980 0.500010 0.655740 1.075914
Zn2   Zn    Zn3+2 0.500020 0.499990 0.344260 1.076022

loop_
_geom_bond_atom_site_label_1
_geom_bond_atom_site_label_2
_ccdc_geom_bond_type
C66   C68   A    
C34   C56   A    
C23   C45   A    
C16   O52   A    
C3    C68   A    
O51   Zn2   S    
C41   O6    S    
C26   N2    A    
C55   C68   S    
C19   C46   S    
C25   N1    A    
C28   O4    S    
H26   O41   S    
N4    Zn2   S    
C64   O47   D    
C33   C39   A    
C55   O30   S    
O45   Zn1   S    
O52   Zn2   S    
C52   H17   S    
C19   C21   S    
C61   O40   D    
C18   C44   S    
C8    C10   S    
C11   C14   S    
C27   C29   A    
C27   N1    A    
C22   N3    S    
C15   C65   S    
C44   O13   S    
C57   O31   D    
H29   O48   S    
C52   H16   S    
C1    O1    A    
C43   O10   S    
C12   O12   A    
H2    O15   S    
H18   O26   S    
C7    C14   S    
H28   O46   S    
H30   O50   S    
C28   N2    A    
C5    C23   A    
C40   H12   S    
C24   N4    S    
C60   O39   S    
C58   O35   S    
C51   H13   S    
H22   O35   S    
C41   H33   S    
C1    C13   S    
C20   N3    S    
C22   C47   S    
C45   C53   S    
C21   C43   S    
C21   C22   S    
C60   O38   D    
C36   O5    S    
C50   H10   S    
O53   Zn1   S    
C51   O22   S    
C34   O24   S    
C47   O17   S    
C51   H11   S    
C5    N2    S    
C54   C56   S    
C2    C57   S    
C17   C67   S    
C40   H1    S    
H4    O19   S    
C24   C48   S    
C32   C35   A    
C20   C24   S    
C35   C38   A    
C53   O25   D    
C4    C6    A    
C2    C67   A    
O1    Zn1   S    
O34   Zn1   S    
C37   O6    S    
C39   O21   S    
C44   O11   D    
C3    C5    A    
C6    C34   A    
C57   O32   S    
C52   O24   S    
C52   H15   S    
C2    C4    A    
C7    C62   S    
C50   O21   S    
C50   H8    S    
C42   O7    D    
C20   C42   S    
C40   O5    S    
C29   C36   A    
C25   O54   S    
H21   O32   S    
C54   O28   S    
C41   H31   S    
C41   H32   S    
C9    C11   S    
C51   H14   S    
H20   O30   S    
C49   H7    S    
C17   O53   A    
C43   O9    D    
C14   C64   S    
C59   O37   S    
C65   O49   D    
N3    Zn1   S    
C59   O36   D    
C8    C15   S    
C13   C15   S    
C10   C14   S    
C49   H5    S    
C46   O15   S    
H35   O10   S    
C16   C66   S    
C50   H9    S    
C45   C66   A    
C42   O8    S    
C7    C9    S    
C49   O20   S    
C26   O2    S    
C31   C33   A    
C62   O42   D    
H24   O37   S    
C18   C22   S    
H19   O28   S    
C31   C32   A    
C46   O14   D    
C53   O26   S    
C63   O46   S    
C65   O50   S    
C1    O23   A    
C10   C13   S    
C38   O20   S    
C11   C12   S    
H36   O13   S    
C62   O43   S    
C56   C67   A    
C64   O48   S    
C55   O29   D    
C9    C60   S    
C28   C30   A    
C19   C24   S    
C9    C15   S    
C29   C31   A    
C30   C37   A    
C48   O19   S    
C30   C32   A    
C58   O33   D    
C47   O16   D    
O23   Zn2   S    
C8    C11   S    
C54   O27   D    
C4    C59   S    
C36   C38   A    
C6    N1    S    
C12   O34   A    
H25   O39   S    
C18   C20   S    
C40   H23   S    
C17   O51   A    
C18   N4    S    
C63   O44   D    
C21   N4    S    
H34   O8    S    
O12   Zn2   S    
C8    C63   S    
C48   O18   D    
C10   C61   S    
C3    C58   S    
C26   C35   A    
C7    C13   S    
H27   O43   S    
C23   O22   S    
C37   C39   A    
C16   O45   A    
C49   H6    S    
H3    O17   S    
C61   O41   S    
C27   O3    S    
C25   C33   A    
C19   N3    S    
