data_mof_unit_38680.cif
_audit_creation_date              2012-12-10T18:42:35-0500
_audit_creation_method            fapswitch 2.2
_symmetry_space_group_name_H-M    P1
_symmetry_Int_Tables_number       1
_space_group_crystal_system       triclinic
_cell_length_a                    8.647221
_cell_length_b                    10.6024
_cell_length_c                    9.912101
_cell_angle_alpha                 89.891199
_cell_angle_beta                  98.399207
_cell_angle_gamma                 91.322855
_cell_volume                      898.766688534

loop_
_atom_site_label
_atom_site_type_symbol
_atom_type_description
_atom_site_fract_x
_atom_site_fract_y
_atom_site_fract_z
_atom_type_partial_charge
C1    C     C_R   0.497523 0.260661 0.499725 0.965380
C2    C     C_R   0.502477 0.739339 0.500274 0.965380
C3    C     C_R   0.201981 0.498807 0.464902 0.950988
C4    C     C_R   0.798019 0.501193 0.535098 0.950988
C5    C     C_2   0.038281 0.481427 0.448998 -0.088197
C6    C     C_2   0.961719 0.518573 0.551002 -0.088197
C7    C     C_R   0.642868 0.069378 0.512977 0.014413
C8    C     C_R   0.357132 0.930622 0.487024 0.014417
C9    C     C_R   0.644518 0.938367 0.513264 0.026290
C10   C     C_R   0.355482 0.061633 0.486737 0.026290
C11   C     C_R   0.501540 0.871771 0.500027 -0.043943
C12   C     C_R   0.498460 0.128229 0.499973 -0.043942
C13   C     C_R   0.598008 0.579680 0.084342 -0.011134
C14   C     C_R   0.401992 0.420320 0.915658 -0.011135
C15   C     C_R   0.597437 0.580063 0.940266 -0.010833
C16   C     C_R   0.402563 0.419937 0.059734 -0.010832
N1    N     N_R   0.499960 0.499970 0.857200 -0.124170
N2    N     N_R   0.500040 0.500030 0.142800 -0.124169
O1    O     O_R   0.499990 0.316750 0.614620 -0.621012
O2    O     O_R   0.500010 0.683250 0.385380 -0.621011
O3    O     O_R   0.499990 0.316780 0.385290 -0.615197
O4    O     O_R   0.500010 0.683220 0.614710 -0.615198
O5    O     O_R   0.271750 0.499990 0.587840 -0.592774
O6    O     O_R   0.728250 0.500010 0.412160 -0.592774
O7    O     O_R   0.271750 0.500010 0.358510 -0.636402
O8    O     O_R   0.728250 0.499990 0.641490 -0.636403
Zn1   Zn    Zn3+2 0.500000 0.499980 0.653120 0.977983
Zn2   Zn    Zn3+2 0.500000 0.500020 0.346880 0.977984
N3    N     N_3   0.963160 0.411667 0.331806 -0.427230
H1    H     H_    0.984393 0.459123 0.243533 0.204003
H2    H     H_    0.012966 0.322784 0.332763 0.194368
N4    N     N_3   0.036840 0.588333 0.668193 -0.427232
H3    H     H_    0.015607 0.540877 0.756467 0.204004
H4    H     H_    0.987034 0.677216 0.667237 0.194367
N5    N     N_3   0.785270 0.143836 0.525464 -0.465234
H5    H     H_    0.845017 0.121763 0.444567 0.184149
H6    H     H_    0.854914 0.121005 0.617079 0.191403
N6    N     N_3   0.214730 0.856165 0.474546 -0.465228
H7    H     H_    0.155001 0.878226 0.555461 0.184151
H8    H     H_    0.145065 0.879007 0.382941 0.191397
N7    N     N_3   0.788887 0.871978 0.527591 -0.471454
H9    H     H_    0.855767 0.898085 0.620169 0.187452
H10   H     H_    0.850316 0.899467 0.448746 0.191560
N8    N     N_3   0.211111 0.128023 0.472411 -0.471452
H11   H     H_    0.144233 0.101919 0.379831 0.187452
H12   H     H_    0.149681 0.100530 0.551254 0.191560
C17   C     C_1   0.703809 0.662939 0.170255 0.245137
N9    N     N_1   0.789594 0.729860 0.238174 -0.223160
C18   C     C_1   0.296193 0.337059 0.829745 0.245137
N10   N     N_1   0.210408 0.270137 0.761826 -0.223159
C19   C     C_1   0.698676 0.666955 0.880554 0.233089
N11   N     N_1   0.780015 0.737660 0.834067 -0.235479
C20   C     C_1   0.301324 0.333044 0.119446 0.233089
N12   N     N_1   0.219986 0.262339 0.165933 -0.235480

loop_
_geom_bond_atom_site_label_1
_geom_bond_atom_site_label_2
_ccdc_geom_bond_type
C2    O4    A    
C4    O8    A    
C1    O3    A    
N3    H1    S    
C15   C19   S    
C9    N7    S    
O1    Zn1   S    
N7    H9    S    
C3    O5    A    
C17   N9    T    
N4    H3    S    
C13   C15   A    
N3    H2    S    
C20   N12   T    
O7    Zn2   S    
N6    H8    S    
N7    H10   S    
C14   N1    A    
O8    Zn1   S    
C5    C6    D    
C1    C12   S    
C8    N6    S    
C13   N2    A    
C8    C11   A    
C2    C11   S    
C10   C12   A    
C4    C6    S    
N5    H6    S    
O3    Zn2   S    
N8    H12   S    
C5    N3    S    
O4    Zn1   S    
C9    C11   A    
C7    C12   A    
C4    O6    A    
C14   C16   A    
C1    O1    A    
C14   C18   S    
C10   N8    S    
C19   N11   T    
N1    Zn1   S    
C7    C9    A    
C3    O7    A    
N2    Zn2   S    
N8    H11   S    
C16   N2    A    
C18   N10   T    
C13   C17   S    
C2    O2    A    
C16   C20   S    
O2    Zn2   S    
C3    C5    S    
C15   N1    A    
C7    N5    S    
C8    C10   A    
O5    Zn1   S    
O6    Zn2   S    
N4    H4    S    
C6    N4    S    
N5    H5    S    
N6    H7    S    
