data_mof_unit_49279.cif
_audit_creation_date              2012-12-11T16:53:28-0500
_audit_creation_method            fapswitch 2.2
_symmetry_space_group_name_H-M    P1
_symmetry_Int_Tables_number       1
_space_group_crystal_system       triclinic
_cell_length_a                    15.073157
_cell_length_b                    14.830125
_cell_length_c                    17.004602
_cell_angle_alpha                 108.719638
_cell_angle_beta                  106.529286
_cell_angle_gamma                 108.682842
_cell_volume                      3076.22909675

loop_
_atom_site_label
_atom_site_type_symbol
_atom_type_description
_atom_site_fract_x
_atom_site_fract_y
_atom_site_fract_z
_atom_type_partial_charge
C1    C     C_R   0.086888 0.286628 0.076345 -0.127571
C2    C     C_R   0.025470 0.482404 0.722996 0.064365
C3    C     C_R   0.664820 0.216867 0.745207 0.066186
C4    C     C_R   0.299237 0.472617 0.975899 0.049055
C5    C     C_R   0.219309 0.702144 0.265156 -0.129367
C6    C     C_R   0.706560 0.500971 0.918240 -0.085707
C7    C     C_R   0.891478 0.395647 0.175074 -0.097714
C8    C     C_R   0.082652 0.802905 0.008752 -0.130593
C9    C     C_R   0.911288 0.719554 0.936420 -0.110487
C10   C     C_R   0.063813 0.477601 0.251593 -0.152167
C11   C     C_R   0.226001 0.799072 0.188167 -0.126068
C12   C     C_R   0.934275 0.459095 0.733936 -0.128855
C13   C     C_R   0.699978 0.408583 0.998674 -0.150996
C14   C     C_R   0.243540 0.804750 0.274959 0.059241
C15   C     C_R   0.643515 0.441680 0.945478 0.083342
C16   C     C_R   0.972753 0.415999 0.252155 0.076050
C17   C     C_R   0.996544 0.816723 0.969307 0.053245
C18   C     C_R   0.428182 0.508222 0.915477 -0.027483
C19   C     C_R   0.369956 0.444315 0.945175 0.064717
C20   C     C_R   0.385325 0.356524 0.947683 -0.178217
C21   C     C_R   0.470475 0.346075 0.936729 -0.199317
C22   C     C_R   0.538654 0.423490 0.923201 0.062532
C23   C     C_R   0.721215 0.213948 0.823575 -0.133755
C24   C     C_R   0.510392 0.497449 0.904060 0.035425
C25   C     C_3   0.567655 0.614197 0.928969 -0.038360
C26   C     C_3   0.475030 0.626200 0.941317 -0.044145
C27   C     C_R   0.964329 0.372815 0.317416 0.148515
C28   C     C_R   0.034317 0.439433 0.636758 0.130366
C29   C     C_R   0.139196 0.445663 0.552286 -0.223803
C30   C     C_R   0.132135 0.468782 0.635459 -0.172284
C31   C     C_R   0.944184 0.372972 0.554024 -0.273460
C32   C     C_R   0.950451 0.354248 0.471014 0.186215
C33   C     C_R   0.048636 0.395795 0.470700 0.189132
C34   C     C_R   0.266418 0.542782 0.957451 -0.125351
C35   C     C_R   0.054646 0.400023 0.392007 -0.290537
C36   C     C_R   0.866663 0.318281 0.313717 -0.110257
C37   C     C_R   0.859873 0.307214 0.390048 -0.247790
C38   C     C_R   0.556088 0.143752 0.679393 0.127758
C39   C     C_R   0.286062 0.900965 0.361794 0.135155
C40   C     C_R   0.389799 0.092583 0.448919 -0.229252
C41   C     C_R   0.324435 0.002308 0.365113 -0.174412
C42   C     C_R   0.302219 0.892429 0.444023 -0.278982
C43   C     C_R   0.374483 0.980855 0.527439 0.187053
C44   C     C_R   0.421595 0.080814 0.529088 0.193662
C45   C     C_R   0.726724 0.310192 0.746999 -0.141079
C46   C     C_R   0.509113 0.163247 0.606931 -0.280340
C47   C     C_R   0.502695 0.048313 0.681650 -0.174772
C48   C     C_R   0.410597 0.967822 0.606471 -0.222405
C49   C     C_R   0.096675 0.109354 0.121942 0.176062
C50   C     C_R   0.003687 0.114855 0.086763 -0.086473
C51   C     C_R   0.918692 0.046821 0.095795 -0.054175
C52   C     C_R   0.931954 0.978499 0.136338 -0.266070
C53   C     C_R   0.028801 0.979369 0.172784 0.026950
C54   C     C_R   0.108304 0.046294 0.162899 0.187013
C55   C     C_3   0.221523 0.088102 0.189743 -0.526881
C56   C     C_R   0.259151 0.443836 0.032797 -0.138816
C57   C     C_3   0.209271 0.158818 0.142678 -0.512287
C58   C     C_R   0.107005 0.552924 0.809330 -0.134290
C59   C     C_R   0.915446 0.199542 0.996718 -0.086998
C60   C     C_R   0.001036 0.192172 0.048570 0.078701
H1    H     H_    0.163262 0.317068 0.129432 0.093853
H2    H     H_    0.684087 0.526734 0.866321 0.079869
H3    H     H_    0.810931 0.338975 0.146833 0.112142
H4    H     H_    0.162132 0.857746 0.030444 0.088445
H5    H     H_    0.831793 0.697742 0.894209 0.096407
H6    H     H_    0.141913 0.496005 0.293995 0.088358
H7    H     H_    0.237582 0.863812 0.170193 0.088904
H8    H     H_    0.671519 0.351408 0.023067 0.094950
H9    H     H_    0.337590 0.301905 0.965433 0.123122
H10   H     H_    0.488088 0.284634 0.947711 0.124231
H11   H     H_    0.855431 0.409656 0.681785 0.094375
H12   H     H_    0.574961 0.624648 0.868807 0.074662
H13   H     H_    0.430966 0.644024 0.888560 0.104162
H14   H     H_    0.130499 0.437183 0.394392 0.117346
H15   H     H_    0.795235 0.291868 0.255504 0.130969
H16   H     H_    0.215125 0.475504 0.552681 0.124881
H17   H     H_    0.783998 0.272603 0.388807 0.131272
H18   H     H_    0.203378 0.514419 0.698192 0.112838
H19   H     H_    0.868235 0.344722 0.553339 0.118202
H20   H     H_    0.546174 0.237714 0.605254 0.114363
H21   H     H_    0.692370 0.160951 0.851406 0.090058
H22   H     H_    0.534989 0.032280 0.738058 0.117259
H23   H     H_    0.424411 0.169261 0.449500 0.124036
H24   H     H_    0.374113 0.891944 0.606618 0.127255
H25   H     H_    0.311613 0.011521 0.303191 0.117190
H26   H     H_    0.269252 0.815635 0.443285 0.118558
H27   H     H_    0.868014 0.928094 0.143793 0.153611
H28   H     H_    0.267912 0.134883 0.265569 0.195998
H29   H     H_    0.243137 0.027369 0.154576 0.183975
H30   H     H_    0.252063 0.244849 0.192875 0.186718
H31   H     H_    0.289770 0.586286 0.921809 0.100997
H32   H     H_    0.222048 0.137728 0.079328 0.194673
H33   H     H_    0.703775 0.347104 0.704894 0.083978
H34   H     H_    0.272096 0.392650 0.063053 0.095898
H35   H     H_    0.185935 0.598814 0.823331 0.081267
H36   H     H_    0.834516 0.145345 0.970015 0.110204
H37   H     H_    0.223882 0.675396 0.317437 0.095660
N1    N     N_R   0.055640 0.348550 0.045600 -0.042814
N2    N     N_R   0.798340 0.505430 0.954400 -0.044957
N3    N     N_R   0.931580 0.439470 0.128350 -0.043457
N4    N     N_R   0.051950 0.704140 0.002340 -0.041016
N5    N     N_R   0.944360 0.651450 0.954400 -0.043528
N6    N     N_R   0.039170 0.492150 0.176290 -0.039799
N7    N     N_R   0.188710 0.696600 0.128350 -0.041383
N8    N     N_R   0.794820 0.447010 0.002340 -0.041957
N9    N     N_R   0.960830 0.507850 0.823710 -0.040867
N10   N     N_R   0.811290 0.303400 0.871650 -0.038996
N11   N     N_R   0.205180 0.552990 0.997660 -0.040172
N12   N     N_R   0.814810 0.361830 0.823710 -0.039388
N13   N     N_R   0.201660 0.494570 0.045600 -0.039492
N14   N     N_R   0.068420 0.560530 0.871650 -0.038656
N15   N     N_R   0.948050 0.295860 0.997660 -0.045202
N16   N     N_R   0.185190 0.638170 0.176290 -0.042218
Ni1   Ni    Ni4+2 0.119330 0.493420 0.109950 0.209076
Ni2   Ni    Ni4+2 0.880670 0.506580 0.890050 0.205376
Ni3   Ni    Ni4+2 0.872590 0.372590 0.000000 0.221227
Ni4   Ni    Ni4+2 0.127410 0.627410 0.000000 0.210530
N17   N     N_2   0.667193 0.676929 0.011122 -0.088008
H38   H     H_    0.710201 0.752207 0.019962 0.204075
C61   C     C_3   0.682347 0.668618 0.096345 -0.821865
H39   H     H_    0.757174 0.665990 0.123696 0.238843
H40   H     H_    0.619452 0.596180 0.086802 0.246081
H41   H     H_    0.686359 0.739986 0.148314 0.240414
N18   N     N_2   0.499925 0.695812 0.035554 -0.077410
H42   H     H_    0.474090 0.660857 0.073379 0.191584
C62   C     C_3   0.496078 0.795824 0.051054 -0.900332
H43   H     H_    0.531211 0.848524 0.126183 0.249503
H44   H     H_    0.414269 0.781463 0.020118 0.230779
H45   H     H_    0.540593 0.836743 0.020428 0.267686
C63   C     C_2   0.818384 0.050204 0.072534 0.976856
O1    O     O_2   0.815326 0.134002 0.109589 -0.680302
O2    O     O_R   0.726711 0.956372 0.011105 -0.829526
H46   H     H_    0.663079 0.969133 0.999623 0.309410

loop_
_geom_bond_atom_site_label_1
_geom_bond_atom_site_label_2
_ccdc_geom_bond_type
C12   N9    A    
C35   H14   S    
N4    N5    A    
C57   H32   S    
C50   C60   S    
N8    Ni3   S    
C3    C23   A    
C19   C20   A    
N3    Ni3   S    
C58   H35   S    
C2    C12   A    
C25   N17   S    
C39   C41   A    
C29   H16   S    
C53   C54   A    
C61   H39   S    
C56   H34   S    
C62   H43   S    
C18   C24   A    
C36   C37   A    
N7    Ni4   S    
N2    Ni2   S    
C11   C14   A    
C45   N12   A    
N1    Ni1   S    
C49   C54   A    
C52   H27   S    
C29   C33   A    
C26   H13   S    
C49   C57   S    
C18   C19   A    
C47   H22   S    
C55   H28   S    
C34   H31   S    
N5    Ni2   S    
C14   C39   S    
N17   H38   S    
C4    C19   S    
C15   C22   S    
C31   C32   A    
C3    C38   S    
C44   C46   A    
C9    N5    A    
C18   C26   S    
C11   N7    A    
C42   H26   S    
C43   C48   A    
N13   Ni1   S    
C61   H41   S    
C16   C27   S    
C6    C15   A    
C45   H33   S    
C59   C60   A    
C21   C22   A    
C4    C56   A    
N10   N12   A    
C40   H23   S    
C26   N18   S    
C56   N13   A    
C51   C63   S    
C11   H7    S    
C50   C51   A    
C39   C42   A    
N17   C61   S    
N9    N14   A    
C10   H6    S    
N2    N8    A    
C4    C34   A    
N1    N15   A    
C7    N3    A    
C51   C52   A    
N6    Ni1   S    
C24   C25   S    
C13   N8    A    
C57   H30   S    
C1    C60   A    
O2    H46   S    
C62   H45   S    
C27   C35   A    
C25   C26   S    
C37   H17   S    
C3    C45   A    
N3    N6    A    
C58   N14   A    
C63   O2    S    
C43   C44   A    
C29   C30   A    
C36   H15   S    
C47   C48   A    
C23   N10   A    
C10   N6    A    
C59   N15   A    
C5    C14   A    
C25   H12   S    
C32   C37   A    
C7    H3    S    
C38   C47   A    
C8    H4    S    
C9    C17   A    
C40   C41   A    
C12   H11   S    
C5    H37   S    
C55   C57   S    
C22   C24   A    
C20   H9    S    
C42   C43   A    
N15   Ni3   S    
C52   C53   A    
C61   H40   S    
N18   C62   S    
N16   Ni1   S    
C8    N4    A    
C54   C55   S    
C7    C16   A    
C62   H44   S    
C23   H21   S    
C5    N16   A    
N11   Ni4   S    
C28   C31   A    
C1    H1    S    
C1    N1    A    
C2    C58   A    
C31   H19   S    
C27   C36   A    
C41   H25   S    
C21   H10   S    
C8    C17   A    
N9    Ni2   S    
N14   Ni4   S    
C34   N11   A    
C32   C33   A    
C6    H2    S    
C13   C15   A    
C63   O1    D    
N4    Ni4   S    
C55   H29   S    
C10   C16   A    
C6    N2    A    
C46   H20   S    
C28   C30   A    
C33   C35   A    
N11   N13   A    
C9    H5    S    
N10   Ni3   S    
C38   C46   A    
N12   Ni2   S    
N7    N16   A    
C30   H18   S    
C48   H24   S    
C40   C44   A    
C20   C21   A    
C49   C50   A    
C59   H36   S    
C2    C28   S    
N18   H42   S    
C13   H8    S    
