data_mof_unit_64705.cif
_audit_creation_date              2012-12-10T21:19:13-0500
_audit_creation_method            fapswitch 2.2
_symmetry_space_group_name_H-M    P1
_symmetry_Int_Tables_number       1
_space_group_crystal_system       triclinic
_cell_length_a                    15.719266
_cell_length_b                    17.467739
_cell_length_c                    16.90543
_cell_angle_alpha                 92.767287
_cell_angle_beta                  93.258618
_cell_angle_gamma                 91.583459
_cell_volume                      4626.83571328

loop_
_atom_site_label
_atom_site_type_symbol
_atom_type_description
_atom_site_fract_x
_atom_site_fract_y
_atom_site_fract_z
_atom_type_partial_charge
C1    C     C_R   0.500769 0.352810 0.498309 0.880198
C2    C     C_R   0.503779 0.646843 0.502009 0.875042
C3    C     C_R   0.584358 0.764660 0.560415 0.138014
C4    C     C_R   0.479611 0.220194 0.432007 0.139534
C5    C     C_R   0.520198 0.729603 0.506693 -0.083872
C6    C     C_R   0.514024 0.269943 0.495348 -0.092120
C7    C     C_R   0.475511 0.772934 0.451993 -0.235369
C8    C     C_R   0.566249 0.241132 0.556219 -0.228211
C9    C     C_R   0.491590 0.850932 0.450987 -0.198203
C10   C     C_R   0.584635 0.164161 0.555237 -0.206508
C11   C     C_R   0.552674 0.886697 0.504434 0.103819
C12   C     C_R   0.552899 0.115259 0.492430 0.102216
C13   C     C_1   0.561567 0.967509 0.502554 -0.034763
C14   C     C_1   0.562225 0.035377 0.499237 -0.033338
C15   C     C_R   0.418987 0.489262 0.825300 0.084733
C16   C     C_R   0.560496 0.547202 0.174613 0.086228
C17   C     C_R   0.424538 0.486893 0.741811 -0.079498
C18   C     C_R   0.560348 0.542691 0.258107 -0.070313
C19   C     C_R   0.572914 0.514301 0.757183 0.238107
C20   C     C_R   0.437526 0.460709 0.244391 0.238408
C21   C     C_R   0.570781 0.510467 0.840996 0.069697
C22   C     C_R   0.438792 0.459781 0.160338 0.066148
C23   C     C_R   0.337799 0.500070 0.498040 0.919608
C24   C     C_R   0.662192 0.499968 0.501957 0.902109
C25   C     C_R   0.492965 0.501022 0.876182 -0.023707
C26   C     C_R   0.499371 0.504814 0.124390 -0.024094
C27   C     C_1   0.491981 0.504231 0.963845 0.114823
C28   C     C_1   0.496374 0.506364 0.036757 0.114950
C29   C     C_3   0.972845 0.431958 0.522973 0.145946
C30   C     C_3   0.027184 0.569199 0.477996 0.146311
C31   C     C_3   0.020931 0.445597 0.447583 0.132788
C32   C     C_3   0.979067 0.555554 0.553384 0.136224
C33   C     C_1   0.249003 0.500542 0.494113 -0.160041
C34   C     C_1   0.750986 0.499924 0.506000 -0.154118
C35   C     C_3   0.035853 0.487295 0.572083 0.123475
C36   C     C_3   0.964195 0.513861 0.428888 0.126382
C37   C     C_3   0.083339 0.500933 0.496619 0.043608
C38   C     C_3   0.916696 0.500212 0.504322 0.043798
C39   C     C_1   0.173852 0.500881 0.493745 0.000900
C40   C     C_1   0.826157 0.499980 0.506774 0.005134
C41   C     C_R   0.599989 0.844860 0.559969 0.223768
C42   C     C_R   0.502151 0.142420 0.428895 0.226792
H1    H     H_    0.427641 0.746205 0.410045 0.170641
H2    H     H_    0.593170 0.278431 0.604911 0.181981
H3    H     H_    0.455431 0.883831 0.408676 0.160411
H4    H     H_    0.622780 0.142454 0.604221 0.161937
H5    H     H_    0.366782 0.475782 0.705012 0.179997
H6    H     H_    0.607861 0.575278 0.295518 0.171432
N1    N     N_R   0.500020 0.500030 0.707230 -0.130194
N2    N     N_R   0.499980 0.499970 0.292770 -0.131369
O1    O     O_R   0.500000 0.389130 0.566570 -0.608927
O2    O     O_R   0.500000 0.610870 0.433430 -0.613293
O3    O     O_R   0.499990 0.389100 0.433480 -0.596593
O4    O     O_R   0.500010 0.610900 0.566520 -0.602554
O5    O     O_R   0.376780 0.500010 0.566530 -0.631636
O6    O     O_R   0.623220 0.499990 0.433470 -0.622402
O7    O     O_R   0.376780 0.499980 0.433450 -0.580828
O8    O     O_R   0.623220 0.500020 0.566550 -0.586658
Zn1   Zn    Zn3+2 0.500000 0.500020 0.588860 0.976148
Zn2   Zn    Zn3+2 0.500000 0.499980 0.411140 0.981039
C43   C     C_3   0.046282 0.383738 0.387731 -0.827040
H7    H     H_    0.988294 0.352655 0.361070 0.246426
H8    H     H_    0.081032 0.410437 0.340266 0.261480
H9    H     H_    0.088175 0.342674 0.417896 0.244592
C44   C     C_3   0.953525 0.617354 0.613215 -0.832910
H10   H     H_    0.011419 0.648592 0.639863 0.247454
H11   H     H_    0.911466 0.658293 0.583047 0.241492
H12   H     H_    0.918876 0.590568 0.660692 0.264899
I1    I     I_    0.693109 0.552476 0.718245 -0.326520
I2    I     I_    0.329153 0.406675 0.290304 -0.321717
I3    I     I_    0.685518 0.516703 0.917510 -0.239433
I4    I     I_    0.349548 0.389756 0.085325 -0.244601
C45   C     C_3   0.940546 0.354627 0.548589 -0.857699
H13   H     H_    0.995076 0.316482 0.558177 0.248591
H14   H     H_    0.907604 0.362589 0.604613 0.253478
H15   H     H_    0.895236 0.328009 0.501794 0.243491
C46   C     C_3   0.059407 0.646566 0.452427 -0.861587
H16   H     H_    0.004840 0.684683 0.442897 0.249159
H17   H     H_    0.104714 0.673176 0.499228 0.243485
H18   H     H_    0.092320 0.638671 0.396381 0.251195
C47   C     C_3   0.922114 0.528866 0.348049 -0.827794
H19   H     H_    0.971791 0.536595 0.304800 0.256029
H20   H     H_    0.879233 0.479503 0.327431 0.247755
H21   H     H_    0.884402 0.581518 0.352519 0.245896
C48   C     C_3   0.077995 0.472350 0.652924 -0.817752
H22   H     H_    0.028355 0.464679 0.696221 0.258693
H23   H     H_    0.115688 0.419686 0.648486 0.245081
H24   H     H_    0.120919 0.521706 0.673482 0.249457
C49   C     C_3   0.665690 0.884920 0.618230 -0.897701
H25   H     H_    0.668164 0.948122 0.614938 0.243330
H26   H     H_    0.650661 0.872619 0.679829 0.254348
H27   H     H_    0.730230 0.864619 0.606234 0.243831
C50   C     C_3   0.471854 0.089139 0.358640 -0.902672
H28   H     H_    0.504543 0.033730 0.357000 0.242813
H29   H     H_    0.402381 0.076638 0.360394 0.244217
H30   H     H_    0.485327 0.116217 0.302398 0.256652
C51   C     C_3   0.636521 0.715860 0.615363 -0.811567
H31   H     H_    0.692057 0.746236 0.646888 0.246746
H32   H     H_    0.595468 0.694175 0.661142 0.269018
H33   H     H_    0.662458 0.667189 0.580604 0.235716
C52   C     C_3   0.416975 0.249621 0.370735 -0.813854
H34   H     H_    0.378911 0.203987 0.336145 0.249012
H35   H     H_    0.369990 0.285117 0.401089 0.242867
H36   H     H_    0.452125 0.283493 0.328605 0.269925
I5    I     I_    0.296883 0.474792 0.870137 -0.300858
I6    I     I_    0.653539 0.620083 0.128965 -0.297159

loop_
_geom_bond_atom_site_label_1
_geom_bond_atom_site_label_2
_ccdc_geom_bond_type
C41   C49   S    
C9    H3    S    
C50   H28   S    
O5    Zn1   S    
C42   C50   S    
C35   C48   S    
C45   H13   S    
C31   C43   S    
C24   O6    A    
C51   H33   S    
C51   H31   S    
C48   H22   S    
C33   C39   T    
C4    C42   A    
C21   I3    S    
C34   C40   T    
C35   C37   S    
C15   C25   A    
C29   C45   S    
C15   C17   A    
C43   H8    S    
C1    O3    A    
C12   C42   A    
O2    Zn2   S    
C51   H32   S    
C30   C46   S    
C23   C33   S    
C29   C38   S    
C10   H4    S    
C20   N2    A    
C32   C38   S    
C49   H26   S    
C16   I6    S    
C48   H23   S    
C52   H35   S    
C38   C40   S    
C13   C14   T    
C45   H14   S    
C20   I2    S    
C22   I4    S    
C47   H20   S    
O3    Zn2   S    
C47   H19   S    
O4    Zn1   S    
C46   H17   S    
C16   C26   A    
C1    C6    S    
C52   H34   S    
C17   H5    S    
C4    C6    A    
C2    O4    A    
C17   N1    A    
C5    C7    A    
O7    Zn2   S    
C6    C8    A    
C44   H11   S    
O8    Zn1   S    
C46   H16   S    
C24   C34   S    
O6    Zn2   S    
C30   C37   S    
C43   H9    S    
C32   C35   S    
C2    O2    A    
C9    C11   A    
C19   N1    A    
C36   C47   S    
C29   C31   S    
C44   H12   S    
C4    C52   S    
C49   H27   S    
C1    O1    A    
C10   C12   A    
C23   O7    A    
C16   C18   A    
C12   C14   S    
C50   H30   S    
C7    H1    S    
C45   H15   S    
C19   I1    S    
C2    C5    S    
O1    Zn1   S    
C47   H21   S    
C18   N2    A    
C48   H24   S    
C7    C9    A    
C21   C25   A    
C3    C41   A    
C3    C51   S    
C19   C21   A    
C8    C10   A    
C8    H2    S    
C20   C22   A    
C3    C5    A    
C18   H6    S    
C23   O5    A    
C25   C27   S    
C29   C35   S    
C26   C28   S    
N1    Zn1   S    
C30   C36   S    
N2    Zn2   S    
C15   I5    S    
C36   C38   S    
C37   C39   S    
C30   C32   S    
C11   C13   S    
C50   H29   S    
C46   H18   S    
C11   C41   A    
C43   H7    S    
C31   C37   S    
C24   O8    A    
C44   H10   S    
C22   C26   A    
C27   C28   T    
C31   C36   S    
C52   H36   S    
C49   H25   S    
C32   C44   S    
