data_mof_unit_51195.cif
_audit_creation_date              2012-12-10T18:57:05-0500
_audit_creation_method            fapswitch 2.2
_symmetry_space_group_name_H-M    P1
_symmetry_Int_Tables_number       1
_space_group_crystal_system       triclinic
_cell_length_a                    10.812708
_cell_length_b                    9.817305
_cell_length_c                    10.72083
_cell_angle_alpha                 91.564889
_cell_angle_beta                  89.216089
_cell_angle_gamma                 90.248373
_cell_volume                      1137.4939677

loop_
_atom_site_label
_atom_site_type_symbol
_atom_type_description
_atom_site_fract_x
_atom_site_fract_y
_atom_site_fract_z
_atom_type_partial_charge
C1    C     C_R   0.259569 0.500148 0.497540 0.993770
C2    C     C_R   0.739970 0.500345 0.499769 1.001366
C3    C     C_R   0.584586 0.070214 0.430417 -0.037762
C4    C     C_R   0.418032 0.073815 0.573044 -0.039362
C5    C     C_R   0.582415 0.926262 0.427602 -0.102518
C6    C     C_R   0.417906 0.929752 0.572967 -0.062018
C7    C     C_R   0.502526 0.497859 0.259312 0.876825
C8    C     C_R   0.509219 0.501833 0.739344 0.879473
C9    C     C_R   0.495563 0.615818 0.066040 0.054786
C10   C     C_R   0.506858 0.623230 0.939582 0.073126
C11   C     C_R   0.518983 0.495234 0.126447 -0.152549
C12   C     C_R   0.536124 0.506434 0.869291 -0.157079
C13   C     C_R   0.570017 0.382840 0.057719 -0.082712
C14   C     C_R   0.585199 0.392192 0.928329 -0.075201
C15   C     C_3   0.400595 0.719988 0.931229 -0.241181
C16   C     C_3   0.385051 0.707980 0.072082 -0.232367
C17   C     C_R   0.061891 0.380772 0.464032 0.379326
C18   C     C_R   0.935406 0.386452 0.448811 0.366057
C19   C     C_R   0.872047 0.502065 0.494662 -0.412163
C20   C     C_R   0.126669 0.502309 0.490867 -0.419466
C21   C     C_R   0.935286 0.621189 0.532441 0.374269
C22   C     C_R   0.062441 0.626174 0.513986 0.389434
H1    H     H_    0.322928 0.679624 0.873748 0.158954
H2    H     H_    0.401382 0.803111 0.128417 0.166400
H3    H     H_    0.654677 0.123548 0.378370 0.177635
H4    H     H_    0.353901 0.130077 0.632702 0.128524
H5    H     H_    0.647581 0.870224 0.368873 0.130292
H6    H     H_    0.352222 0.876435 0.631131 0.161401
N1    N     N_R   0.500000 0.857200 0.500000 -0.086010
N2    N     N_R   0.500000 0.142810 0.500000 -0.083021
O1    O     O_R   0.316770 0.614620 0.499990 -0.591395
O2    O     O_R   0.683230 0.614620 0.500010 -0.605687
O3    O     O_R   0.316800 0.385290 0.500000 -0.580121
O4    O     O_R   0.683200 0.385290 0.500000 -0.582753
O5    O     O_R   0.500000 0.614690 0.316780 -0.635746
O6    O     O_R   0.500000 0.614690 0.683220 -0.615059
O7    O     O_R   0.500020 0.385360 0.316780 -0.612841
O8    O     O_R   0.499980 0.385360 0.683220 -0.628158
Zn1   Zn    Zn3+2 0.500000 0.653120 0.500000 0.967286
Zn2   Zn    Zn3+2 0.500000 0.346880 0.500000 0.995501
C23   C     C_1   0.593494 0.252552 0.112493 0.219767
N3    N     N_1   0.611064 0.146136 0.152053 -0.240410
C24   C     C_1   0.646450 0.282964 0.857179 0.236086
N4    N     N_1   0.695372 0.196214 0.800590 -0.188774
C25   C     C_1   0.442849 0.856424 0.895812 0.226348
N5    N     N_1   0.476265 0.963938 0.868809 -0.202457
C26   C     C_1   0.269971 0.636045 0.106242 0.170299
N6    N     N_1   0.179807 0.579012 0.132517 -0.235651
O9    O     O_3   0.121467 0.257068 0.446866 -0.563556
C27   C     C_3   0.101759 0.181007 0.555413 -0.227031
H7    H     H_    0.002301 0.156200 0.570200 0.180535
H8    H     H_    0.151419 0.083227 0.544562 0.167194
H9    H     H_    0.138707 0.235432 0.639550 0.140028
O10   O     O_3   0.873554 0.272842 0.402053 -0.585795
C28   C     C_3   0.884874 0.271028 0.270831 -0.260464
H10   H     H_    0.844605 0.174481 0.233675 0.182925
H11   H     H_    0.983194 0.273489 0.238660 0.189491
H12   H     H_    0.833030 0.357149 0.231318 0.144710
O11   O     O_3   0.875991 0.718871 0.607900 -0.571093
C29   C     C_3   0.865084 0.843222 0.546320 -0.135341
H13   H     H_    0.784155 0.898466 0.586766 0.179684
H14   H     H_    0.849640 0.829414 0.444280 0.108932
H15   H     H_    0.946792 0.908831 0.564661 0.181443
O12   O     O_3   0.123497 0.749423 0.530204 -0.586008
C30   C     C_3   0.142463 0.805751 0.411130 -0.281434
H16   H     H_    0.054133 0.837440 0.369441 0.140552
H17   H     H_    0.190784 0.734427 0.345006 0.183836
H18   H     H_    0.202257 0.897040 0.420829 0.186930

loop_
_geom_bond_atom_site_label_1
_geom_bond_atom_site_label_2
_ccdc_geom_bond_type
C3    N2    A    
C27   H8    S    
C24   N4    T    
C21   O11   S    
C6    H6    S    
C11   C13   A    
C9    C10   A    
O5    Zn1   S    
C26   N6    T    
C3    H3    S    
C8    C12   S    
C30   H18   S    
O12   C30   S    
N1    Zn1   S    
C28   H10   S    
C15   H1    S    
C17   C18   A    
C7    O7    A    
C1    O3    A    
O11   C29   S    
C16   H2    S    
C13   C14   A    
C29   H14   S    
O8    Zn2   S    
C9    C11   A    
C2    O4    A    
C8    O8    A    
C29   H13   S    
C29   H15   S    
O4    Zn2   S    
C10   C12   A    
C16   C26   S    
C13   C23   S    
C19   C21   A    
C9    C16   S    
C20   C22   A    
C7    C11   S    
O7    Zn2   S    
C5    N1    A    
C10   C15   S    
C28   H11   S    
C8    O6    A    
C7    O5    A    
C4    H4    S    
O2    Zn1   S    
C27   H9    S    
C30   H17   S    
C18   O10   S    
C22   O12   S    
C15   C16   S    
O3    Zn2   S    
C25   N5    T    
C12   C14   A    
C1    O1    A    
C6    N1    A    
C2    O2    A    
C30   H16   S    
C23   N3    T    
C28   H12   S    
C17   O9    S    
C2    C19   S    
O9    C27   S    
N2    Zn2   S    
O10   C28   S    
C18   C19   A    
C1    C20   S    
C27   H7    S    
C21   C22   A    
C5    H5    S    
C4    C6    A    
C17   C20   A    
O6    Zn1   S    
C4    N2    A    
O1    Zn1   S    
C14   C24   S    
C3    C5    A    
C15   C25   S    
