data_mof_unit_59326.cif
_audit_creation_date              2012-12-11T17:15:56-0500
_audit_creation_method            fapswitch 2.2
_symmetry_space_group_name_H-M    P1
_symmetry_Int_Tables_number       1
_space_group_crystal_system       triclinic
_cell_length_a                    14.609719
_cell_length_b                    7.231512
_cell_length_c                    13.46172
_cell_angle_alpha                 89.99893
_cell_angle_beta                  99.376161
_cell_angle_gamma                 89.999042
_cell_volume                      1403.23451773

loop_
_atom_site_label
_atom_site_type_symbol
_atom_type_description
_atom_site_fract_x
_atom_site_fract_y
_atom_site_fract_z
_atom_type_partial_charge
O1    O     O_R   0.398210 0.494340 0.401550 -0.530983
O2    O     O_R   0.601790 0.994340 0.598450 -0.530971
O3    O     O_R   0.586310 0.821730 0.403360 -0.543455
O4    O     O_R   0.413690 0.321730 0.596640 -0.543462
C1    C     C_R   0.615304 0.655328 0.381693 0.648143
C2    C     C_R   0.384661 0.155334 0.618266 0.648146
O5    O     O_R   0.397970 0.823900 0.389580 -0.534626
O6    O     O_R   0.602030 0.323900 0.610420 -0.534612
O7    O     O_R   0.412100 0.996500 0.584560 -0.540143
O8    O     O_R   0.587900 0.496500 0.415440 -0.540141
C3    C     C_R   0.365027 0.655235 0.363047 0.720478
C4    C     C_R   0.634973 0.155232 0.636953 0.720525
O9    O     O_3   0.504860 0.661550 0.563990 -0.374965
O10   O     O_3   0.495140 0.161550 0.436010 -0.374978
V1    V     V_3+5 0.499100 0.935510 0.488130 1.387602
V2    V     V_3+5 0.500900 0.435510 0.511870 1.387602
C5    C     C_1   0.716048 0.144652 0.716829 -0.191355
C6    C     C_1   0.283951 0.644655 0.283171 -0.191348
C7    C     C_1   0.783944 0.134141 0.783186 -0.191185
C8    C     C_1   0.216055 0.634138 0.216815 -0.191195
C9    C     C_3   0.277937 0.224684 0.864149 -0.320006
C10   C     C_3   0.722323 0.726393 0.136107 -0.319941
H1    H     H_    0.263474 0.367462 0.888243 0.138246
H2    H     H_    0.737286 0.869309 0.112595 0.138426
H3    H     H_    0.306393 0.145578 0.933190 0.122820
H4    H     H_    0.693602 0.648439 0.066734 0.122765
C11   C     C_3   0.351442 0.232497 0.792676 -0.326421
C12   C     C_3   0.648823 0.734241 0.207586 -0.326279
H5    H     H_    0.414995 0.156967 0.827486 0.120805
H6    H     H_    0.584992 0.659935 0.172438 0.120714
H7    H     H_    0.371688 0.378968 0.783103 0.140397
H8    H     H_    0.629120 0.880869 0.217758 0.140623
H9    H     H_    0.132790 0.389002 0.735835 0.143294
H10   H     H_    0.868016 0.887469 0.265153 0.143060
H11   H     H_    0.240845 0.400789 0.630594 0.138752
H12   H     H_    0.759971 0.899215 0.370442 0.138504
C13   C     C_3   0.150130 0.245793 0.715020 -0.325257
C14   C     C_3   0.850172 0.744197 0.285380 -0.325337
C15   C     C_3   0.211530 0.935336 0.777588 -0.312326
C16   C     C_3   0.787691 0.435189 0.221503 -0.312302
C17   C     C_3   0.186779 0.132676 0.811326 0.122787
C18   C     C_3   0.813158 0.632665 0.188600 0.122853
H13   H     H_    0.148029 0.865205 0.738130 0.137261
H14   H     H_    0.850922 0.363786 0.260714 0.137519
H15   H     H_    0.239203 0.850025 0.844630 0.136343
H16   H     H_    0.759751 0.351050 0.154083 0.136044
C19   C     C_3   0.312896 0.146300 0.688590 0.122295
C20   C     C_3   0.687039 0.646289 0.311334 0.122260
C21   C     C_3   0.223602 0.253761 0.643515 -0.320976
C22   C     C_3   0.776706 0.752135 0.356893 -0.320965
C23   C     C_3   0.284464 0.943262 0.706596 -0.313274
C24   C     C_3   0.714746 0.443112 0.292481 -0.313183
H17   H     H_    0.346526 0.861840 0.740124 0.139323
H18   H     H_    0.652385 0.362895 0.258576 0.139038
H19   H     H_    0.255406 0.877026 0.633606 0.134685
H20   H     H_    0.743543 0.375567 0.365193 0.134932
H21   H     H_    0.085179 0.182040 0.674872 0.120380
H22   H     H_    0.914900 0.679191 0.325292 0.120382
H23   H     H_    0.193745 0.193964 0.569115 0.122824
H24   H     H_    0.806339 0.691020 0.431046 0.122855
O11   O     O_R   0.912140 0.786650 0.084610 -0.538159
O12   O     O_R   0.087860 0.286650 0.915390 -0.538160
O13   O     O_R   0.102040 0.454810 0.110430 -0.534431
O14   O     O_R   0.897960 0.954810 0.889570 -0.534440
C25   C     C_R   0.134979 0.623565 0.136939 0.720195
C26   C     C_R   0.865021 0.123568 0.863061 0.720142
O15   O     O_R   0.913690 0.457060 0.096650 -0.544223
O16   O     O_R   0.086310 0.957060 0.903350 -0.544222
O17   O     O_R   0.898200 0.284560 0.901540 -0.531003
O18   O     O_R   0.101800 0.784560 0.098460 -0.530987
C27   C     C_R   0.884949 0.625206 0.118140 0.641780
C28   C     C_R   0.115017 0.125211 0.881822 0.641767
O19   O     O_3   0.995160 0.617270 0.936040 -0.374379
O20   O     O_3   0.004840 0.117270 0.063960 -0.374361
V3    V     V_3+5 0.000900 0.343280 0.011870 1.388745
V4    V     V_3+5 0.999100 0.843280 0.988130 1.388739

loop_
_geom_bond_atom_site_label_1
_geom_bond_atom_site_label_2
_ccdc_geom_bond_type
C15   C23   S    
O13   C25   A    
C3    C6    S    
C11   H5    S    
O1    C3    A    
O2    C4    A    
C2    O7    A    
H12   C22   S    
C19   C21   S    
C16   H16   S    
C14   C18   S    
C26   O17   A    
C25   O18   A    
C7    C26   S    
C14   H22   S    
C4    C5    S    
H11   C21   S    
O15   C27   A    
O16   C28   A    
C15   H15   S    
O11   C27   A    
C16   C18   S    
C9    C11   S    
O6    V2    S    
C10   C12   S    
C24   H18   S    
O11   V4    S    
C1    C20   S    
O20   V3    S    
C11   H7    S    
C8    C25   S    
C12   H8    S    
O4    C2    A    
C2    C19   S    
C15   H13   S    
O5    V1    S    
C23   H19   S    
C16   C24   S    
H9    C13   S    
C23   H17   S    
O14   C26   A    
O4    V2    S    
O5    C3    A    
C13   C21   S    
C20   C24   S    
O6    C4    A    
O14   V4    S    
O12   C28   A    
O1    V2    S    
O2    V1    S    
C17   C28   S    
C9    C17   S    
C9    H1    S    
O18   V4    S    
O19   V4    S    
C10   H2    S    
O12   V3    S    
O15   V3    S    
O3    V1    S    
C11   C19   S    
C9    H3    S    
C12   C20   S    
H10   C14   S    
O3    C1    A    
C19   C23   S    
C14   C22   S    
O16   V4    S    
C21   H23   S    
C22   H24   S    
C12   H6    S    
O7    V1    S    
C1    O8    A    
O8    V2    S    
C10   C18   S    
O13   V3    S    
C20   C22   S    
C18   C27   S    
C5    C7    T    
O17   V3    S    
C6    C8    T    
C13   C17   S    
C16   H14   S    
C15   C17   S    
C10   H4    S    
O9    V2    S    
O10   V1    S    
C13   H21   S    
C24   H20   S    
