data_mof_unit_28882.cif
_audit_creation_date              2013-03-05T16:11:14-0500
_audit_creation_method            fapswitch 2.2
_symmetry_space_group_name_H-M    P1
_symmetry_Int_Tables_number       1
_space_group_crystal_system       triclinic
_cell_length_a                    6.952804
_cell_length_b                    20.525733
_cell_length_c                    24.502403
_cell_angle_alpha                 90.109578
_cell_angle_beta                  90.526808
_cell_angle_gamma                 89.558389
_cell_volume                      3496.51460132

loop_
_atom_site_label
_atom_site_type_symbol
_atom_site_description
_atom_site_fract_x
_atom_site_fract_y
_atom_site_fract_z
_atom_type_partial_charge
O1    O     O_R   0.507280 0.423750 0.460310 -0.594569
O2    O     O_R   0.171030 0.555650 0.437630 -0.583684
O3    O     O_R   0.004080 0.576250 0.539690 -0.568964
C1    C     C_R   0.339070 0.575682 0.421810 0.971076
O4    O     O_R   0.177330 0.422980 0.453960 -0.593338
O5    O     O_R   0.010420 0.442640 0.556140 -0.581748
C2    C     C_R   0.346003 0.399139 0.443091 0.923033
O6    O     O_R   0.500930 0.557360 0.443860 -0.593865
O7    O     O_3   0.340310 0.506600 0.533500 -0.244189
V1    V     V_3+5 0.064140 0.498780 0.493780 1.219989
O8    O     O_R   0.680890 0.444350 0.562370 -0.582909
C3    C     C_R   0.850604 0.424489 0.578192 0.991914
O9    O     O_R   0.674590 0.577020 0.546040 -0.589487
C4    C     C_R   0.842925 0.600657 0.557098 1.031113
V2    V     V_3+5 0.564550 0.501220 0.506220 1.220953
O10   O     O_3   0.838250 0.493400 0.466500 -0.280779
C5    C     C_R   0.971558 0.838286 0.911257 -0.108138
C6    C     C_R   0.846592 0.661034 0.590013 -0.247419
C7    C     C_R   0.976534 0.720712 0.908835 -0.035543
C8    C     C_R   0.991629 0.778752 0.937906 -0.172019
C9    C     C_R   0.942536 0.839627 0.854508 -0.194885
C10   C     C_R   0.926677 0.781007 0.823558 0.087576
C11   C     C_R   0.938574 0.720737 0.852181 -0.034169
C12   C     C_R   0.897883 0.780247 0.765448 0.067616
C13   C     C_R   0.895702 0.719676 0.736499 0.049806
C14   C     C_R   0.887976 0.662071 0.767211 -0.212723
C15   C     C_R   0.910567 0.661632 0.823837 0.288692
C16   C     C_R   0.861908 0.837722 0.735582 -0.189185
C17   C     C_R   0.816244 0.835730 0.680353 -0.119036
C18   C     C_R   0.818822 0.777023 0.651183 0.016194
C19   C     C_R   0.877055 0.718569 0.678004 0.021093
C20   C     C_R   0.763559 0.775676 0.595597 0.356425
C21   C     C_R   0.769241 0.717388 0.566625 -0.252503
C22   C     C_R   0.911733 0.662019 0.644821 0.228122
H1    H     H_    0.718439 0.716485 0.524667 0.167200
H2    H     H_    0.779902 0.881363 0.660686 0.178452
H3    H     H_    0.995761 0.675814 0.931306 0.181226
H4    H     H_    0.017778 0.777194 0.981555 0.126890
H5    H     H_    0.935137 0.887124 0.835966 0.092010
H6    H     H_    0.847791 0.616773 0.748068 0.213845
H7    H     H_    0.856482 0.885197 0.754255 0.127490
H8    H     H_    0.651244 0.242016 0.819266 0.169841
C23   C     C_R   0.745459 0.290501 0.746303 0.344933
C24   C     C_R   0.891513 0.295721 0.707018 0.039911
C25   C     C_R   0.055358 0.255579 0.711839 -0.149428
H9    H     H_    0.169261 0.258736 0.682104 0.157382
C26   C     C_R   0.074074 0.211033 0.755050 -0.132101
H10   H     H_    0.202031 0.180737 0.757942 0.134435
C27   C     C_R   0.928741 0.205655 0.794095 0.112283
C28   C     C_R   0.764628 0.245625 0.789405 -0.213565
C29   C     C_1   0.875450 0.341568 0.661754 0.109998
C30   C     C_1   0.947411 0.159327 0.838861 0.034904
C31   C     C_1   0.960966 0.120912 0.876466 -0.280935
C32   C     C_1   0.863076 0.379555 0.623824 -0.223918
H11   H     H_    0.657976 0.741296 0.323772 0.189272
C33   C     C_R   0.576268 0.789563 0.248901 0.384169
C34   C     C_R   0.437812 0.795111 0.206745 -0.019951
C35   C     C_R   0.274156 0.755416 0.208528 -0.211600
H12   H     H_    0.166107 0.759092 0.176509 0.186409
C36   C     C_R   0.247810 0.710830 0.251381 0.385517
C37   C     C_R   0.386287 0.705271 0.293529 -0.021418
C38   C     C_R   0.549923 0.744976 0.291754 -0.205804
C39   C     C_1   0.460382 0.841131 0.161742 0.147203
C40   C     C_1   0.363798 0.659196 0.338495 0.151243
C41   C     C_1   0.348939 0.620977 0.376220 -0.248779
C42   C     C_1   0.475282 0.879279 0.123967 -0.254810
C43   C     C_R   0.473510 0.161689 0.089265 -0.162281
C44   C     C_R   0.350600 0.338279 0.410884 -0.111192
C45   C     C_R   0.527949 0.278228 0.093607 0.396917
C46   C     C_R   0.515451 0.220252 0.063754 -0.250982
C47   C     C_R   0.434790 0.161149 0.145293 -0.185529
C48   C     C_R   0.447216 0.218953 0.177489 0.108660
C49   C     C_R   0.511538 0.276922 0.151569 -0.170221
C50   C     C_R   0.401677 0.220555 0.234637 0.045678
C51   C     C_R   0.433172 0.278422 0.265915 0.022421
C52   C     C_R   0.520631 0.331480 0.239992 -0.269822
C53   C     C_R   0.562622 0.331097 0.184394 0.357029
C54   C     C_R   0.320510 0.166507 0.261041 -0.271292
C55   C     C_R   0.275047 0.167392 0.316372 0.315268
C56   C     C_R   0.308740 0.223830 0.347822 -0.022097
C57   C     C_R   0.383125 0.280721 0.322713 0.118037
C58   C     C_R   0.269113 0.224352 0.404173 -0.059093
C59   C     C_R   0.287959 0.280936 0.434973 -0.177137
C60   C     C_R   0.399676 0.338206 0.355359 -0.185983
H13   H     H_    0.441429 0.384387 0.338513 0.113631
H14   H     H_    0.250156 0.280252 0.477780 0.117024
H15   H     H_    0.534818 0.220972 0.019910 0.158916
H16   H     H_    0.404102 0.114287 0.162774 0.117145
H17   H     H_    0.567827 0.373432 0.262738 0.169566
H18   H     H_    0.282788 0.122866 0.239138 0.173733
H19   H     H_    0.221600 0.181113 0.425086 0.172972
O11   O     O_R   0.323320 0.942780 0.056240 -0.588456
O12   O     O_R   0.647300 0.077050 0.046060 -0.586630
O13   O     O_R   0.813840 0.057330 0.943840 -0.590134
C61   C     C_R   0.478671 0.100884 0.057022 0.962799
O14   O     O_R   0.653250 0.944380 0.062400 -0.580318
O15   O     O_R   0.819830 0.923720 0.960300 -0.589604
C62   C     C_R   0.485179 0.924464 0.078299 0.972697
O16   O     O_R   0.317330 0.076390 0.039790 -0.586437
O17   O     O_3   0.483830 0.993470 0.966560 -0.276931
V3    V     V_3+5 0.760140 0.001210 0.006210 1.194152
O18   O     O_R   0.149290 0.922840 0.953850 -0.592259
C63   C     C_R   0.980663 0.899010 0.943254 0.924015
O19   O     O_R   0.143340 0.055500 0.937510 -0.591695
C64   C     C_R   0.973646 0.075562 0.921827 0.981072
V4    V     V_3+5 0.259690 0.998600 0.993650 1.184856
O20   O     O_3   0.986130 0.006520 0.033440 -0.263848
N1    N     N_R   0.895617 0.600513 0.851989 0.249108
O21   O     O_R   0.973659 0.548281 0.831347 -0.285709
O22   O     O_R   0.775690 0.594532 0.892106 -0.333547
Br1   Br    Br    0.668886 0.851094 0.557038 -0.472868
Br2   Br    Br    0.517944 0.343813 0.742598 -0.462482
Br3   Br    Br    0.803263 0.842090 0.249500 -0.466019
Br4   Br    Br    0.020812 0.658303 0.250783 -0.465369
N2    N     N_R   0.677928 0.383190 0.163679 0.262427
O23   O     O_R   0.644766 0.442940 0.179017 -0.302046
O24   O     O_R   0.835953 0.369860 0.137717 -0.325022
Br5   Br    Br    0.081261 0.591570 0.667510 -0.482343
N3    N     N_R   0.185808 0.110864 0.339272 0.240820
O25   O     O_R   0.019270 0.116271 0.362739 -0.370996
O26   O     O_R   0.251601 0.053032 0.327561 -0.324086
N4    N     N_R   0.540627 0.338280 0.063838 0.263848
O27   O     O_R   0.643360 0.341183 0.019785 -0.306036
O28   O     O_R   0.423481 0.386163 0.074937 -0.281075

loop_
_geom_bond_atom_site_label_1
_geom_bond_atom_site_label_2
_geom_bond_distance
_ccdc_geom_bond_type
V3    O20   1.705577 S    
O13   C64   1.297580 A    
C22   Br5   1.937553 S    
C20   Br1   1.923712 S    
C4    C6    1.477563 S    
C36   Br4   1.918158 S    
C7    C8    1.391005 A    
C1    O6    1.297257 A    
O19   V4    1.970211 S    
O11   C62   1.297307 A    
C26   C27   1.403002 A    
C25   H9    1.083411 S    
C54   H18   1.076279 S    
C17   H2    1.081314 S    
C14   C15   1.394921 A    
C15   N1    1.437736 S    
C16   C17   1.387732 A    
C45   C46   1.398505 A    
O5    C3    1.297558 A    
C1    C41   1.457151 S    
C56   C57   1.423898 A    
C61   O16   1.299462 A    
V4    O20   2.150192 S    
C35   C36   1.408320 A    
N2    O23   1.301527 A    
H11   C38   1.083555 S    
C16   H7    1.076297 S    
C5    C8    1.392059 A    
N1    O21   1.301410 A    
C7    H3    1.081216 S    
C2    C44   1.476618 S    
O8    V2    1.969991 S    
C60   H13   1.077535 S    
O13   V3    1.955909 S    
N2    O24   1.301632 A    
C55   N3    1.437375 S    
C33   Br3   1.918134 S    
C45   C49   1.426156 A    
O1    V2    1.986744 S    
C11   C15   1.410653 A    
O7    V1    2.151683 S    
C43   C47   1.401490 A    
C52   H17   1.076532 S    
C25   C26   1.404751 A    
C39   C42   1.219141 T    
O12   C61   1.297128 A    
O9    C4    1.296560 A    
C43   C61   1.476193 S    
O18   C63   1.297691 A    
C46   H15   1.084060 S    
O19   C64   1.301558 A    
C34   C39   1.463646 S    
N3    O26   1.301323 A    
C50   C51   1.429511 A    
C44   C60   1.405663 A    
O14   V3    1.961342 S    
C52   C53   1.395840 A    
C48   C50   1.438721 A    
O12   V3    1.995394 S    
O4    C2    1.296964 A    
C54   C55   1.394986 A    
C51   C57   1.438240 A    
C13   C14   1.404396 A    
C5    C9    1.403508 A    
C58   H19   1.081093 S    
C55   C56   1.410007 A    
O14   C62   1.304127 A    
C36   C37   1.409618 A    
C37   C40   1.463621 S    
O2    C1    1.304109 A    
C51   C52   1.406849 A    
C17   C18   1.399929 A    
C8    H4    1.083691 S    
C26   H10   1.083363 S    
C9    H5    1.077046 S    
N3    O25   1.301424 A    
C27   C30   1.457272 S    
C19   C22   1.436027 A    
C12   C13   1.430305 A    
C6    C22   1.413454 A    
O15   C63   1.296600 A    
O3    C4    1.299113 A    
H8    C28   1.083518 S    
C24   C29   1.458831 S    
C56   C58   1.410429 A    
C27   C28   1.404212 A    
O6    V2    1.960774 S    
O9    V2    1.989173 S    
C23   C24   1.410429 A    
C33   C38   1.408342 A    
C35   H12   1.083552 S    
C23   Br2   1.918086 S    
N4    O28   1.301550 A    
O2    V1    1.961144 S    
C57   C60   1.429016 A    
C30   C31   1.216407 T    
C7    C11   1.410647 A    
O11   V4    1.961336 S    
C33   C34   1.409634 A    
O16   V4    1.995697 S    
O1    C2    1.299911 A    
C44   C59   1.392392 A    
C13   C19   1.438101 A    
C24   C25   1.404997 A    
C12   C16   1.408977 A    
C48   C49   1.426676 A    
O5    V1    1.955987 S    
O8    C3    1.301400 A    
C23   C28   1.407401 A    
C53   N2    1.437501 S    
O17   V4    1.701915 S    
C29   C32   1.216270 T    
C20   C21   1.390467 A    
C42   C62   1.457194 S    
C5    C63   1.472670 S    
C47   C48   1.426266 A    
O3    V1    1.989939 S    
V1    O10   1.705509 S    
C40   C41   1.219120 T    
C18   C20   1.412042 A    
C14   H6    1.078186 S    
C34   C35   1.405647 A    
C18   C19   1.423356 A    
C45   N4    1.437160 S    
O17   V3    2.151655 S    
C21   H1    1.084138 S    
N1    O22   1.301402 A    
O18   V4    1.989256 S    
C10   C12   1.436093 A    
O7    V2    1.704699 S    
C37   C38   1.405651 A    
C6    C21   1.393876 A    
C3    C32   1.452321 S    
C47   H16   1.077313 S    
C31   C64   1.452750 S    
O4    V1    1.995348 S    
C59   H14   1.083778 S    
C58   C59   1.390249 A    
C50   C54   1.409560 A    
C49   C53   1.416672 A    
C10   C11   1.424691 A    
C43   C46   1.390080 A    
N4    O27   1.301507 A    
C9    C10   1.425478 A    
O15   V3    1.989732 S    
V2    O10   2.150125 S    
