data_mof_unit_65072.cif
_audit_creation_date              2012-12-10T17:41:57-0500
_audit_creation_method            fapswitch 2.2
_symmetry_space_group_name_H-M    P1
_symmetry_Int_Tables_number       1
_space_group_crystal_system       orthorhombic
_cell_length_a                    30.40511
_cell_length_b                    30.405107
_cell_length_c                    23.676208
_cell_angle_alpha                 90.0
_cell_angle_beta                  90.0
_cell_angle_gamma                 90.0
_cell_volume                      21887.9587576

loop_
_atom_site_label
_atom_site_type_symbol
_atom_type_description
_atom_site_fract_x
_atom_site_fract_y
_atom_site_fract_z
_atom_type_partial_charge
C1    C     C_R   0.584919 0.000000 0.500000 0.796429
C2    C     C_R   0.000000 0.584919 0.500000 0.796430
C3    C     C_R   0.415081 0.000000 0.500000 0.796431
C4    C     C_R   0.000000 0.415081 0.500000 0.796430
C5    C     C_R   0.084919 0.500000 1.000000 0.796430
C6    C     C_R   0.500000 0.084919 0.000000 0.796431
C7    C     C_R   0.915081 0.500000 0.000000 0.796431
C8    C     C_R   0.500000 0.915081 0.000000 0.796431
C9    C     C_R   0.843031 0.027807 0.537380 -0.059403
C10   C     C_R   0.972195 0.843030 0.537381 -0.059403
C11   C     C_R   0.156969 0.972195 0.537382 -0.059404
C12   C     C_R   0.027806 0.156969 0.537380 -0.059403
C13   C     C_R   0.156969 0.027805 0.462618 -0.059403
C14   C     C_R   0.027805 0.843030 0.462619 -0.059403
C15   C     C_R   0.843031 0.972194 0.462620 -0.059403
C16   C     C_R   0.972194 0.156969 0.462620 -0.059402
C17   C     C_R   0.343031 0.527805 0.037380 -0.059403
C18   C     C_R   0.472195 0.343030 0.037381 -0.059403
C19   C     C_R   0.656969 0.472196 0.037382 -0.059404
C20   C     C_R   0.527804 0.656969 0.037382 -0.059404
C21   C     C_R   0.656969 0.527804 0.962618 -0.059404
C22   C     C_R   0.527805 0.343030 0.962618 -0.059404
C23   C     C_R   0.343031 0.472194 0.962619 -0.059403
C24   C     C_R   0.472195 0.656969 0.962618 -0.059403
C25   C     C_R   0.866216 1.000000 0.500000 -0.174765
C26   C     C_R   1.000000 0.866216 0.500000 -0.174767
C27   C     C_R   0.133784 0.000000 0.500000 -0.174768
C28   C     C_R   1.000000 0.133784 0.500000 -0.174766
C29   C     C_R   0.366216 0.500000 0.000000 -0.174768
C30   C     C_R   0.500000 0.366216 1.000000 -0.174768
C31   C     C_R   0.633784 0.500000 0.000000 -0.174769
C32   C     C_R   0.500000 0.633784 0.000000 -0.174769
C33   C     C_R   0.773658 0.000000 0.500000 0.020282
C34   C     C_R   1.000000 0.773658 0.500000 0.020282
C35   C     C_R   0.226342 1.000000 0.500000 0.020283
C36   C     C_R   1.000000 0.226342 0.500000 0.020283
C37   C     C_R   0.273658 0.500000 1.000000 0.020284
C38   C     C_R   0.500000 0.273658 1.000000 0.020284
C39   C     C_R   0.726342 0.500000 1.000000 0.020283
C40   C     C_R   0.500000 0.726342 1.000000 0.020283
C41   C     C_R   1.000000 0.914814 0.500000 0.811729
C42   C     C_R   0.085186 0.000000 0.500000 0.811728
C43   C     C_R   0.000000 0.085186 0.500000 0.811730
C44   C     C_R   0.914814 0.000000 0.500000 0.811731
C45   C     C_R   0.500000 0.414814 0.000000 0.811729
C46   C     C_R   0.585186 0.500000 0.000000 0.811727
C47   C     C_R   0.500000 0.585186 0.000000 0.811728
C48   C     C_R   0.414814 0.500000 0.000000 0.811729
C49   C     C_R   0.500000 1.000000 0.608138 0.815195
C50   C     C_R   0.000000 0.500000 0.608138 0.815195
C51   C     C_R   0.500000 0.000000 0.391862 0.815196
C52   C     C_R   0.000000 0.500000 0.391862 0.815195
C53   C     C_R   1.000000 0.500000 0.108138 0.815195
C54   C     C_R   0.500000 0.000000 0.108138 0.815195
C55   C     C_R   1.000000 0.500000 0.891862 0.815196
C56   C     C_R   0.500000 0.000000 0.891862 0.815196
C57   C     C_1   0.500000 1.000000 0.668996 -0.166868
C58   C     C_1   0.000000 0.500000 0.668996 -0.166868
C59   C     C_1   0.500000 0.000000 0.331004 -0.166868
C60   C     C_1   0.000000 0.500000 0.331004 -0.166868
C61   C     C_1   1.000000 0.500000 0.168996 -0.166868
C62   C     C_1   0.500000 1.000000 0.168996 -0.166868
C63   C     C_1   0.000000 0.500000 0.831004 -0.166868
C64   C     C_1   0.500000 0.000000 0.831004 -0.166868
C65   C     C_1   0.500000 0.000000 0.720063 0.011250
C66   C     C_1   0.000000 0.500000 0.720063 0.011250
C67   C     C_1   0.500000 0.000000 0.279937 0.011250
C68   C     C_1   1.000000 0.500000 0.279937 0.011250
C69   C     C_1   1.000000 0.500000 0.220063 0.011250
C70   C     C_1   0.500000 1.000000 0.220063 0.011250
C71   C     C_1   0.000000 0.500000 0.779937 0.011250
C72   C     C_1   0.500000 0.000000 0.779937 0.011250
C73   C     C_R   0.701759 0.029313 0.464755 -0.010795
C74   C     C_R   0.970685 0.701759 0.464757 -0.010795
C75   C     C_R   0.298241 0.970684 0.464758 -0.010795
C76   C     C_R   0.029314 0.298241 0.464756 -0.010794
C77   C     C_R   0.298241 0.029315 0.535242 -0.010795
C78   C     C_R   0.029315 0.701759 0.535243 -0.010795
C79   C     C_R   0.701759 0.970687 0.535245 -0.010794
C80   C     C_R   0.970686 0.298241 0.535244 -0.010794
C81   C     C_R   0.201759 0.529314 0.964757 -0.010794
C82   C     C_R   0.470685 0.201759 0.964758 -0.010795
C83   C     C_R   0.798241 0.470684 0.964758 -0.010795
C84   C     C_R   0.529316 0.798241 0.964758 -0.010795
C85   C     C_R   0.798241 0.529316 0.035242 -0.010795
C86   C     C_R   0.529315 0.201759 0.035242 -0.010795
C87   C     C_R   0.201759 0.470686 0.035243 -0.010794
C88   C     C_R   0.470684 0.798241 0.035242 -0.010795
C89   C     C_R   0.655877 0.029645 0.465729 -0.221450
C90   C     C_R   0.970353 0.655877 0.465731 -0.221450
C91   C     C_R   0.344123 0.970353 0.465732 -0.221450
C92   C     C_R   0.029645 0.344123 0.465730 -0.221450
C93   C     C_R   0.344123 0.029647 0.534268 -0.221450
C94   C     C_R   0.029646 0.655877 0.534269 -0.221450
C95   C     C_R   0.655877 0.970355 0.534271 -0.221451
C96   C     C_R   0.970355 0.344123 0.534270 -0.221451
C97   C     C_R   0.155877 0.529646 0.965730 -0.221451
C98   C     C_R   0.470353 0.155877 0.965732 -0.221450
C99   C     C_R   0.844123 0.470353 0.965732 -0.221451
C100  C     C_R   0.529647 0.844123 0.965732 -0.221451
C101  C     C_R   0.844123 0.529647 0.034268 -0.221450
C102  C     C_R   0.529647 0.155877 0.034268 -0.221451
C103  C     C_R   0.155877 0.470354 0.034269 -0.221450
C104  C     C_R   0.470353 0.844123 0.034268 -0.221450
C105  C     C_R   0.632922 1.000000 0.500000 -0.046740
C106  C     C_R   0.000000 0.632922 0.500000 -0.046741
C107  C     C_R   0.367078 0.000000 0.500000 -0.046742
C108  C     C_R   1.000000 0.367078 0.500000 -0.046740
C109  C     C_R   0.132922 0.500000 1.000000 -0.046741
C110  C     C_R   0.500000 0.132922 1.000000 -0.046742
C111  C     C_R   0.867078 0.500000 0.000000 -0.046742
C112  C     C_R   0.500000 0.867078 0.000000 -0.046742
C113  C     C_R   0.725018 1.000000 0.500000 0.008847
C114  C     C_R   1.000000 0.725018 0.500000 0.008848
C115  C     C_R   0.274982 1.000000 0.500000 0.008848
C116  C     C_R   1.000000 0.274982 0.500000 0.008846
C117  C     C_R   0.225018 0.500000 1.000000 0.008846
C118  C     C_R   0.500000 0.225018 1.000000 0.008847
C119  C     C_R   0.774982 0.500000 0.000000 0.008848
C120  C     C_R   0.500000 0.774982 1.000000 0.008848
C121  C     C_R   0.796642 0.027438 0.538370 0.116583
C122  C     C_R   0.972564 0.796642 0.538372 0.116583
C123  C     C_R   0.203358 0.972564 0.538373 0.116583
C124  C     C_R   0.027437 0.203358 0.538370 0.116584
C125  C     C_R   0.203358 0.027436 0.461627 0.116583
C126  C     C_R   0.027436 0.796642 0.461628 0.116583
C127  C     C_R   0.796642 0.972562 0.461630 0.116584
C128  C     C_R   0.972562 0.203358 0.461630 0.116584
C129  C     C_R   0.296642 0.527437 0.038371 0.116584
C130  C     C_R   0.472564 0.296642 0.038372 0.116583
C131  C     C_R   0.703358 0.472564 0.038373 0.116583
C132  C     C_R   0.527435 0.703358 0.038373 0.116583
C133  C     C_R   0.703358 0.527435 0.961627 0.116583
C134  C     C_R   0.527436 0.296642 0.961628 0.116583
C135  C     C_R   0.296642 0.472563 0.961629 0.116584
C136  C     C_R   0.472564 0.703358 0.961627 0.116583
Cu1   Cu    Cu3+1 0.500000 0.044070 0.500000 0.976149
Cu2   Cu    Cu3+1 0.955930 0.500000 0.500000 0.976149
Cu3   Cu    Cu3+1 0.500000 0.955930 0.500000 0.976149
Cu4   Cu    Cu3+1 0.044070 0.500000 0.500000 0.976149
Cu5   Cu    Cu3+1 0.000000 0.544070 0.000000 0.976149
Cu6   Cu    Cu3+1 0.455930 0.000000 0.000000 0.976149
Cu7   Cu    Cu3+1 0.000000 0.455930 0.000000 0.976149
Cu8   Cu    Cu3+1 0.544070 0.000000 0.000000 0.976149
Cu9   Cu    Cu3+1 0.000000 1.000000 0.555800 1.036460
Cu10  Cu    Cu3+1 0.000000 1.000000 0.444200 1.036460
Cu11  Cu    Cu3+1 0.500000 0.500000 0.055800 1.036461
Cu12  Cu    Cu3+1 0.500000 0.500000 0.944200 1.036461
H1    H     H_    0.637965 0.052270 0.438792 0.153037
H2    H     H_    0.947728 0.637965 0.438795 0.153039
H3    H     H_    0.362035 0.947727 0.438797 0.153040
H4    H     H_    0.052270 0.362035 0.438793 0.153038
H5    H     H_    0.362035 0.052273 0.561203 0.153040
H6    H     H_    0.052272 0.637965 0.561205 0.153039
H7    H     H_    0.637965 0.947730 0.561208 0.153038
H8    H     H_    0.947730 0.362035 0.561207 0.153038
H9    H     H_    0.137965 0.552271 0.938794 0.153039
H10   H     H_    0.447727 0.137965 0.938796 0.153040
H11   H     H_    0.862035 0.447726 0.938797 0.153041
H12   H     H_    0.552273 0.862035 0.938797 0.153040
H13   H     H_    0.862035 0.552274 0.061203 0.153040
H14   H     H_    0.552273 0.137965 0.061204 0.153040
H15   H     H_    0.137965 0.447729 0.061206 0.153039
H16   H     H_    0.447726 0.862035 0.061203 0.153040
O1    O     O_R   0.564260 0.037220 0.500020 -0.582571
O2    O     O_R   0.962780 0.564260 0.500020 -0.582571
O3    O     O_R   0.435740 0.962780 0.500020 -0.582571
O4    O     O_R   0.037220 0.435740 0.500020 -0.582571
O5    O     O_R   0.435740 0.037220 0.499980 -0.582572
O6    O     O_R   0.037220 0.564260 0.499980 -0.582571
O7    O     O_R   0.564260 0.962780 0.499980 -0.582570
O8    O     O_R   0.962780 0.435740 0.499980 -0.582570
O9    O     O_R   0.064260 0.537220 0.000020 -0.582571
O10   O     O_R   0.462780 0.064260 0.000020 -0.582571
O11   O     O_R   0.935740 0.462780 0.000020 -0.582571
O12   O     O_R   0.537220 0.935740 0.000020 -0.582572
O13   O     O_R   0.935740 0.537220 0.999980 -0.582572
O14   O     O_R   0.537220 0.064260 0.999980 -0.582572
O15   O     O_R   0.064260 0.462780 0.999980 -0.582571
O16   O     O_R   0.462780 0.935740 0.999980 -0.582571
O17   O     O_R   0.499990 0.037220 0.581420 -0.576053
O18   O     O_R   0.962780 0.499990 0.581420 -0.576052
O19   O     O_R   0.500010 0.962780 0.581420 -0.576052
O20   O     O_R   0.037220 0.500010 0.581420 -0.576052
O21   O     O_R   0.500010 0.037220 0.418580 -0.576052
O22   O     O_R   0.037220 0.499990 0.418580 -0.576052
O23   O     O_R   0.499990 0.962780 0.418580 -0.576052
O24   O     O_R   0.962780 0.500010 0.418580 -0.576052
O25   O     O_R   0.999990 0.537220 0.081420 -0.576052
O26   O     O_R   0.462780 0.999990 0.081420 -0.576052
O27   O     O_R   0.000010 0.462780 0.081420 -0.576052
O28   O     O_R   0.537220 0.000010 0.081420 -0.576052
O29   O     O_R   0.000010 0.537220 0.918580 -0.576052
O30   O     O_R   0.537220 0.999990 0.918580 -0.576052
O31   O     O_R   0.999990 0.462780 0.918580 -0.576052
O32   O     O_R   0.462780 0.000010 0.918580 -0.576052
O33   O     O_R   0.999990 0.935770 0.547120 -0.571437
O34   O     O_R   0.064230 0.999990 0.547120 -0.571437
O35   O     O_R   0.000010 0.064230 0.547120 -0.571437
O36   O     O_R   0.935770 0.000010 0.547120 -0.571438
O37   O     O_R   0.000010 0.935770 0.452880 -0.571436
O38   O     O_R   0.935770 0.999990 0.452880 -0.571437
O39   O     O_R   0.999990 0.064230 0.452880 -0.571438
O40   O     O_R   0.064230 0.000010 0.452880 -0.571437
O41   O     O_R   0.499990 0.435770 0.047120 -0.571437
O42   O     O_R   0.564230 0.499990 0.047120 -0.571437
O43   O     O_R   0.500010 0.564230 0.047120 -0.571437
O44   O     O_R   0.435770 0.500010 0.047120 -0.571437
O45   O     O_R   0.500010 0.435770 0.952880 -0.571436
O46   O     O_R   0.435770 0.499990 0.952880 -0.571436
O47   O     O_R   0.499990 0.564230 0.952880 -0.571437
O48   O     O_R   0.564230 0.500010 0.952880 -0.571437
C137  C     C_1   0.724401 0.058651 0.426581 0.218605
N1    N     N_1   0.742601 0.082118 0.396013 -0.263651
C138  C     C_1   0.941346 0.724400 0.426584 0.218605
N2    N     N_1   0.917878 0.742601 0.396019 -0.263651
C139  C     C_1   0.275599 0.941345 0.426586 0.218605
N3    N     N_1   0.257399 0.917876 0.396021 -0.263652
C140  C     C_1   0.058651 0.275599 0.426582 0.218606
N4    N     N_1   0.082118 0.257399 0.396015 -0.263652
C141  C     C_1   0.275599 0.058655 0.573414 0.218604
N5    N     N_1   0.257399 0.082124 0.603979 -0.263651
C142  C     C_1   0.058654 0.724401 0.573415 0.218605
N6    N     N_1   0.082122 0.742601 0.603981 -0.263652
C143  C     C_1   0.724401 0.941349 0.573419 0.218605
N7    N     N_1   0.742601 0.917882 0.603986 -0.263651
C144  C     C_1   0.941349 0.275599 0.573418 0.218606
N8    N     N_1   0.917882 0.257399 0.603985 -0.263651
C145  C     C_1   0.224401 0.558652 0.926583 0.218605
N9    N     N_1   0.242601 0.582120 0.896017 -0.263652
C146  C     C_1   0.441346 0.224401 0.926586 0.218605
N10   N     N_1   0.417877 0.242601 0.896020 -0.263652
C147  C     C_1   0.775599 0.441345 0.926587 0.218605
N11   N     N_1   0.757399 0.417876 0.896022 -0.263651
C148  C     C_1   0.558655 0.775599 0.926587 0.218605
N12   N     N_1   0.582124 0.757399 0.896022 -0.263652
C149  C     C_1   0.775599 0.558655 0.073413 0.218605
N13   N     N_1   0.757399 0.582124 0.103978 -0.263652
C150  C     C_1   0.558654 0.224401 0.073414 0.218605
N14   N     N_1   0.582123 0.242601 0.103979 -0.263652
C151  C     C_1   0.224401 0.441348 0.073417 0.218606
N15   N     N_1   0.242601 0.417880 0.103983 -0.263652
C152  C     C_1   0.441345 0.775599 0.073413 0.218604
N16   N     N_1   0.417876 0.757399 0.103978 -0.263651
C153  C     C_3   0.772011 0.056008 0.580982 -0.400113
C154  C     C_3   0.768279 0.103607 0.560944 -0.773200
H17   H     H_    0.751718 0.123564 0.593958 0.243804
H18   H     H_    0.748434 0.105470 0.521766 0.256524
H19   H     H_    0.801213 0.117983 0.552787 0.257767
H20   H     H_    0.738471 0.043439 0.589698 0.210372
H21   H     H_    0.789018 0.055119 0.622503 0.212276
C155  C     C_3   0.943995 0.772011 0.580986 -0.400113
C156  C     C_3   0.896395 0.768278 0.560951 -0.773201
H22   H     H_    0.882019 0.801212 0.552795 0.257767
H23   H     H_    0.894531 0.748433 0.521773 0.256523
H24   H     H_    0.876440 0.751717 0.593966 0.243804
H25   H     H_    0.956565 0.738471 0.589701 0.210372
H26   H     H_    0.944886 0.789018 0.622506 0.212276
C157  C     C_3   0.227989 0.943997 0.580988 -0.400115
C158  C     C_3   0.231722 0.896396 0.560954 -0.773203
H27   H     H_    0.198788 0.882020 0.552798 0.257768
H28   H     H_    0.251567 0.894531 0.521776 0.256524
H29   H     H_    0.248283 0.876442 0.593970 0.243804
H30   H     H_    0.261529 0.956567 0.589703 0.210373
H31   H     H_    0.210982 0.944888 0.622508 0.212276
C159  C     C_3   0.056007 0.227989 0.580983 -0.400115
C160  C     C_3   0.103607 0.231721 0.560945 -0.773202
H32   H     H_    0.123562 0.248283 0.593960 0.243804
H33   H     H_    0.105469 0.251566 0.521768 0.256524
H34   H     H_    0.117982 0.198787 0.552789 0.257767
H35   H     H_    0.043438 0.261529 0.589699 0.210373
H36   H     H_    0.055118 0.210982 0.622504 0.212277
C161  C     C_3   0.227989 0.056003 0.419012 -0.400114
C162  C     C_3   0.231722 0.103604 0.439046 -0.773200
H37   H     H_    0.198788 0.117980 0.447202 0.257767
H38   H     H_    0.251567 0.105469 0.478223 0.256523
H39   H     H_    0.248283 0.123558 0.406030 0.243803
H40   H     H_    0.261529 0.043433 0.410297 0.210373
H41   H     H_    0.210982 0.055112 0.377492 0.212276
C163  C     C_3   0.056004 0.772011 0.419014 -0.400113
C164  C     C_3   0.103605 0.768278 0.439049 -0.773201
H42   H     H_    0.105469 0.748433 0.478226 0.256524
H43   H     H_    0.123559 0.751717 0.406033 0.243804
H44   H     H_    0.117981 0.801212 0.447205 0.257767
H45   H     H_    0.043435 0.738471 0.410299 0.210373
H46   H     H_    0.055114 0.789018 0.377493 0.212276
C165  C     C_3   0.772011 0.943992 0.419017 -0.400114
C166  C     C_3   0.768278 0.896393 0.439056 -0.773201
H47   H     H_    0.751717 0.876437 0.406042 0.243804
H48   H     H_    0.748433 0.894530 0.478234 0.256524
H49   H     H_    0.801212 0.882017 0.447213 0.257767
H50   H     H_    0.738471 0.956561 0.410302 0.210373
H51   H     H_    0.789017 0.944881 0.377497 0.212276
C167  C     C_3   0.943993 0.227989 0.419017 -0.400115
C168  C     C_3   0.896393 0.231721 0.439055 -0.773203
H52   H     H_    0.876438 0.248283 0.406040 0.243804
H53   H     H_    0.894530 0.251566 0.478233 0.256524
H54   H     H_    0.882018 0.198787 0.447211 0.257767
H55   H     H_    0.956562 0.261529 0.410301 0.210373
H56   H     H_    0.944882 0.210982 0.377496 0.212276
C169  C     C_3   0.272011 0.556006 0.080984 -0.400117
C170  C     C_3   0.268279 0.603606 0.060948 -0.773205
H57   H     H_    0.251717 0.623560 0.093962 0.243805
H58   H     H_    0.248434 0.605469 0.021770 0.256525
H59   H     H_    0.301213 0.617981 0.052792 0.257767
H60   H     H_    0.238471 0.543436 0.089699 0.210374
H61   H     H_    0.289017 0.555116 0.122505 0.212277
C171  C     C_3   0.443996 0.272011 0.080987 -0.400117
C172  C     C_3   0.396396 0.268278 0.060952 -0.773202
H62   H     H_    0.382020 0.301212 0.052797 0.257767
H63   H     H_    0.394531 0.248433 0.021775 0.256524
H64   H     H_    0.376442 0.251717 0.093968 0.243804
H65   H     H_    0.456566 0.238471 0.089702 0.210374
H66   H     H_    0.444887 0.289017 0.122507 0.212277
C173  C     C_3   0.727989 0.443997 0.080988 -0.400114
C174  C     C_3   0.731722 0.396397 0.060955 -0.773202
H67   H     H_    0.698788 0.382020 0.052799 0.257767
H68   H     H_    0.751567 0.394532 0.021778 0.256524
H69   H     H_    0.748283 0.376443 0.093971 0.243804
H70   H     H_    0.761529 0.456567 0.089703 0.210373
H71   H     H_    0.710982 0.444889 0.122509 0.212276
C175  C     C_3   0.556003 0.727989 0.080988 -0.400114
C176  C     C_3   0.603603 0.731722 0.060955 -0.773201
H72   H     H_    0.623557 0.748283 0.093971 0.243804
H73   H     H_    0.605468 0.751567 0.021777 0.256524
H74   H     H_    0.617980 0.698788 0.052799 0.257767
H75   H     H_    0.543433 0.761529 0.089703 0.210373
H76   H     H_    0.555111 0.710982 0.122508 0.212276
C177  C     C_3   0.727989 0.556002 0.919011 -0.400115
C178  C     C_3   0.731722 0.603603 0.939045 -0.773201
H77   H     H_    0.698788 0.617979 0.947201 0.257767
H78   H     H_    0.751567 0.605468 0.978222 0.256524
H79   H     H_    0.748283 0.623557 0.906029 0.243804
H80   H     H_    0.761529 0.543432 0.910297 0.210373
H81   H     H_    0.710982 0.555111 0.877491 0.212276
C179  C     C_3   0.556003 0.272011 0.919013 -0.400117
C180  C     C_3   0.603604 0.268278 0.939047 -0.773203
H82   H     H_    0.617980 0.301212 0.947203 0.257768
H83   H     H_    0.605468 0.248433 0.978225 0.256524
H84   H     H_    0.623558 0.251717 0.906031 0.243805
H85   H     H_    0.543434 0.238471 0.910298 0.210374
H86   H     H_    0.555113 0.289017 0.877493 0.212277
C181  C     C_3   0.272011 0.443994 0.919015 -0.400118
C182  C     C_3   0.268278 0.396395 0.939052 -0.773204
H87   H     H_    0.251717 0.376439 0.906037 0.243805
H88   H     H_    0.248433 0.394531 0.978229 0.256524
H89   H     H_    0.301212 0.382019 0.947209 0.257768
H90   H     H_    0.238471 0.456564 0.910300 0.210374
H91   H     H_    0.289018 0.444884 0.877495 0.212278
C183  C     C_3   0.443997 0.727989 0.919012 -0.400115
C184  C     C_3   0.396396 0.731722 0.939045 -0.773202
H92   H     H_    0.376443 0.748283 0.906029 0.243804
H93   H     H_    0.394531 0.751567 0.978223 0.256524
H94   H     H_    0.382020 0.698788 0.947201 0.257767
H95   H     H_    0.456567 0.761529 0.910297 0.210373
H96   H     H_    0.444888 0.710982 0.877492 0.212276
C185  C     C_1   0.866958 0.057782 0.573936 0.267289
N17   N     N_1   0.886041 0.081720 0.602998 -0.262456
C186  C     C_1   0.942221 0.866958 0.573939 0.267292
N18   N     N_1   0.918284 0.886040 0.603002 -0.262455
C187  C     C_1   0.133042 0.942222 0.573941 0.267293
N19   N     N_1   0.113960 0.918285 0.603004 -0.262455
C188  C     C_1   0.057781 0.133042 0.573937 0.267289
N20   N     N_1   0.081719 0.113959 0.602999 -0.262456
C189  C     C_1   0.133042 0.057778 0.426059 0.267293
N21   N     N_1   0.113960 0.081715 0.396996 -0.262455
C190  C     C_1   0.057779 0.866958 0.426061 0.267292
N22   N     N_1   0.081716 0.886040 0.396998 -0.262455
C191  C     C_1   0.866958 0.942218 0.426064 0.267289
N23   N     N_1   0.886041 0.918280 0.397002 -0.262456
C192  C     C_1   0.942219 0.133042 0.426063 0.267290
N24   N     N_1   0.918281 0.113959 0.397002 -0.262456
C193  C     C_1   0.366958 0.557780 0.073938 0.267291
N25   N     N_1   0.386040 0.581717 0.103000 -0.262456
C194  C     C_1   0.442221 0.366958 0.073940 0.267293
N26   N     N_1   0.418285 0.386040 0.103003 -0.262456
C195  C     C_1   0.633042 0.442222 0.073941 0.267294
N27   N     N_1   0.613960 0.418286 0.103005 -0.262455
C196  C     C_1   0.557778 0.633042 0.073941 0.267293
N28   N     N_1   0.581714 0.613960 0.103005 -0.262455
C197  C     C_1   0.633042 0.557778 0.926059 0.267294
N29   N     N_1   0.613960 0.581714 0.896995 -0.262455
C198  C     C_1   0.557778 0.366958 0.926060 0.267293
N30   N     N_1   0.581715 0.386040 0.896997 -0.262455
C199  C     C_1   0.366958 0.442220 0.926062 0.267291
N31   N     N_1   0.386040 0.418282 0.897000 -0.262456
C200  C     C_1   0.442222 0.633042 0.926059 0.267294
N32   N     N_1   0.418286 0.613960 0.896995 -0.262455

loop_
_geom_bond_atom_site_label_1
_geom_bond_atom_site_label_2
_ccdc_geom_bond_type
Cu5   O9    S    
C82   C146  S    
C185  N17   T    
C30   C45   S    
C142  N6    T    
Cu7   O11   S    
C153  H20   S    
Cu9   Cu10  S    
C155  H26   S    
C125  C161  S    
C169  C170  S    
C164  H44   S    
C128  C167  S    
C36   C124  A    
Cu9   O35   S    
Cu10  O37   S    
Cu12  O48   S    
C87   C151  S    
C74   C114  A    
C81   C117  A    
C7    O13   A    
C162  H37   S    
C83   C119  A    
Cu11  O41   S    
C163  H45   S    
C5    O15   A    
C80   C116  A    
C9    C121  A    
C177  H80   S    
C37   C135  A    
Cu3   O7    S    
C13   C125  A    
C96   C108  A    
C81   C145  S    
C153  C154  S    
C82   C98   A    
C20   C132  A    
C21   C133  A    
C180  H82   S    
C154  H18   S    
C178  H77   S    
C176  H72   S    
C84   C100  A    
C166  H49   S    
C127  C165  S    
C42   O34   A    
C84   C148  S    
C3    O5    A    
C6    O10   A    
C123  C157  S    
C1    O7    A    
C4    O4    A    
C174  H67   S    
C132  C175  S    
C138  N2    T    
C24   C32   A    
C145  N9    T    
C4    C108  S    
C8    O16   A    
C144  N8    T    
C11   C27   A    
C48   O44   A    
C14   C26   A    
Cu3   O3    S    
Cu2   Cu4   S    
C87   C103  A    
C41   O33   A    
C63   C71   T    
C197  N29   T    
C32   C47   S    
Cu6   Cu8   S    
C18   C130  A    
C75   C115  A    
C82   C118  A    
C198  N30   T    
C180  H84   S    
C23   C199  S    
C50   O20   A    
C179  C180  S    
C10   C122  A    
C104  H16   S    
C194  N26   T    
C134  C179  S    
C161  H40   S    
C14   C126  A    
C74   C90   A    
C93   H5    S    
C189  N21   T    
C96   H8    S    
C39   C131  A    
C78   C94   A    
C37   C129  A    
C38   C134  A    
C80   C144  S    
C183  C184  S    
Cu2   O18   S    
C171  H65   S    
C122  C155  S    
C37   C117  S    
C186  N18   T    
Cu7   O27   S    
C77   C115  A    
C192  N24   T    
C1    C105  S    
C155  C156  S    
C99   H11   S    
C42   O40   A    
Cu11  Cu12  S    
C90   H2    S    
C88   C152  S    
C184  H94   S    
C3    O3    A    
C168  H53   S    
C167  H56   S    
C21   C31   A    
C62   C70   T    
C173  H70   S    
Cu10  O39   S    
C54   O28   A    
C174  H69   S    
C157  H31   S    
C23   C29   A    
C159  H35   S    
C133  C177  S    
C156  H22   S    
C160  H34   S    
C15   C25   A    
Cu1   O17   S    
C75   C139  S    
C76   C140  S    
C21   C197  S    
C33   C127  A    
C49   C57   S    
C151  N15   T    
C35   C125  A    
C179  H86   S    
C52   C60   S    
C59   C67   T    
C53   C61   S    
C92   C108  A    
C175  H76   S    
C83   C147  S    
C31   C46   S    
C55   C63   S    
C12   C188  S    
C56   C64   S    
Cu7   O15   S    
C147  N11   T    
C75   C91   A    
C24   C136  A    
C34   C122  A    
C49   O19   A    
C149  N13   T    
C44   O38   A    
C183  H96   S    
C50   O18   A    
C52   O22   A    
C88   C104  A    
C143  N7    T    
C172  H63   S    
C170  H58   S    
C163  C164  S    
C9    C185  S    
C104  C112  A    
C139  N3    T    
C2    C106  S    
C45   O45   A    
C165  H51   S    
C176  H73   S    
C166  H48   S    
Cu2   O24   S    
C141  N5    T    
C97   C109  A    
C148  N12   T    
C99   C111  A    
Cu8   O12   S    
Cu5   O29   S    
C35   C115  S    
C56   O30   A    
C44   O36   A    
C79   C113  A    
C49   O17   A    
C86   C102  A    
C20   C32   A    
C46   O42   A    
C154  H17   S    
C54   O26   A    
C5    O9    A    
C182  H88   S    
C158  H27   S    
C11   C187  S    
C156  H24   S    
C160  H32   S    
C8    O12   A    
C164  H43   S    
C65   C72   S    
C33   C113  S    
Cu2   O2    S    
C67   C70   S    
Cu4   O22   S    
C35   C123  A    
Cu9   O34   S    
Cu10  O38   S    
Cu12  O45   S    
C27   C42   S    
C183  H95   S    
C39   C119  S    
C89   H1    S    
C8    C112  S    
C162  H38   S    
Cu11  O44   S    
C163  H46   S    
C182  H87   S    
C89   C105  A    
C165  H50   S    
C15   C127  A    
C40   C136  A    
C53   O25   A    
C154  H19   S    
C36   C116  S    
C16   C28   A    
C98   C110  A    
C74   C138  S    
C162  H39   S    
C17   C29   A    
C150  N14   T    
C19   C31   A    
Cu1   O1    S    
C9    C25   A    
C196  N28   T    
C137  N1    T    
Cu1   Cu3   S    
C129  C169  S    
Cu4   O20   S    
C178  H78   S    
C12   C28   A    
Cu5   O13   S    
C38   C130  A    
C87   C117  A    
C47   O47   A    
Cu5   Cu7   S    
C167  C168  S    
C152  N16   T    
Cu6   O26   S    
C16   C192  S    
C73   C113  A    
C174  H68   S    
C85   C101  A    
C56   O32   A    
C98   H10   S    
C68   C69   S    
C178  H79   S    
C188  N20   T    
C88   C120  A    
C22   C30   A    
C2    O2    A    
C121  C153  S    
C175  C176  S    
C153  H21   S    
C173  C174  S    
C83   C99   A    
C6    O14   A    
C24   C200  S    
C73   C137  S    
C78   C114  A    
C158  H29   S    
C180  H83   S    
C155  H25   S    
Cu1   O21   S    
Cu2   O8    S    
C50   C58   S    
Cu5   O25   S    
C90   C106  A    
Cu9   O36   S    
C157  H30   S    
Cu12  O47   S    
C140  N4    T    
Cu8   O28   S    
C135  C181  S    
Cu11  O42   S    
C79   C95   A    
C91   C107  A    
C66   C71   S    
C182  H89   S    
C102  H14   S    
Cu7   O31   S    
C86   C150  S    
C177  H81   S    
C86   C118  A    
C53   O27   A    
C171  H66   S    
C2    O6    A    
C40   C120  S    
C100  C112  A    
C102  C110  A    
C41   O37   A    
C168  H52   S    
C136  C183  S    
C199  N31   T    
C39   C133  A    
C20   C196  S    
C45   O41   A    
C11   C123  A    
C57   C65   T    
C184  H93   S    
C47   O43   A    
C101  C111  A    
C54   C62   S    
C28   C43   S    
C23   C135  A    
C103  C109  A    
C73   C89   A    
C159  H36   S    
C160  H33   S    
C5    C109  S    
C169  H60   S    
C181  H91   S    
C77   C93   A    
C7    C111  S    
C85   C149  S    
C51   O23   A    
C38   C118  S    
C167  H55   S    
Cu8   O30   S    
C60   C68   T    
C169  H61   S    
C173  H71   S    
Cu4   O4    S    
C55   O31   A    
C181  C182  S    
C177  C178  S    
C190  N22   T    
Cu6   O10   S    
C172  H62   S    
C170  H59   S    
C161  H41   S    
C81   C97   A    
C22   C134  A    
C85   C119  A    
C19   C195  S    
C95   C105  A    
C58   C66   T    
C165  C166  S    
C7    O11   A    
C92   H4    S    
Cu10  O40   S    
C18   C30   A    
C80   C96   A    
Cu1   O5    S    
C84   C120  A    
C78   C142  S    
C34   C126  A    
C10   C26   A    
C40   C132  A    
C181  H90   S    
C33   C121  A    
C6    C110  S    
C22   C198  S    
C14   C190  S    
Cu3   O23   S    
C25   C44   S    
Cu4   O6    S    
C168  H54   S    
C19   C131  A    
Cu6   O16   S    
C4    O8    A    
C17   C129  A    
C158  H28   S    
C156  H23   S    
C3    C107  S    
C164  H42   S    
C126  C163  S    
C18   C194  S    
C131  C173  S    
C97   H9    S    
Cu9   O33   S    
C179  H85   S    
C51   O21   A    
Cu12  O46   S    
C100  H12   S    
C175  H75   S    
C12   C124  A    
C1    O1    A    
C94   H6    S    
C161  C162  S    
Cu11  O43   S    
C16   C128  A    
C195  N27   T    
C76   C92   A    
C77   C141  S    
C10   C186  S    
C55   O29   A    
C48   O46   A    
C43   O39   A    
C51   C59   S    
C157  C158  S    
C36   C128  A    
Cu3   O19   S    
C171  C172  S    
C191  N23   T    
C172  H64   S    
C61   C69   T    
C170  H57   S    
C94   C106  A    
C13   C189  S    
Cu8   O14   S    
C15   C191  S    
C34   C114  S    
C52   O24   A    
C187  N19   T    
C103  H15   S    
C17   C193  S    
C29   C48   S    
C176  H74   S    
C166  H47   S    
C101  H13   S    
C193  N25   T    
C93   C107  A    
C91   H3    S    
C184  H92   S    
C130  C171  S    
C46   O48   A    
C124  C159  S    
C76   C116  A    
C95   H7    S    
C64   C72   T    
C159  C160  S    
C146  N10   T    
Cu6   O32   S    
C13   C27   A    
C43   O35   A    
C79   C143  S    
C200  N32   T    
C26   C41   S    
