data_mof_unit_18504.cif
_audit_creation_date              2012-12-11T16:28:05-0500
_audit_creation_method            fapswitch 2.2
_symmetry_space_group_name_H-M    P1
_symmetry_Int_Tables_number       1
_space_group_crystal_system       triclinic
_cell_length_a                    30.054682
_cell_length_b                    22.468826
_cell_length_c                    18.033885
_cell_angle_alpha                 89.99957
_cell_angle_beta                  122.262216
_cell_angle_gamma                 90.000054
_cell_volume                      10298.0262496

loop_
_atom_site_label
_atom_site_type_symbol
_atom_type_description
_atom_site_fract_x
_atom_site_fract_y
_atom_site_fract_z
_atom_type_partial_charge
C1    C     C_R   0.532842 0.604796 0.712523 -0.105053
C2    C     C_R   0.649888 0.289295 0.427286 0.560704
C3    C     C_R   0.758975 0.715167 0.919036 -0.219230
C4    C     C_R   0.282596 0.865861 0.058422 -0.179652
C5    C     C_R   0.741024 0.215149 0.080938 -0.219281
C6    C     C_R   0.717393 0.865875 0.941578 -0.179590
C7    C     C_R   0.258980 0.215120 0.919105 -0.219306
C8    C     C_R   0.837216 0.359690 0.106298 -0.066166
C9    C     C_R   0.187397 0.722147 0.042392 -0.071324
C10   C     C_R   0.162796 0.359695 0.893648 -0.066157
C11   C     C_R   0.812598 0.722188 0.957551 -0.071720
C12   C     C_R   0.337211 0.859692 0.106316 -0.066172
C13   C     C_R   0.681289 0.657909 0.422117 0.559022
C14   C     C_R   0.687400 0.222167 0.042419 -0.071331
C15   C     C_R   0.662779 0.859699 0.893689 -0.066090
C16   C     C_R   0.312607 0.222128 0.957639 -0.071315
C17   C     C_R   0.593459 0.582059 0.422359 -0.005342
C18   C     C_R   0.422241 0.393093 0.576300 -0.025853
C19   C     C_R   0.406542 0.582065 0.577638 -0.005324
C20   C     C_R   0.577757 0.393091 0.423702 -0.025844
C21   C     C_R   0.093460 0.082060 0.422361 -0.005316
C22   C     C_R   0.922245 0.893090 0.576299 -0.025979
C23   C     C_R   0.906542 0.082066 0.577639 -0.005326
C24   C     C_R   0.350098 0.289311 0.572713 0.560703
C25   C     C_R   0.077757 0.893091 0.423702 -0.025840
C26   C     C_R   0.392009 0.605645 0.284967 -0.010331
C27   C     C_R   0.616087 0.414251 0.740753 -0.067722
C28   C     C_R   0.607991 0.605645 0.715032 -0.010311
C29   C     C_R   0.383914 0.414247 0.259250 -0.067730
C30   C     C_R   0.892009 0.105645 0.284965 -0.010324
C31   C     C_R   0.116087 0.914249 0.740752 -0.067725
C32   C     C_R   0.107990 0.105646 0.715031 -0.010349
C33   C     C_R   0.883912 0.914252 0.259246 -0.067706
C34   C     C_R   0.579506 0.635767 0.744302 -0.005071
C35   C     C_R   0.818712 0.157955 0.577828 0.559115
C36   C     C_R   0.407511 0.396080 0.213641 0.031587
C37   C     C_R   0.420496 0.635767 0.255698 -0.005087
C38   C     C_R   0.592491 0.396088 0.786367 0.031602
C39   C     C_R   0.079503 0.135769 0.744296 -0.005087
C40   C     C_R   0.907507 0.896092 0.213630 0.031609
C41   C     C_R   0.920494 0.135765 0.255694 -0.005077
C42   C     C_R   0.092490 0.896085 0.786363 0.031587
C43   C     C_R   0.642486 0.597093 0.491148 0.117236
C44   C     C_R   0.382949 0.362231 0.505763 0.105894
C45   C     C_R   0.357515 0.597096 0.508846 0.117269
C46   C     C_R   0.149896 0.789302 0.427292 0.560711
C47   C     C_R   0.617048 0.362227 0.494240 0.105888
C48   C     C_R   0.142486 0.097095 0.491152 0.117222
C49   C     C_R   0.882949 0.862229 0.505765 0.105721
C50   C     C_R   0.857516 0.097098 0.508847 0.117256
C51   C     C_R   0.117048 0.862228 0.494239 0.105889
C52   C     C_R   0.219176 0.606143 0.460039 -0.102939
C53   C     C_R   0.667262 0.205510 0.557734 -0.079004
C54   C     C_R   0.780834 0.606147 0.539992 -0.103034
C55   C     C_R   0.332756 0.205505 0.442307 -0.079003
C56   C     C_R   0.719181 0.106139 0.460058 -0.102903
C57   C     C_R   0.181293 0.157915 0.422132 0.559028
C58   C     C_R   0.167256 0.705508 0.557719 -0.078984
C59   C     C_R   0.280838 0.106154 0.540017 -0.102984
C60   C     C_R   0.832719 0.705518 0.442229 -0.079123
C61   C     C_R   0.264059 0.587034 0.461558 -0.227923
C62   C     C_R   0.644555 0.260961 0.552971 -0.246576
C63   C     C_R   0.735950 0.587045 0.538473 -0.227922
C64   C     C_R   0.355455 0.260958 0.447056 -0.246563
C65   C     C_R   0.764062 0.087032 0.461572 -0.227867
C66   C     C_R   0.144550 0.760958 0.552960 -0.246594
C67   C     C_R   0.235951 0.087047 0.538485 -0.227907
C68   C     C_R   0.850141 0.789266 0.572748 0.560720
C69   C     C_R   0.855421 0.760974 0.446996 -0.246495
C70   C     C_R   0.313187 0.614238 0.516930 -0.095353
C71   C     C_R   0.637567 0.303751 0.490743 -0.095692
C72   C     C_R   0.686815 0.614228 0.483061 -0.095311
C73   C     C_R   0.362429 0.303758 0.509265 -0.095687
C74   C     C_R   0.813189 0.114241 0.516932 -0.095391
C75   C     C_R   0.137568 0.803753 0.490741 -0.095692
C76   C     C_R   0.186817 0.114230 0.483070 -0.095299
C77   C     C_R   0.862433 0.803748 0.509260 -0.095585
C78   C     C_2   0.339398 0.621065 0.265081 0.920200
C79   C     C_R   0.274739 0.673894 0.580018 -0.259868
C80   C     C_2   0.672687 0.415244 0.773384 0.930186
C81   C     C_2   0.660599 0.621067 0.734908 0.920179
C82   C     C_2   0.327314 0.415239 0.226617 0.930199
C83   C     C_2   0.839399 0.121066 0.265085 0.920197
C84   C     C_2   0.172687 0.915241 0.773384 0.930199
C85   C     C_2   0.160603 0.121063 0.734924 0.920209
C86   C     C_2   0.827313 0.915242 0.226618 0.930176
C87   C     C_2   0.166933 0.579676 0.396045 1.103634
C88   C     C_2   0.677482 0.162746 0.628228 1.071981
C89   C     C_2   0.833084 0.579704 0.604031 1.103481
C90   C     C_R   0.669335 0.232811 0.428920 -0.234857
C91   C     C_2   0.322555 0.162728 0.371837 1.071925
C92   C     C_2   0.666940 0.079657 0.396087 1.103770
C93   C     C_2   0.177467 0.662739 0.628201 1.071959
C94   C     C_2   0.333087 0.079710 0.604058 1.103601
C95   C     C_2   0.822484 0.662769 0.371712 1.071876
C96   C     C_R   0.725263 0.673851 0.419937 -0.259725
C97   C     C_R   0.458793 0.415441 0.261917 -0.161465
C98   C     C_R   0.330655 0.232826 0.571089 -0.234887
C99   C     C_R   0.774742 0.173905 0.580013 -0.259769
C100  C     C_R   0.169343 0.732819 0.428923 -0.234879
C101  C     C_R   0.225271 0.173860 0.419964 -0.259852
C102  C     C_R   0.830689 0.732781 0.571093 -0.234991
C103  C     C_R   0.224800 0.651921 0.517869 0.056788
C104  C     C_R   0.681521 0.192718 0.496618 0.046493
C105  C     C_R   0.775206 0.651901 0.482123 0.056860
C106  C     C_R   0.318487 0.192721 0.503413 0.046514
C107  C     C_R   0.724803 0.151924 0.517876 0.056750
C108  C     C_R   0.467159 0.604795 0.287478 -0.105049
C109  C     C_R   0.181520 0.692720 0.496610 0.046497
C110  C     C_R   0.275213 0.151912 0.482156 0.056820
C111  C     C_R   0.818482 0.692706 0.503367 0.046689
C112  C     C_R   0.403729 0.690841 0.203614 0.084666
C113  C     C_R   0.614798 0.362571 0.868674 0.077600
C114  C     C_R   0.596274 0.690844 0.796383 0.084630
C115  C     C_R   0.385208 0.362551 0.131346 0.077608
C116  C     C_R   0.903727 0.190838 0.203606 0.084657
C117  C     C_R   0.114795 0.862561 0.868664 0.077597
C118  C     C_R   0.096269 0.190845 0.796375 0.084633
C119  C     C_R   0.541208 0.415445 0.738086 -0.161458
C120  C     C_R   0.885198 0.862582 0.131317 0.077620
C121  C     C_R   0.416489 0.796294 0.190833 0.452368
C122  C     C_R   0.606700 0.276690 0.941934 0.428166
C123  C     C_R   0.583506 0.796292 0.809178 0.452430
C124  C     C_R   0.393309 0.276650 0.058123 0.428145
C125  C     C_R   0.916492 0.296286 0.190806 0.452389
C126  C     C_R   0.106695 0.776667 0.941902 0.428129
C127  C     C_R   0.083515 0.296304 0.809124 0.452443
C128  C     C_R   0.893297 0.776713 0.058038 0.428041
C129  C     C_R   0.437196 0.739847 0.226249 -0.241604
C130  C     C_R   0.032840 0.104797 0.712518 -0.105050
C131  C     C_R   0.583706 0.319975 0.876728 -0.295292
C132  C     C_R   0.562803 0.739844 0.773760 -0.241569
C133  C     C_R   0.416301 0.319945 0.123314 -0.295290
C134  C     C_R   0.937196 0.239840 0.226227 -0.241619
C135  C     C_R   0.083702 0.819958 0.876704 -0.295297
C136  C     C_R   0.062806 0.239856 0.773718 -0.241559
C137  C     C_R   0.916291 0.819993 0.123252 -0.295314
C138  C     C_R   0.350568 0.697407 0.141479 -0.200909
C139  C     C_R   0.667718 0.367851 0.934265 -0.160013
C140  C     C_R   0.649436 0.697415 0.858506 -0.200890
C141  C     C_R   0.958791 0.915448 0.261911 -0.161473
C142  C     C_R   0.332290 0.367830 0.065745 -0.160010
C143  C     C_R   0.850565 0.197407 0.141479 -0.200897
C144  C     C_R   0.167713 0.867841 0.934261 -0.160007
C145  C     C_R   0.149429 0.197406 0.858520 -0.200899
C146  C     C_R   0.832277 0.867861 0.065729 -0.160045
C147  C     C_R   0.327691 0.753826 0.118979 0.073965
C148  C     C_R   0.693451 0.321068 0.993742 0.053935
C149  C     C_R   0.672307 0.753837 0.881008 0.073929
C150  C     C_R   0.306558 0.321043 0.006277 0.053937
C151  C     C_R   0.827692 0.253827 0.118975 0.073952
C152  C     C_R   0.967159 0.104794 0.287475 -0.105059
C153  C     C_R   0.193446 0.821056 0.993732 0.053945
C154  C     C_R   0.172310 0.253824 0.881016 0.073967
C155  C     C_R   0.806545 0.821083 0.006244 0.053905
C156  C     C_R   0.360840 0.803906 0.138270 -0.041108
C157  C     C_R   0.662310 0.273428 0.994513 -0.030864
C158  C     C_R   0.639154 0.803911 0.861730 -0.041134
C159  C     C_R   0.337699 0.273393 0.005532 -0.030853
C160  C     C_R   0.860843 0.303903 0.138254 -0.041109
C161  C     C_R   0.162306 0.773409 0.994490 -0.030849
C162  C     C_R   0.139164 0.303910 0.861702 -0.041139
C163  C     C_R   0.041208 0.915444 0.738086 -0.161448
C164  C     C_R   0.837687 0.773448 0.005463 -0.031038
C165  C     C_R   0.272751 0.761210 0.080289 0.115502
C166  C     C_R   0.749365 0.316953 0.044277 0.113875
C167  C     C_R   0.727245 0.761231 0.919687 0.115567
C168  C     C_R   0.250645 0.316937 0.955724 0.113881
C169  C     C_R   0.772753 0.261218 0.080294 0.115506
C170  C     C_R   0.249360 0.816945 0.044276 0.113873
C171  C     C_R   0.227252 0.261201 0.919719 0.115510
C172  C     C_R   0.750632 0.816966 0.955709 0.113870
C173  C     C_R   0.644593 0.579269 0.566596 -0.080505
C174  C     C_R   0.318710 0.657947 0.577833 0.559055
C175  C     C_R   0.371208 0.393171 0.430609 -0.099604
C176  C     C_R   0.355407 0.579270 0.433400 -0.080505
C177  C     C_R   0.628790 0.393170 0.569393 -0.099619
C178  C     C_R   0.144592 0.079272 0.566599 -0.080535
C179  C     C_R   0.871206 0.893173 0.430611 -0.099631
C180  C     C_R   0.855407 0.079270 0.433401 -0.080530
C181  C     C_R   0.128790 0.893170 0.569392 -0.099596
C182  C     C_R   0.782602 0.365865 0.058411 -0.179644
C183  C     C_R   0.241023 0.715135 0.080920 -0.219292
C184  C     C_R   0.217411 0.365859 0.941557 -0.179677
H1    H     H_    0.502018 0.615278 0.724112 0.162281
H2    H     H_    0.326905 0.657607 0.116792 0.130906
H3    H     H_    0.311321 0.349776 0.718163 0.387611
H4    H     H_    0.895218 0.280111 0.722134 0.417925
H5    H     H_    0.188679 0.849768 0.281851 0.387615
H6    H     H_    0.104781 0.279950 0.277554 0.417849
H7    H     H_    0.812567 0.848544 0.720270 0.387426
H8    H     H_    0.311022 0.405223 0.068899 0.133657
H9    H     H_    0.673104 0.657619 0.883189 0.130920
H10   H     H_    0.188980 0.905232 0.931102 0.133652
H11   H     H_    0.826900 0.157609 0.116798 0.130913
H12   H     H_    0.811009 0.905244 0.068903 0.133663
H13   H     H_    0.173088 0.157604 0.883216 0.130904
H14   H     H_    0.541859 0.317974 0.828526 0.188966
H15   H     H_    0.478842 0.734326 0.273749 0.200460
H16   H     H_    0.458147 0.317943 0.171523 0.188972
H17   H     H_    0.485807 0.416822 0.239675 0.136772
H18   H     H_    0.521156 0.734319 0.726269 0.200478
H19   H     H_    0.041856 0.817956 0.828497 0.189039
H20   H     H_    0.978844 0.234317 0.273720 0.200463
H21   H     H_    0.958138 0.817992 0.171449 0.188977
H22   H     H_    0.021161 0.234339 0.726204 0.200478
H23   H     H_    0.767487 0.410295 0.037173 0.144167
H24   H     H_    0.256840 0.673243 0.113110 0.172878
H25   H     H_    0.232531 0.410289 0.962784 0.144160
H26   H     H_    0.743159 0.673276 0.886840 0.172881
H27   H     H_    0.267478 0.910291 0.037186 0.144164
H28   H     H_    0.497984 0.615278 0.275890 0.162311
H29   H     H_    0.756841 0.173257 0.113131 0.172877
H30   H     H_    0.732508 0.910305 0.962820 0.144172
H31   H     H_    0.243162 0.173225 0.886922 0.172878
H32   H     H_    0.680627 0.571479 0.628431 0.155931
H33   H     H_    0.341918 0.379808 0.365413 0.136666
H34   H     H_    0.319372 0.571480 0.371566 0.155945
H35   H     H_    0.658081 0.379807 0.634589 0.136662
H36   H     H_    0.180626 0.071484 0.628435 0.155944
H37   H     H_    0.841913 0.879814 0.365414 0.136679
H38   H     H_    0.819372 0.071480 0.371568 0.155948
H39   H     H_    0.514194 0.416828 0.760329 0.136756
H40   H     H_    0.158080 0.879806 0.634588 0.136659
H41   H     H_    0.582378 0.577043 0.355057 0.136814
H42   H     H_    0.441781 0.380369 0.643980 0.150207
H43   H     H_    0.417623 0.577059 0.644943 0.136756
H44   H     H_    0.558216 0.380365 0.356024 0.150219
H45   H     H_    0.082380 0.077044 0.355059 0.136820
H46   H     H_    0.941793 0.880362 0.643977 0.150388
H47   H     H_    0.917623 0.077059 0.644943 0.136770
H48   H     H_    0.058216 0.880366 0.356022 0.150212
H49   H     H_    0.260454 0.551956 0.417468 0.187813
H50   H     H_    0.002015 0.115280 0.724106 0.162291
H51   H     H_    0.633429 0.271640 0.599556 0.186642
H52   H     H_    0.739560 0.551985 0.582594 0.187783
H53   H     H_    0.366588 0.271631 0.400477 0.186628
H54   H     H_    0.760459 0.051949 0.417489 0.187805
H55   H     H_    0.133419 0.771634 0.599541 0.186639
H56   H     H_    0.239558 0.051985 0.582600 0.187790
H57   H     H_    0.866528 0.771666 0.400390 0.186624
H58   H     H_    0.778064 0.209666 0.623036 0.191583
H59   H     H_    0.181545 0.722574 0.383604 0.192612
H60   H     H_    0.221946 0.209598 0.376905 0.191556
H61   H     H_    0.985804 0.916833 0.239669 0.136748
H62   H     H_    0.818515 0.722515 0.616443 0.192316
H63   H     H_    0.278062 0.709650 0.623049 0.191569
H64   H     H_    0.681531 0.222562 0.383595 0.192601
H65   H     H_    0.721935 0.709586 0.376872 0.191551
H66   H     H_    0.318451 0.222585 0.616406 0.192590
H67   H     H_    0.860392 0.399301 0.117703 0.206077
H68   H     H_    0.165706 0.684847 0.045332 0.209036
H69   H     H_    0.139624 0.399313 0.882215 0.206074
H70   H     H_    0.834291 0.684896 0.954596 0.209103
H71   H     H_    0.360384 0.899305 0.117730 0.206076
H72   H     H_    0.997983 0.115275 0.275886 0.162306
H73   H     H_    0.665709 0.184870 0.045368 0.209040
H74   H     H_    0.639603 0.899308 0.882285 0.206073
H75   H     H_    0.334298 0.184823 0.954711 0.209038
H76   H     H_    0.529940 0.829182 0.343110 0.376482
H77   H     H_    0.501272 0.283018 0.924286 0.352910
H78   H     H_    0.470042 0.829182 0.656924 0.376502
H79   H     H_    0.498744 0.282952 0.075799 0.352960
H80   H     H_    0.029958 0.329168 0.343038 0.376473
H81   H     H_    0.001259 0.782977 0.924213 0.352906
H82   H     H_    0.970063 0.329217 0.656800 0.376484
H83   H     H_    0.014195 0.916827 0.760329 0.136803
H84   H     H_    0.998714 0.783074 0.075674 0.352837
H85   H     H_    0.293289 0.681694 0.274873 0.335821
H86   H     H_    0.732529 0.458951 0.777489 0.356683
H87   H     H_    0.706701 0.681694 0.725090 0.335768
H88   H     H_    0.267469 0.458945 0.222507 0.356688
H89   H     H_    0.793295 0.181696 0.274888 0.335814
H90   H     H_    0.232530 0.958944 0.777486 0.356686
H91   H     H_    0.206719 0.181692 0.725149 0.335822
H92   H     H_    0.767469 0.958947 0.222512 0.356687
H93   H     H_    0.090806 0.568930 0.357408 0.366578
H94   H     H_    0.688985 0.405239 0.931099 0.133654
H95   H     H_    0.695837 0.078887 0.675360 0.344620
H96   H     H_    0.909215 0.568961 0.642696 0.366600
H97   H     H_    0.304250 0.078851 0.324766 0.344538
H98   H     H_    0.590816 0.068908 0.357466 0.366598
H99   H     H_    0.195799 0.578871 0.675306 0.344531
H100  H     H_    0.409223 0.068978 0.642746 0.366599
H101  H     H_    0.804158 0.578906 0.324586 0.344530
H102  H     H_    0.395188 0.780064 0.722227 0.417883
H103  H     H_    0.688634 0.349727 0.281779 0.387614
H104  H     H_    0.604762 0.779991 0.277624 0.417879
N1    N     N_R   0.532910 0.558440 0.665240 -0.060445
N2    N     N_R   0.402970 0.441090 0.454460 -0.049378
N3    N     N_R   0.402970 0.558910 0.454460 -0.054727
N4    N     N_R   0.597030 0.441090 0.545540 -0.049376
N5    N     N_R   0.097030 0.058910 0.545540 -0.054726
N6    N     N_R   0.902970 0.941090 0.454460 -0.049369
N7    N     N_R   0.902970 0.058910 0.454460 -0.054723
N8    N     N_R   0.097030 0.941090 0.545540 -0.049373
N9    N     N_R   0.566200 0.559270 0.454460 -0.067457
N10   N     N_R   0.433800 0.440730 0.545540 -0.068268
N11   N     N_R   0.433800 0.559270 0.545540 -0.067451
N12   N     N_R   0.467090 0.441560 0.334760 -0.056876
N13   N     N_R   0.566200 0.440730 0.454460 -0.068269
N14   N     N_R   0.066200 0.059270 0.454460 -0.067460
N15   N     N_R   0.933800 0.940730 0.545540 -0.068267
N16   N     N_R   0.933800 0.059270 0.545540 -0.067455
N17   N     N_R   0.066200 0.940730 0.454460 -0.068268
N18   N     N_R   0.421050 0.559750 0.334770 -0.063320
N19   N     N_R   0.578950 0.440250 0.665230 -0.063638
N20   N     N_R   0.578950 0.559750 0.665230 -0.063323
N21   N     N_R   0.421050 0.440250 0.334770 -0.063635
N22   N     N_R   0.921050 0.059750 0.334770 -0.063322
N23   N     N_R   0.467090 0.558440 0.334760 -0.060446
N24   N     N_R   0.078950 0.940250 0.665230 -0.063635
N25   N     N_R   0.078950 0.059750 0.665230 -0.063318
N26   N     N_R   0.921050 0.940250 0.334770 -0.063636
N27   N     N_R   0.532910 0.441560 0.665240 -0.056876
N28   N     N_R   0.032910 0.058440 0.665240 -0.060445
N29   N     N_R   0.967090 0.941560 0.334760 -0.056874
N30   N     N_R   0.967090 0.058440 0.334760 -0.060447
N31   N     N_R   0.032910 0.941560 0.665240 -0.056877
N32   N     N_R   0.597030 0.558910 0.545540 -0.054724
Ni1   Ni    Ni4+2 0.483090 0.500000 0.604440 0.235126
Ni2   Ni    Ni4+2 0.516910 0.500000 0.395560 0.235133
Ni3   Ni    Ni4+2 0.983090 0.000000 0.604440 0.235126
Ni4   Ni    Ni4+2 0.016910 1.000000 0.395560 0.235130
Ni5   Ni    Ni4+2 0.586780 0.500000 0.604440 0.280626
Ni6   Ni    Ni4+2 0.413220 0.500000 0.395560 0.280631
Ni7   Ni    Ni4+2 0.086780 0.000000 0.604440 0.280631
Ni8   Ni    Ni4+2 0.913220 1.000000 0.395560 0.280623
O1    O     O_2   0.453444 0.884223 0.138394 -0.202050
O2    O     O_2   0.431983 0.165998 0.089115 -0.203774
O3    O     O_2   0.418273 0.215150 0.957372 -0.236156
O4    O     O_3   0.498074 0.247955 0.108602 -0.434143
O5    O     O_2   0.953435 0.384204 0.138329 -0.202069
O6    O     O_2   0.950099 0.402572 0.268913 -0.266767
O7    O     O_3   0.023684 0.333383 0.283494 -0.462749
O8    O     O_2   0.068024 0.666014 0.910932 -0.203783
O9    O     O_2   0.081729 0.715179 0.042662 -0.236116
O10   O     O_3   0.001930 0.747972 0.891423 -0.434136
O11   O     O_2   0.046556 0.384273 0.861494 -0.202066
O12   O     O_2   0.450077 0.902580 0.268951 -0.266740
O13   O     O_2   0.049943 0.402574 0.730943 -0.266774
O14   O     O_3   0.976329 0.333426 0.716338 -0.462940
O15   O     O_2   0.931987 0.666071 0.088962 -0.203649
O16   O     O_2   0.918247 0.715267 0.957227 -0.236629
O17   O     O_3   0.998058 0.748056 0.108456 -0.434096
O18   O     O_2   0.303117 0.586040 0.224555 -0.619345
O19   O     O_R   0.330898 0.676438 0.290790 -0.773966
O20   O     O_2   0.700391 0.372205 0.812016 -0.621801
O21   O     O_R   0.693666 0.463865 0.754015 -0.764298
O22   O     O_2   0.696884 0.586048 0.775442 -0.619355
O23   O     O_3   0.523679 0.833403 0.283576 -0.462782
O24   O     O_R   0.669093 0.676437 0.709181 -0.773950
O25   O     O_2   0.299610 0.372200 0.187983 -0.621800
O26   O     O_R   0.306333 0.463859 0.245983 -0.764290
O27   O     O_2   0.803117 0.086044 0.224556 -0.619348
O28   O     O_R   0.830904 0.176439 0.290801 -0.773967
O29   O     O_2   0.200391 0.872202 0.812020 -0.621806
O30   O     O_R   0.193667 0.963859 0.754011 -0.764289
O31   O     O_2   0.196882 0.086036 0.775449 -0.619339
O32   O     O_R   0.169108 0.176438 0.709224 -0.773993
O33   O     O_2   0.799611 0.872201 0.187990 -0.621766
O34   O     O_2   0.568018 0.166042 0.910986 -0.203757
O35   O     O_R   0.806332 0.963862 0.245984 -0.764298
O36   O     O_2   0.161451 0.548543 0.336051 -0.585884
O37   O     O_R   0.123999 0.589426 0.404833 -0.751530
O38   O     O_2   0.674317 0.179099 0.689970 -0.614975
O39   O     O_R   0.689938 0.103424 0.623670 -0.758697
O40   O     O_2   0.838572 0.548621 0.664075 -0.585886
O41   O     O_R   0.876016 0.589424 0.595230 -0.751493
O42   O     O_2   0.325699 0.179079 0.310073 -0.614977
O43   O     O_R   0.310139 0.103396 0.376442 -0.758783
O44   O     O_2   0.661461 0.048497 0.336119 -0.585868
O45   O     O_2   0.581743 0.215221 0.042721 -0.236223
O46   O     O_R   0.624006 0.089422 0.404869 -0.751520
O47   O     O_2   0.174311 0.679090 0.689954 -0.614985
O48   O     O_R   0.189906 0.603412 0.623623 -0.758806
O49   O     O_2   0.338566 0.048605 0.664076 -0.585881
O50   O     O_R   0.376028 0.089452 0.595287 -0.751497
O51   O     O_2   0.825596 0.679147 0.309926 -0.614949
O52   O     O_R   0.810072 0.603432 0.376294 -0.758779
O53   O     O_2   0.413258 0.666380 0.726657 -0.321796
O54   O     O_2   0.404251 0.712384 0.595783 -0.284816
O55   O     O_3   0.361837 0.765701 0.670511 -0.484762
O56   O     O_3   0.501937 0.248014 0.891489 -0.434180
O57   O     O_2   0.595665 0.342462 0.270278 -0.305336
O58   O     O_2   0.663408 0.402689 0.392493 -0.287158
O59   O     O_3   0.693475 0.320999 0.327190 -0.503470
O60   O     O_2   0.586755 0.666267 0.273241 -0.321761
O61   O     O_2   0.595710 0.712345 0.404034 -0.284876
O62   O     O_3   0.638132 0.765616 0.329289 -0.484655
O63   O     O_2   0.404305 0.342498 0.729709 -0.305314
O64   O     O_2   0.336566 0.402711 0.607464 -0.287168
O65   O     O_3   0.306494 0.321033 0.672777 -0.503472
O66   O     O_2   0.913258 0.166381 0.726649 -0.321710
O67   O     O_2   0.546555 0.884213 0.861635 -0.202071
O68   O     O_2   0.904254 0.212388 0.595778 -0.284880
O69   O     O_3   0.861844 0.265703 0.670514 -0.484808
O70   O     O_2   0.095684 0.842481 0.270292 -0.305290
O71   O     O_2   0.163424 0.902699 0.392525 -0.287185
O72   O     O_3   0.193495 0.821015 0.327219 -0.503468
O73   O     O_2   0.086765 0.166268 0.273250 -0.321802
O74   O     O_2   0.095708 0.212344 0.404034 -0.284896
O75   O     O_3   0.138133 0.265621 0.329300 -0.484725
O76   O     O_2   0.904468 0.842298 0.729816 -0.306818
O77   O     O_2   0.836728 0.902653 0.607790 -0.285647
O78   O     O_2   0.549902 0.902575 0.731060 -0.266715
O79   O     O_3   0.806649 0.820927 0.673007 -0.503229
O80   O     O_3   0.476316 0.833385 0.716468 -0.462872
S1    S     S_3+6 0.460937 0.856485 0.220144 0.021150
S2    S     S_3+6 0.649422 0.341458 0.352826 -0.027197
S3    S     S_3+6 0.623031 0.700182 0.355981 -0.029099
S4    S     S_3+6 0.350552 0.341485 0.647151 -0.027196
S5    S     S_3+6 0.876957 0.200256 0.643881 -0.029142
S6    S     S_3+6 0.149437 0.841472 0.352846 -0.027193
S7    S     S_3+6 0.123036 0.200185 0.355990 -0.029173
S8    S     S_3+6 0.850681 0.841383 0.647322 -0.027074
S9    S     S_3+6 0.564751 0.224376 0.948562 0.030853
S10   S     S_3+6 0.539055 0.856477 0.779881 0.021142
S11   S     S_3+6 0.435259 0.224323 0.051523 0.030884
S12   S     S_3+6 0.960943 0.356471 0.220091 0.021130
S13   S     S_3+6 0.064746 0.724343 0.948510 0.030901
S14   S     S_3+6 0.039071 0.356504 0.779769 0.021103
S15   S     S_3+6 0.935246 0.724412 0.051390 0.030725
S16   S     S_3+6 0.376955 0.700252 0.643886 -0.029146

loop_
_geom_bond_atom_site_label_1
_geom_bond_atom_site_label_2
_ccdc_geom_bond_type
C61   C70   A    
C8    H67   S    
C120  C146  A    
C31   C42   A    
C10   C184  A    
C181  N8    A    
C102  H62   S    
C44   C175  A    
C167  C172  A    
H99   O48   S    
C85   O32   S    
C124  C133  A    
C179  H37   S    
C24   C98   A    
C57   C76   A    
C177  H35   S    
O54   S16   D    
C52   C61   A    
O2    S11   D    
O64   S4    D    
C54   C63   A    
C67   H56   S    
C2    C90   A    
C163  N31   A    
N20   Ni5   S    
O55   S16   S    
N2    N10   A    
H80   O7    S    
N7    Ni8   S    
C180  H38   S    
C36   C97   A    
C112  C129  A    
C4    C12   A    
N2    Ni6   S    
C91   O42   D    
H81   O10   S    
H92   O35   S    
C3    H26   S    
C143  C151  A    
C100  C109  A    
C10   C162  A    
C81   O22   D    
C175  H33   S    
C102  C111  A    
C96   H65   S    
C127  S14   S    
N21   Ni6   S    
N15   Ni3   S    
C130  N28   A    
H6    O75   S    
C25   N17   A    
C150  C159  A    
C165  C183  A    
C94   O49   D    
C112  C138  A    
H84   O17   S    
C127  C136  A    
C37   C108  A    
C152  H72   S    
C135  H19   S    
O74   S7    D    
C108  N23   A    
C101  C110  A    
O65   S4    S    
C153  C161  A    
C17   C43   A    
C18   C44   A    
O12   S1    D    
C86   O35   S    
C22   H46   S    
N11   Ni1   S    
C5    H29   S    
C119  H39   S    
N24   N31   A    
C1    N1    A    
C89   O40   D    
C90   C104  A    
N6    N15   A    
H79   O4    S    
C121  S1    S    
C22   C49   A    
C38   C119  A    
C180  N7    A    
O72   S6    S    
C2    C71   A    
C117  C135  A    
C118  C136  A    
C68   C77   A    
C54   C105  A    
C138  H2    S    
C175  N2    A    
O14   S14   S    
C51   C181  A    
C14   H73   S    
C42   C117  S    
C13   C72   A    
C1    H1    S    
C39   C118  S    
N22   N30   A    
C98   C106  A    
C88   O38   D    
O79   S8    S    
C29   C82   S    
C83   O27   D    
C84   O29   D    
C43   C173  A    
C150  C168  A    
O56   S9    S    
C57   S7    S    
C20   C47   A    
C3    C11   A    
C65   C74   A    
C60   C95   S    
N22   Ni8   S    
O1    S1    D    
C81   O24   S    
O9    S13   D    
C179  N6    A    
C104  C107  S    
C23   H47   S    
C49   C179  A    
C52   C103  A    
O6    S12   D    
C121  C156  A    
C123  C132  A    
C10   H69   S    
C61   H49   S    
C48   C76   S    
C173  N32   A    
C69   C77   A    
C166  C182  A    
C128  C137  A    
O75   S7    S    
C48   C178  A    
C125  C160  A    
C3    C167  A    
C184  H25   S    
C6    C172  A    
C26   C78   S    
C4    C170  A    
O13   S14   D    
H97   O43   S    
O57   S2    D    
C82   O25   D    
C32   C39   A    
C86   O33   D    
C144  H10   S    
C66   C75   A    
C53   C104  A    
H76   O23   S    
C128  C164  A    
C11   H70   S    
H91   O32   S    
C19   H43   S    
O17   S15   S    
C147  C165  A    
C59   C67   A    
C63   H52   S    
C17   H41   S    
C168  C171  A    
O15   S15   D    
N3    Ni6   S    
C153  C170  A    
C141  H61   S    
C64   C73   A    
C113  C139  A    
C30   C41   A    
C87   O37   S    
C114  C140  A    
C78   O19   S    
C140  H9    S    
N24   Ni7   S    
H96   O41   S    
C40   C141  A    
H85   O19   S    
C28   N20   A    
C79   C103  A    
C97   N12   A    
O70   S6    D    
N12   N21   A    
C46   C75   A    
C108  H28   S    
C91   O43   S    
C1    C34   A    
O11   S14   D    
C17   N9    A    
C139  C148  A    
C33   C40   A    
C13   C96   A    
C117  C144  A    
C15   C158  A    
C27   C80   S    
H87   O24   S    
H3    O65   S    
O45   S9    D    
C31   C84   S    
C79   H63   S    
C95   O52   S    
O68   S5    D    
N10   Ni1   S    
O62   S3    S    
C142  H8    S    
C178  N5    A    
N4    N13   A    
N25   Ni7   S    
C9    C161  A    
C70   C174  A    
C129  H15   S    
C145  C154  A    
C127  C162  A    
C26   N18   A    
C65   H54   S    
N19   N27   A    
C122  C131  A    
N4    Ni5   S    
H102  O55   S    
C13   S3    S    
C62   H51   S    
H5    O72   S    
O61   S3    D    
C154  C162  A    
C118  C145  A    
C87   O36   D    
C97   H17   S    
C19   C45   A    
C93   O48   S    
C57   C101  A    
C132  H18   S    
N18   N23   A    
C151  C169  A    
N30   Ni4   S    
C21   C48   A    
C99   H58   S    
N5    Ni7   S    
C60   C111  A    
C136  H22   S    
N29   Ni4   S    
C69   H57   S    
C60   C69   A    
H77   O56   S    
C49   C77   S    
C62   C71   A    
C148  C157  A    
N16   Ni3   S    
N13   Ni2   S    
H95   O39   S    
C123  S10   S    
C152  N30   A    
C140  C149  A    
O10   S13   S    
C125  C134  A    
C96   C105  A    
C35   S5    S    
C35   C74   A    
C7    C171  A    
C148  C166  A    
C149  C167  A    
C25   H48   S    
C92   O44   D    
C4    H27   S    
C94   O50   S    
C178  H36   S    
N8    Ni7   S    
C58   C93   S    
C68   C102  A    
C106  C110  S    
O73   S7    D    
C15   H74   S    
C24   C73   A    
C116  C134  A    
C27   C38   A    
N8    N17   A    
H101  O52   S    
O60   S3    D    
C21   N14   A    
O76   S8    D    
O34   S9    D    
C30   C83   S    
C101  H60   S    
C55   C91   S    
C23   N16   A    
N12   Ni2   S    
C155  C172  A    
C146  C155  A    
C90   H64   S    
C59   C94   S    
H4    O69   S    
C126  C161  A    
H86   O21   S    
N26   N29   A    
C105  C111  S    
C115  C142  A    
C28   C34   A    
C12   H71   S    
C176  H34   S    
C79   C174  A    
C29   N21   A    
N31   Ni3   S    
C52   C87   S    
N6    Ni8   S    
C14   C157  A    
N1    Ni1   S    
C9    H68   S    
C98   H66   S    
C38   C113  S    
C23   C50   A    
C55   C106  A    
C68   S8    S    
C130  H50   S    
O63   S4    D    
C24   S4    S    
O23   S1    S    
N14   Ni4   S    
C9    C183  A    
C84   O30   S    
C6    H30   S    
C126  S13   S    
C21   H45   S    
O53   S16   D    
C176  N3    A    
N32   Ni5   S    
C147  C156  A    
C5    C14   A    
C122  S9    S    
O69   S5    S    
C7    C16   A    
C40   C120  S    
C126  C135  A    
C18   N10   A    
C31   N24   A    
C119  N27   A    
C8    C160  A    
O71   S6    D    
C8    C182  A    
C165  C170  A    
C92   O46   S    
C163  H83   S    
C45   C70   S    
H103  O59   S    
O67   S10   D    
C121  C129  A    
C20   H44   S    
H93   O37   S    
C26   C37   A    
C134  H20   S    
N9    Ni2   S    
C115  C133  A    
C20   N13   A    
C103  C109  S    
C142  C150  A    
C50   C74   S    
C22   N15   A    
N18   Ni6   S    
C2    S2    S    
H104  O62   S    
C82   O26   S    
H88   O26   S    
C174  S16   S    
C32   N25   A    
C32   C85   S    
C122  C157  A    
C27   N19   A    
C44   C73   S    
H89   O28   S    
C89   O41   S    
C63   C72   A    
C5    C169  A    
C120  C137  A    
N19   Ni5   S    
C7    H31   S    
C80   O20   D    
C43   C72   S    
N17   Ni4   S    
C66   H55   S    
C58   C109  A    
C139  H94   S    
C99   C107  A    
O66   S5    D    
O7    S12   S    
N26   Ni8   S    
C41   C152  A    
C137  H21   S    
N1    N20   A    
C29   C36   A    
C51   C75   S    
C83   O28   S    
H100  O50   S    
C125  S12   S    
C56   C65   A    
C124  C159  A    
C59   C110  A    
C141  N29   A    
O3    S11   D    
C182  H23   S    
H90   O30   S    
C95   O51   D    
C144  C153  A    
C37   C112  S    
C18   H42   S    
C6    C15   A    
C58   C66   A    
N28   Ni3   S    
C168  C184  A    
C154  C171  A    
N3    N11   A    
C85   O31   D    
H78   O80   S    
O5    S12   D    
C143  H11   S    
C181  H40   S    
C183  H24   S    
H7    O79   S    
C35   C99   A    
O78   S10   D    
C173  H32   S    
C54   C89   S    
C45   C176  A    
C16   H75   S    
C42   C163  A    
N25   N28   A    
C93   O47   D    
C80   O21   S    
C50   C180  A    
C33   C86   S    
C25   C51   A    
C56   C107  A    
C145  H13   S    
C33   N26   A    
C116  C143  A    
C53   C62   A    
C138  C147  A    
O16   S15   D    
C47   C71   S    
C55   C64   A    
C64   H53   S    
O58   S2    D    
C78   O18   D    
C30   N22   A    
C100  H59   S    
C133  H16   S    
C12   C156  A    
C41   C116  S    
C146  H12   S    
C46   S6    S    
O8    S13   D    
N23   Ni2   S    
C149  C158  A    
C46   C100  A    
H82   O14   S    
C177  N4    A    
C113  C131  A    
C28   C81   S    
C88   O39   S    
C114  C132  A    
O59   S2    S    
H98   O46   S    
C128  S15   S    
C123  C158  A    
C155  C164  A    
C34   C114  S    
N9    N32   A    
C124  S11   S    
C151  C160  A    
C47   C177  A    
N27   Ni1   S    
C11   C164  A    
C19   N11   A    
C53   C88   S    
O77   S8    D    
C56   C92   S    
C166  C169  A    
O4    S11   S    
C67   C76   A    
C39   C130  A    
N5    N14   A    
C36   C115  S    
O80   S10   S    
C131  H14   S    
N7    N16   A    
C16   C159  A    
