data_mof_unit_8697.cif
_audit_creation_date              2012-12-11T14:43:34-0500
_audit_creation_method            fapswitch 2.2
_symmetry_space_group_name_H-M    P1
_symmetry_Int_Tables_number       1
_space_group_crystal_system       triclinic
_cell_length_a                    20.921366
_cell_length_b                    7.098982
_cell_length_c                    16.605631
_cell_angle_alpha                 90.00201
_cell_angle_beta                  93.07268
_cell_angle_gamma                 90.000444
_cell_volume                      2462.72930977

loop_
_atom_site_label
_atom_site_type_symbol
_atom_type_description
_atom_site_fract_x
_atom_site_fract_y
_atom_site_fract_z
_atom_type_partial_charge
O1    O     O_R   0.564840 0.505290 0.579830 -0.538339
O2    O     O_R   0.435160 0.005290 0.420170 -0.538233
O3    O     O_R   0.556720 0.179930 0.409350 -0.520428
O4    O     O_R   0.443280 0.679930 0.590650 -0.520510
C1    C     C_R   0.570476 0.343004 0.381701 0.786650
C2    C     C_R   0.429522 0.843004 0.618297 0.786386
O5    O     O_R   0.572280 0.175810 0.578530 -0.527075
O6    O     O_R   0.427720 0.675810 0.421470 -0.527125
O7    O     O_R   0.450830 0.001920 0.590540 -0.538934
O8    O     O_R   0.549170 0.501920 0.409460 -0.539047
C3    C     C_R   0.592544 0.346100 0.601703 0.769478
C4    C     C_R   0.407452 0.846095 0.398307 0.769147
O9    O     O_3   0.460130 0.338030 0.503750 -0.373941
O10   O     O_3   0.539870 0.838030 0.496250 -0.373890
V1    V     V_3+5 0.507400 0.064560 0.499310 1.520624
V2    V     V_3+5 0.492600 0.564560 0.500690 1.520304
C5    C     C_R   0.136511 0.923374 0.174967 -0.088832
C6    C     C_R   0.863477 0.423354 0.825048 -0.088830
C7    C     C_R   0.349872 0.856571 0.339789 -0.111448
C8    C     C_R   0.650102 0.356577 0.660256 -0.111363
C9    C     C_R   0.292787 0.707713 0.225769 -0.192299
C10   C     C_R   0.707197 0.207647 0.774253 -0.192270
C11   C     C_R   0.347400 0.728661 0.275435 0.151004
C12   C     C_R   0.652583 0.228591 0.724581 0.150915
C13   C     C_R   0.298458 0.991313 0.344954 0.054177
C14   C     C_R   0.701501 0.491368 0.655142 0.054086
C15   C     C_R   0.240165 0.967091 0.293938 0.083146
C16   C     C_R   0.759803 0.467092 0.706123 0.083057
C17   C     C_R   0.239510 0.821691 0.234126 0.063698
C18   C     C_R   0.760469 0.321663 0.765914 0.063718
C19   C     C_R   0.187441 0.797716 0.177742 -0.218723
C20   C     C_R   0.812547 0.297689 0.822284 -0.218755
C21   C     C_R   0.134308 0.060992 0.234327 -0.154910
C22   C     C_R   0.865674 0.560967 0.765688 -0.154884
C23   C     C_R   0.182684 0.080555 0.295972 0.126291
C24   C     C_R   0.817285 0.580538 0.704061 0.126268
H1    H     H_    0.188635 0.688469 0.132154 0.141219
H2    H     H_    0.811359 0.188436 0.867867 0.141239
H3    H     H_    0.092279 0.150560 0.234292 0.128603
H4    H     H_    0.907706 0.650517 0.765707 0.128618
H5    H     H_    0.293238 0.605979 0.177155 0.183152
H6    H     H_    0.706753 0.105867 0.822846 0.183150
C25   C     C_R   0.387871 0.820234 0.835779 0.126126
C26   C     C_R   0.612113 0.320312 0.164208 0.126130
C27   C     C_R   0.390749 0.841834 0.690123 -0.120930
C28   C     C_R   0.609242 0.341842 0.309867 -0.120958
C29   C     C_R   0.086358 0.968855 0.741083 -0.186026
C30   C     C_R   0.913637 0.468805 0.258920 -0.186031
C31   C     C_R   0.122362 0.002229 0.674913 0.229778
C32   C     C_R   0.877634 0.502137 0.325098 0.229784
C33   C     C_R   0.188172 0.974608 0.680347 -0.116222
C34   C     C_R   0.811823 0.474534 0.319662 -0.116281
C35   C     C_R   0.219746 0.901752 0.750798 0.049600
C36   C     C_R   0.780245 0.401745 0.249197 0.049602
C37   C     C_R   0.184417 0.892237 0.822520 0.021727
C38   C     C_R   0.815574 0.392266 0.177474 0.021749
C39   C     C_R   0.287187 0.861301 0.753468 0.014619
C40   C     C_R   0.712802 0.361316 0.246520 0.014588
C41   C     C_R   0.319772 0.828236 0.829581 0.020654
C42   C     C_R   0.680214 0.328298 0.170405 0.020673
C43   C     C_R   0.283233 0.797624 0.896835 0.124503
C44   C     C_R   0.716753 0.297716 0.103147 0.124492
C45   C     C_R   0.220010 0.861293 0.896896 0.074142
C46   C     C_R   0.779978 0.361373 0.103094 0.074123
C47   C     C_R   0.323209 0.845405 0.682946 0.033955
C48   C     C_R   0.676781 0.345385 0.317039 0.034057
C49   C     C_R   0.420979 0.800897 0.765346 0.115009
C50   C     C_R   0.579005 0.300967 0.234641 0.114959
C51   C     C_R   0.115693 0.918700 0.815716 -0.111370
C52   C     C_R   0.884300 0.418703 0.184280 -0.111378
H7    H     H_    0.035104 0.992491 0.735283 0.130042
H8    H     H_    0.964892 0.492421 0.264724 0.130049
H9    H     H_    0.214497 0.019076 0.629658 0.157387
H10   H     H_    0.785501 0.518955 0.370364 0.157465
O11   O     O_R   0.950790 0.256670 0.090520 -0.535789
O12   O     O_R   0.049210 0.756670 0.909480 -0.535791
O13   O     O_R   0.927720 0.590370 0.921470 -0.540755
O14   O     O_R   0.072280 0.090370 0.078530 -0.540754
C53   C     C_R   0.913422 0.422970 0.891573 0.694400
C54   C     C_R   0.086575 0.922977 0.108431 0.694404
O15   O     O_R   0.943270 0.586180 0.090640 -0.538535
O16   O     O_R   0.056730 0.086180 0.909360 -0.538535
O17   O     O_R   0.064850 0.759970 0.079840 -0.539843
O18   O     O_R   0.935150 0.259970 0.920160 -0.539844
C55   C     C_R   0.927961 0.418263 0.116412 0.708667
C56   C     C_R   0.072035 0.918261 0.883585 0.708681
O19   O     O_3   0.039850 0.428050 0.996240 -0.372052
O20   O     O_3   0.960150 0.928050 0.003760 -0.372060
V3    V     V_3+5 0.992610 0.701540 0.000700 1.421199
V4    V     V_3+5 0.007390 0.201540 0.999300 1.421206
I1    I     I_    0.281622 0.715152 0.575203 -0.483352
I2    I     I_    0.718354 0.214968 0.424737 -0.483415
I3    I     I_    0.077104 0.102527 0.566676 -0.361449
I4    I     I_    0.922900 0.602333 0.433352 -0.361460
C57   C     C_3   0.199693 0.936800 0.976450 -0.379933
C58   C     C_3   0.199764 0.152210 0.976539 -0.647589
H11   H     H_    0.249024 0.203513 0.967990 0.241531
H12   H     H_    0.167857 0.210784 0.927381 0.234511
H13   H     H_    0.184553 0.205881 0.035272 0.225620
H14   H     H_    0.154110 0.874947 0.991092 0.172671
H15   H     H_    0.233369 0.895747 0.027115 0.213127
C59   C     C_3   0.800300 0.436909 0.023551 -0.379915
C60   C     C_3   0.800243 0.652317 0.023487 -0.647589
H16   H     H_    0.750986 0.703643 0.032036 0.241522
H17   H     H_    0.832151 0.710850 0.072655 0.234504
H18   H     H_    0.815464 0.706005 0.964764 0.225620
H19   H     H_    0.845880 0.375044 0.008903 0.172647
H20   H     H_    0.766621 0.395893 0.972881 0.213143
C61   C     C_3   0.163494 0.207967 0.364051 -0.353421
C62   C     C_3   0.160035 0.415916 0.339131 -0.701150
H21   H     H_    0.202586 0.458366 0.306528 0.221211
H22   H     H_    0.116770 0.442612 0.299095 0.218674
H23   H     H_    0.157126 0.505676 0.393584 0.256876
H24   H     H_    0.115185 0.165059 0.382125 0.220888
H25   H     H_    0.193245 0.190770 0.419376 0.214630
C63   C     C_3   0.836463 0.707893 0.635952 -0.353487
C64   C     C_3   0.839989 0.915855 0.660857 -0.701125
H26   H     H_    0.797476 0.958412 0.693512 0.221194
H27   H     H_    0.883290 0.942503 0.700839 0.218678
H28   H     H_    0.842876 0.005571 0.606389 0.256834
H29   H     H_    0.884750 0.664871 0.617839 0.220901
H30   H     H_    0.806679 0.690759 0.580645 0.214809
I5    I     I_    0.430687 0.603025 0.233845 -0.351477
I6    I     I_    0.569306 0.102820 0.766124 -0.351553
C65   C     C_3   0.313252 0.176846 0.388493 -0.337412
C66   C     C_3   0.311188 0.165223 0.480549 -0.660675
H31   H     H_    0.314194 0.309194 0.506462 0.241282
H32   H     H_    0.351450 0.082885 0.507360 0.231133
H33   H     H_    0.267111 0.097028 0.499848 0.222604
H34   H     H_    0.282138 0.291295 0.365383 0.189579
H35   H     H_    0.360575 0.230473 0.372092 0.218198
C67   C     C_3   0.686712 0.676968 0.611676 -0.337039
C68   C     C_3   0.688938 0.665509 0.519639 -0.663108
H36   H     H_    0.648304 0.585228 0.492593 0.232032
H37   H     H_    0.732697 0.595364 0.500504 0.223011
H38   H     H_    0.686791 0.809587 0.493857 0.241574
H39   H     H_    0.717809 0.791343 0.634919 0.189566
H40   H     H_    0.639363 0.730558 0.627994 0.218336
I7    I     I_    0.506338 0.632772 0.772293 -0.354906
I8    I     I_    0.493624 0.132940 0.227690 -0.354855
I9    I     I_    0.311922 0.595449 0.987891 -0.515280
I10   I     I_    0.688063 0.095567 0.012076 -0.515284
C69   C     C_3   0.427793 0.863335 0.913490 -0.319202
C70   C     C_3   0.407293 0.045499 0.954221 -0.637431
H41   H     H_    0.404281 0.162809 0.909882 0.244350
H42   H     H_    0.360467 0.028794 0.981546 0.244101
H43   H     H_    0.443191 0.083353 0.003278 0.237468
H44   H     H_    0.428976 0.744028 0.956122 0.228521
H45   H     H_    0.478668 0.885651 0.900138 0.223621
C71   C     C_3   0.572194 0.363436 0.086499 -0.319200
C72   C     C_3   0.592695 0.545615 0.045786 -0.637426
H46   H     H_    0.595700 0.662915 0.090135 0.244348
H47   H     H_    0.639525 0.528928 0.018467 0.244099
H48   H     H_    0.556801 0.583475 0.996727 0.237457
H49   H     H_    0.571013 0.244143 0.043856 0.228521
H50   H     H_    0.521318 0.385744 0.099849 0.223628

loop_
_geom_bond_atom_site_label_1
_geom_bond_atom_site_label_2
_ccdc_geom_bond_type
C66   H31   S    
C2    C27   S    
C15   C17   A    
C25   C69   S    
C57   C58   S    
O1    C3    A    
O2    C4    A    
C2    O7    A    
O3    V1    S    
C29   C31   A    
C10   H6    S    
O14   V4    S    
C46   C59   S    
O13   V3    S    
C21   H3    S    
C63   H30   S    
C22   H4    S    
C30   H8    S    
C28   C48   A    
C34   H10   S    
C54   O17   A    
C53   O18   A    
O14   C54   A    
C39   C41   A    
C40   C42   A    
C69   C70   S    
C58   H13   S    
C45   C57   S    
C12   I6    S    
C63   C64   S    
C42   C44   A    
C72   H48   S    
C43   C45   A    
C13   C65   S    
C62   H21   S    
C29   C51   A    
C44   C46   A    
O11   V4    S    
O19   V4    S    
C65   H34   S    
C40   C48   A    
C8    C12   A    
C6    C53   S    
C31   C33   A    
C37   C45   A    
C27   C49   A    
C68   H38   S    
C32   C34   A    
C72   H46   S    
C38   C46   A    
C59   H20   S    
C20   H2    S    
C49   I7    S    
C23   C61   S    
C25   C41   A    
O12   V3    S    
O15   V3    S    
O5    V1    S    
O6    V2    S    
C71   H50   S    
C5    C21   A    
C44   I10   S    
C70   H43   S    
C34   C36   A    
C35   C37   A    
C69   H44   S    
O17   V3    S    
C36   C38   A    
C3    C8    S    
C41   C43   A    
C63   H29   S    
C70   H42   S    
C64   H28   S    
C30   C52   A    
C35   C39   A    
C57   H14   S    
C67   C68   S    
C48   I2    S    
C66   H33   S    
C15   C23   A    
C67   H39   S    
O16   C56   A    
C9    C17   A    
C30   C32   A    
C5    C54   S    
C26   C71   S    
C19   H1    S    
C58   H12   S    
C33   C35   A    
O4    V2    S    
O5    C3    A    
C28   C50   A    
C65   H35   S    
O6    C4    A    
C58   H11   S    
O13   C53   A    
C59   H19   S    
C60   H17   S    
O1    V2    S    
O2    V1    S    
C6    C22   A    
C62   H23   S    
C29   H7    S    
C37   C51   A    
C61   H24   S    
C9    H5    S    
C43   I9    S    
O20   V4    S    
C38   C52   A    
C71   H49   S    
C9    C11   A    
C27   C47   A    
C68   H36   S    
C5    C19   A    
C10   C12   A    
C50   I8    S    
O4    C2    A    
C6    C20   A    
C24   C63   S    
O12   C56   A    
C14   C67   S    
C7    C11   A    
O11   C55   A    
C36   C40   A    
O18   V4    S    
C47   I1    S    
C66   H32   S    
C10   C18   A    
O10   V1    S    
C32   I4    S    
C33   H9    S    
C39   C47   A    
C70   H41   S    
O3    C1    A    
C11   I5    S    
C13   C15   A    
C1    C28   S    
C14   C16   A    
O16   V4    S    
C64   H27   S    
O7    V1    S    
C1    O8    A    
C17   C19   A    
O8    V2    S    
C61   C62   S    
C18   C20   A    
C65   C66   S    
C8    C14   A    
C26   C42   A    
C4    C7    S    
C16   C18   A    
C21   C23   A    
C60   H18   S    
C22   C24   A    
C72   H47   S    
C59   C60   S    
C7    C13   A    
C62   H22   S    
C26   C50   A    
C61   H25   S    
C69   H45   S    
O20   V3    S    
C16   C24   A    
C25   C49   A    
O9    V2    S    
C60   H16   S    
C68   H37   S    
O19   V3    S    
C71   C72   S    
C31   I3    S    
C64   H26   S    
C52   C55   S    
C67   H40   S    
O15   C55   A    
C51   C56   S    
C57   H15   S    
