data_mof_unit_5092.cif
_audit_creation_date              2012-12-10T17:03:45-0500
_audit_creation_method            fapswitch 2.2
_symmetry_space_group_name_H-M    P1
_symmetry_Int_Tables_number       1
_space_group_crystal_system       triclinic
_cell_length_a                    10.089398
_cell_length_b                    10.671627
_cell_length_c                    13.224801
_cell_angle_alpha                 91.50288
_cell_angle_beta                  69.125659
_cell_angle_gamma                 92.574093
_cell_volume                      1329.03589357

loop_
_atom_site_label
_atom_site_type_symbol
_atom_type_description
_atom_site_fract_x
_atom_site_fract_y
_atom_site_fract_z
_atom_type_partial_charge
C1    C     C_R   0.502035 0.737270 0.502430 0.927607
C2    C     C_R   0.367309 0.506240 0.823312 -0.173215
C3    C     C_2   0.622713 0.069409 0.453453 -0.243925
C4    C     C_R   0.419772 0.497856 0.704419 0.859413
C5    C     C_2   0.504391 0.130549 0.464662 0.063248
C6    C     C_2   0.623310 0.934079 0.448805 -0.180090
C7    C     C_2   0.507703 0.869585 0.509819 -0.318032
C8    C     C_2   0.093288 0.415372 0.449972 0.238392
C9    C     C_2   0.935839 0.404941 0.473492 -0.026118
C10   C     C_R   0.500134 0.262098 0.492973 0.876004
C11   C     C_R   0.579594 0.499742 0.295410 0.877609
C12   C     C_R   0.446660 0.524069 0.977682 0.048356
C13   C     C_R   0.779582 0.408041 0.003443 0.169761
C14   C     C_R   0.627467 0.491360 0.176759 -0.146491
C15   C     C_R   0.248407 0.578135 0.879486 -0.039991
C16   C     C_R   0.235449 0.630205 0.979697 -0.215402
C17   C     C_R   0.339233 0.613723 0.024431 -0.005523
C18   C     C_1   0.876388 0.443444 0.149314 0.187284
C19   C     C_3   0.249707 0.068228 0.513783 -0.752722
C20   C     C_3   0.161614 0.300552 0.277078 -0.805920
C21   C     C_3   0.963362 0.663755 0.377314 -0.673896
C22   C     C_3   0.904254 0.214997 0.956290 -0.799457
C23   C     C_R   0.456809 0.468034 0.877286 0.072674
C24   C     C_1   0.146298 0.612487 0.832233 0.182564
C25   C     C_1   0.341023 0.704140 0.107489 0.129375
C26   C     C_R   0.548514 0.491489 0.023389 0.030907
C27   C     C_R   0.669510 0.423604 0.962542 0.125127
C28   C     C_R   0.673436 0.366658 0.865476 -0.209466
C29   C     C_R   0.562649 0.380315 0.828662 -0.192778
C30   C     C_R   0.524950 0.512607 0.131810 -0.262856
C31   C     C_R   0.761103 0.449632 0.109643 -0.071760
H1    H     H_    0.718973 0.887966 0.398773 0.166699
H2    H     H_    0.416927 0.002356 0.377283 0.255615
H3    H     H_    0.211757 0.968764 0.529098 0.227487
H4    H     H_    0.176755 0.115710 0.482776 0.262978
H5    H     H_    0.244992 0.112770 0.591881 0.237275
H6    H     H_    0.284982 0.327627 0.370464 0.301271
H7    H     H_    0.232676 0.225494 0.231957 0.245752
H8    H     H_    0.190743 0.386937 0.227718 0.257652
H9    H     H_    0.051139 0.267859 0.289412 0.253229
H10   H     H_    0.851759 0.680190 0.541179 0.246975
H11   H     H_    0.012792 0.759286 0.374693 0.209791
H12   H     H_    0.415252 0.914329 0.565479 0.172280
H13   H     H_    0.872692 0.668490 0.348890 0.252123
H14   H     H_    0.044282 0.602158 0.321972 0.245022
H15   H     H_    0.997982 0.393134 0.940519 0.242038
H16   H     H_    0.001474 0.174638 0.897169 0.242535
H17   H     H_    0.810369 0.167281 0.944846 0.247201
H18   H     H_    0.901539 0.197114 0.039429 0.245810
H19   H     H_    0.078978 0.548132 0.561951 0.185591
H20   H     H_    0.890514 0.313505 0.463494 0.121327
H21   H     H_    0.758926 0.307191 0.819483 0.175620
H22   H     H_    0.419786 0.535016 0.184500 0.192413
H23   H     H_    0.150625 0.694015 0.018444 0.152477
H24   H     H_    0.564320 0.325509 0.758177 0.159235
H25   H     H_    0.717283 0.117566 0.458628 0.160923
N1    N     N_2   0.148270 0.498670 0.498870 -0.212083
N2    N     N_2   0.852610 0.498640 0.498840 -0.047665
N3    N     N_1   0.969588 0.439605 0.180349 -0.234973
N4    N     N_2   0.392271 0.074531 0.433558 -0.301222
N5    N     N_2   0.180187 0.323633 0.379438 -0.315264
N6    N     N_2   0.915676 0.617504 0.486965 -0.263020
N7    N     N_2   0.906196 0.348409 0.938655 -0.312735
N8    N     N_1   0.064235 0.640003 0.794737 -0.212691
N9    N     N_1   0.342025 0.776879 0.173736 -0.211161
O1    O     O_R   0.386950 0.680940 0.500020 -0.598706
O2    O     O_R   0.613110 0.680900 0.499980 -0.617045
O3    O     O_R   0.330780 0.500000 0.653640 -0.600619
O4    O     O_R   0.556930 0.499960 0.653610 -0.600183
O5    O     O_R   0.386890 0.319100 0.500020 -0.615209
O6    O     O_R   0.613050 0.319060 0.499980 -0.644185
O7    O     O_R   0.443070 0.500040 0.346390 -0.627900
O8    O     O_R   0.669220 0.500000 0.346360 -0.602698
Zn1   Zn    Zn3+2 0.349000 0.500030 0.500020 0.947166
Zn2   Zn    Zn3+2 0.651000 0.499970 0.499980 0.940194

loop_
_geom_bond_atom_site_label_1
_geom_bond_atom_site_label_2
_ccdc_geom_bond_type
N1    Zn1   S    
O5    Zn1   S    
C22   H17   S    
N2    N6    S    
C6    C7    D    
C7    H12   S    
C8    N1    D    
C21   H13   S    
C20   H7    S    
C3    H25   S    
C8    N5    S    
C2    C4    S    
C9    H20   S    
C14   C31   A    
C3    C6    S    
C17   C25   S    
C10   O6    A    
C22   H16   S    
C21   N6    S    
C5    C10   S    
C24   N8    T    
C11   C14   S    
C19   H4    S    
C12   C17   A    
O6    Zn2   S    
C2    C15   A    
C28   H21   S    
C12   C23   A    
C26   C27   A    
C16   C17   A    
H15   N7    S    
H10   N6    S    
C14   C30   A    
C22   H18   S    
C23   C29   A    
C28   C29   A    
C1    O2    A    
C13   N7    S    
N2    Zn2   S    
C26   C30   A    
H2    N4    S    
C21   H14   S    
C19   H5    S    
C20   H9    S    
C30   H22   S    
C16   H23   S    
O2    Zn2   S    
O8    Zn2   S    
O4    Zn2   S    
O3    Zn1   S    
C21   H11   S    
O1    Zn1   S    
C10   O5    A    
C18   N3    T    
C2    C23   A    
C25   N9    T    
H6    N5    S    
O7    Zn1   S    
C9    N2    D    
C11   O8    A    
C20   N5    S    
C4    O3    A    
C20   H8    S    
C11   O7    A    
C4    O4    A    
C19   N4    S    
C18   C31   S    
C29   H24   S    
C5    N4    S    
C3    C5    D    
C22   N7    S    
C1    C7    S    
H19   N1    S    
C15   C24   S    
C13   C31   A    
C13   C27   A    
C15   C16   A    
C6    H1    S    
C12   C26   A    
C8    C9    S    
C27   C28   A    
C19   H3    S    
C1    O1    A    
