data_mof_unit_40351.cif
_audit_creation_date              2012-12-10T19:04:44-0500
_audit_creation_method            fapswitch 2.2
_symmetry_space_group_name_H-M    P1
_symmetry_Int_Tables_number       1
_space_group_crystal_system       triclinic
_cell_length_a                    15.835579
_cell_length_b                    10.820527
_cell_length_c                    9.653325
_cell_angle_alpha                 89.88572
_cell_angle_beta                  89.614361
_cell_angle_gamma                 91.774204
_cell_volume                      1653.25614552

loop_
_atom_site_label
_atom_site_type_symbol
_atom_type_description
_atom_site_fract_x
_atom_site_fract_y
_atom_site_fract_z
_atom_type_partial_charge
C1    C     C_R   0.501059 0.262856 0.499848 0.837825
C2    C     C_3   0.083385 0.500301 0.501007 -0.195829
C3    C     C_3   0.974094 0.613959 0.539027 -0.226956
C4    C     C_3   0.916410 0.502282 0.497818 -0.204404
C5    C     C_3   0.030861 0.586792 0.412198 0.348072
C6    C     C_3   0.972621 0.476667 0.371448 0.244394
C7    C     C_1   0.174967 0.499342 0.501155 0.180872
C8    C     C_1   0.824843 0.502432 0.497801 0.187249
C9    C     C_R   0.543605 0.065270 0.604135 -0.056450
C10   C     C_R   0.505948 0.129862 0.496813 -0.082002
C11   C     C_R   0.476259 0.063951 0.380556 -0.126444
C12   C     C_R   0.340160 0.499797 0.500254 0.831463
C13   C     C_R   0.474134 0.935133 0.381540 -0.116555
C14   C     C_R   0.502353 0.870898 0.498022 -0.065359
C15   C     C_R   0.540387 0.937772 0.605373 -0.021845
C16   C     C_3   0.526980 0.933194 0.758505 1.023331
C17   C     C_3   0.533831 0.074158 0.757919 0.112593
C18   C     C_R   0.573836 0.501767 0.071231 0.043381
C19   C     C_R   0.427575 0.482746 0.075382 0.668455
C20   C     C_R   0.428355 0.467613 0.929586 0.370644
C21   C     C_R   0.573567 0.500832 0.926232 0.157006
C22   C     C_3   0.651096 0.580184 0.912863 -0.399163
C23   C     C_R   0.499271 0.737266 0.499893 0.831848
C24   C     C_3   0.651719 0.585874 0.071496 0.248277
C25   C     C_R   0.659793 0.500518 0.499598 0.827947
C26   C     C_3   0.969004 0.415936 0.586531 0.353416
C27   C     C_3   0.025375 0.390102 0.460364 0.555766
C28   C     C_1   0.250514 0.499398 0.500740 -0.002557
C29   C     C_1   0.749342 0.501664 0.498503 -0.065279
C30   C     C_3   0.027606 0.526189 0.629105 -0.299735
Cu1   Cu    Cu3+1 0.500000 0.499980 0.640670 1.107171
Cu2   Cu    Cu3+1 0.500000 0.500020 0.359330 1.102200
H1    H     H_    0.475120 0.119594 0.791243 0.144267
H2    H     H_    0.704822 0.528352 0.869953 0.216260
H3    H     H_    0.639123 0.667950 0.858403 0.277671
H4    H     H_    0.707327 0.541067 0.117126 0.154922
H5    H     H_    0.952214 0.706436 0.570036 0.234649
H6    H     H_    0.050885 0.545223 0.735411 0.227432
H7    H     H_    0.450203 0.111360 0.292392 0.190572
H8    H     H_    0.446082 0.886240 0.294808 0.197257
N1    N     N_R   0.500530 0.500930 0.147930 -0.252005
N2    N     N_R   0.500530 0.500890 0.852020 -0.248803
O1    O     O_R   0.500000 0.319640 0.618810 -0.530894
O2    O     O_R   0.500010 0.319680 0.381230 -0.587005
O3    O     O_R   0.379070 0.499970 0.618770 -0.516874
O4    O     O_R   0.379080 0.500010 0.381190 -0.507876
O5    O     O_R   0.499990 0.680320 0.618770 -0.548784
O6    O     O_R   0.500000 0.680360 0.381190 -0.528175
O7    O     O_R   0.620920 0.499990 0.618810 -0.567993
O8    O     O_R   0.620930 0.500030 0.381230 -0.568147
F1    F     F_    0.052341 0.275004 0.420775 -0.535120
F2    F     F_    0.591351 0.875085 0.825675 -0.603926
S1    S     S_3+6 0.628013 0.136784 0.837170 0.090099
O9    O     O_2   0.640739 0.270018 0.796433 -0.276467
O10   O     O_2   0.618856 0.127345 0.991929 -0.250081
O11   O     O_3   0.712601 0.058319 0.785102 -0.414053
H9    H     H_    0.760622 0.095091 0.837662 0.411967
F3    F     F_    0.352358 0.474011 0.142035 -0.570223
S2    S     S_3+6 0.338495 0.379870 0.867776 0.101026
O12   O     O_2   0.358932 0.296852 0.748861 -0.296103
O13   O     O_2   0.303583 0.298257 0.982239 -0.201454
O14   O     O_3   0.262887 0.477845 0.822698 -0.486665
H10   H     H_    0.211436 0.424924 0.809154 0.382014
S3    S     S_3+6 0.638086 0.740467 0.132040 0.098132
O15   O     O_2   0.656412 0.747911 0.284219 -0.270339
O16   O     O_2   0.699489 0.825723 0.056442 -0.171652
O17   O     O_3   0.538869 0.783609 0.101022 -0.494175
H11   H     H_    0.542596 0.875005 0.094999 0.400307
S4    S     S_3+6 0.926658 0.301400 0.702547 0.074458
O18   O     O_2   0.869057 0.361170 0.805202 -0.278151
O19   O     O_2   0.877702 0.204994 0.621818 -0.203442
O20   O     O_3   0.006291 0.235290 0.786446 -0.473260
H12   H     H_    0.978390 0.179944 0.855888 0.398335
S5    S     S_3+6 0.935781 0.441850 0.201328 0.122684
O21   O     O_2   0.880026 0.326990 0.205805 -0.211362
O22   O     O_2   0.886313 0.548122 0.148118 -0.254376
O23   O     O_3   0.019089 0.418755 0.096668 -0.424603
H13   H     H_    0.997034 0.426918 0.001448 0.395624
S6    S     S_3+6 0.073598 0.702633 0.297957 0.108576
O24   O     O_2   0.127363 0.793109 0.379144 -0.236074
O25   O     O_2   0.126651 0.643033 0.188708 -0.199756
O26   O     O_3   0.994160 0.776894 0.222940 -0.442606
H14   H     H_    0.022144 0.836624 0.158243 0.397984
F4    F     F_    0.447441 0.887410 0.796066 -0.643127

loop_
_geom_bond_atom_site_label_1
_geom_bond_atom_site_label_2
_ccdc_geom_bond_type
Cu1   N2    S    
S4    O20   S    
C18   C21   A    
C2    C7    S    
C4    C8    S    
O23   H13   S    
C22   H3    S    
C26   C27   S    
C24   H4    S    
Cu1   O1    S    
C12   C28   S    
C18   C24   S    
C8    C29   T    
C5    C6    S    
C15   C16   S    
C16   F4    S    
O11   H9    S    
C30   H6    S    
S4    O19   D    
C25   O8    A    
C13   H8    S    
C1    O1    A    
Cu1   Cu2   S    
C16   C17   S    
S5    O23   S    
Cu2   N1    S    
C2    C27   S    
C5    S6    S    
C9    C10   A    
S2    O12   D    
C24   S3    S    
Cu1   O5    S    
C13   C14   A    
Cu2   O6    S    
C17   H1    S    
Cu1   O7    S    
C27   F1    S    
C6    S5    S    
S1    O10   D    
C19   F3    S    
C25   C29   S    
C22   H2    S    
S2    O13   D    
C23   O5    A    
S5    O21   D    
O17   H11   S    
S3    O17   S    
C4    C6    S    
C18   N1    A    
S6    O25   D    
O20   H12   S    
S1    O9    D    
C7    C28   T    
C21   N2    A    
S3    O16   D    
C14   C23   S    
C3    C30   S    
O14   H10   S    
C1    O2    A    
C20   N2    A    
C6    C27   S    
Cu2   O2    S    
C20   S2    S    
C11   H7    S    
Cu2   O8    S    
S5    O22   D    
C12   O4    A    
C26   C30   S    
C22   C24   S    
C2    C5    S    
C3    C4    S    
C17   S1    S    
S1    O11   S    
C9    C17   S    
S2    O14   S    
C23   O6    A    
Cu2   O4    S    
C1    C10   S    
C16   F2    S    
C12   O3    A    
C3    C5    S    
S6    O26   S    
C4    C26   S    
C2    C30   S    
S3    O15   D    
C19   C20   A    
C9    C15   A    
C11   C13   A    
S4    O18   D    
C25   O7    A    
C10   C11   A    
S6    O24   D    
C3    H5    S    
O26   H14   S    
Cu1   O3    S    
C26   S4    S    
C14   C15   A    
C21   C22   S    
C19   N1    A    
