data_mof_unit_29136.cif
_audit_creation_date              2012-12-11T17:41:40-0500
_audit_creation_method            fapswitch 2.2
_symmetry_space_group_name_H-M    P1
_symmetry_Int_Tables_number       1
_space_group_crystal_system       triclinic
_cell_length_a                    15.46893
_cell_length_b                    14.849006
_cell_length_c                    15.160986
_cell_angle_alpha                 109.605319
_cell_angle_beta                  121.302776
_cell_angle_gamma                 59.380757
_cell_volume                      2548.71444156

loop_
_atom_site_label
_atom_site_type_symbol
_atom_type_description
_atom_site_fract_x
_atom_site_fract_y
_atom_site_fract_z
_atom_type_partial_charge
C1    C     C_R   0.758635 0.991128 0.790075 -0.120962
C2    C     C_R   0.338144 0.386441 0.105452 -0.091285
C3    C     C_R   0.603032 0.721604 0.856139 -0.135114
C4    C     C_R   0.404702 0.279606 0.092591 -0.150716
C5    C     C_R   0.644505 0.784266 0.945855 0.121817
C6    C     C_R   0.357645 0.206451 0.046957 0.129963
C7    C     C_R   0.759399 0.744722 0.011006 -0.178146
C8    C     C_R   0.243072 0.241552 0.013571 -0.177033
C9    C     C_R   0.831342 0.645020 0.986146 -0.111901
C10   C     C_R   0.177261 0.348217 0.029042 -0.126239
C11   C     C_R   0.789379 0.583804 0.896398 -0.096824
C12   C     C_R   0.199921 0.058679 0.225076 -0.129494
C13   C     C_R   0.224729 0.420687 0.074726 -0.104692
C14   C     C_R   0.574520 0.921229 0.069579 -0.244417
C15   C     C_R   0.417936 0.066127 0.923089 -0.232698
C16   C     C_R   0.201403 0.276243 0.444072 -0.119257
C17   C     C_R   0.775689 0.711767 0.524519 -0.132370
C18   C     C_R   0.504004 0.022264 0.094590 0.064661
C19   C     C_R   0.489887 0.966226 0.898349 0.062613
C20   C     C_R   0.425550 0.095871 0.021705 0.005561
C21   C     C_R   0.568578 0.891699 0.970845 0.016566
C22   C     C_2   0.025997 0.349548 0.468391 -0.206381
C23   C     C_R   0.139864 0.275718 0.485301 0.145219
C24   C     C_2   0.872323 0.604870 0.406750 -0.220440
C25   C     C_2   0.964932 0.417329 0.396939 -0.102870
C26   C     C_2   0.875778 0.514467 0.410405 -0.106490
C27   C     C_2   0.853189 0.115082 0.897166 -0.220060
C28   C     C_2   0.018003 0.044322 0.153449 -0.219593
C29   C     C_R   0.082933 0.727878 0.215416 -0.138418
C30   C     C_R   0.800477 0.115642 0.352308 -0.122050
C31   C     C_R   0.185577 0.661504 0.284127 -0.178794
C32   C     C_R   0.701485 0.202771 0.347706 -0.152468
C33   C     C_R   0.284294 0.635814 0.279525 0.107691
C34   C     C_R   0.808807 0.702656 0.451529 0.148927
C35   C     C_R   0.703753 0.289721 0.422676 0.121289
C36   C     C_R   0.278313 0.679064 0.205965 -0.167438
C37   C     C_R   0.807063 0.287600 0.502274 -0.178679
C38   C     C_R   0.175384 0.745350 0.137357 -0.092844
C39   C     C_R   0.905805 0.200140 0.506670 -0.110303
C40   C     C_R   0.593198 0.217616 0.489268 -0.145681
C41   C     C_R   0.404135 0.769913 0.445608 -0.139086
C42   C     C_R   0.077741 0.768894 0.141451 -0.111935
C43   C     C_R   0.902562 0.114393 0.431613 -0.078588
C44   C     C_R   0.397911 0.462336 0.347485 -0.237616
C45   C     C_R   0.501947 0.299556 0.431801 0.061078
C46   C     C_R   0.593595 0.482513 0.421082 -0.242513
C47   C     C_R   0.500641 0.379329 0.393600 0.061546
C48   C     C_R   0.492226 0.571731 0.400354 0.062673
C49   C     C_R   0.598645 0.384074 0.414221 0.024599
C50   C     C_R   0.392475 0.557813 0.345398 0.017721
C51   C     C_2   0.866865 0.102334 0.987629 -0.108596
C52   C     C_2   0.961943 0.111727 0.082036 -0.107759
C53   C     C_R   0.404329 0.997421 0.716788 -0.147616
C54   C     C_R   0.593704 0.000404 0.280004 -0.152761
C55   C     C_R   0.409096 0.289681 0.412459 -0.114373
C56   C     C_R   0.494389 0.674465 0.451076 0.057361
C57   C     C_R   0.588725 0.692911 0.522349 -0.119508
C58   C     C_R   0.589797 0.923777 0.794344 -0.124212
C59   C     C_R   0.407996 0.070857 0.202953 -0.114176
C60   C     C_R   0.200470 0.185317 0.534921 -0.146033
C61   C     C_R   0.768025 0.802285 0.426781 -0.144822
C62   C     C_R   0.758795 0.084161 0.700112 -0.148528
C63   C     C_R   0.195637 0.970243 0.314869 -0.135103
C64   C     C_R   0.790601 0.067174 0.799580 0.147567
C65   C     C_R   0.134698 0.021575 0.225889 0.151803
C66   C     C_R   0.494852 0.953472 0.804063 0.054130
C67   C     C_R   0.501801 0.040278 0.191186 0.058756
C68   C     C_R   0.675347 0.622027 0.831503 -0.109494
H1    H     H_    0.774038 0.955974 0.851354 0.086688
H2    H     H_    0.491860 0.254370 0.114565 0.108314
H3    H     H_    0.793517 0.791772 0.080046 0.101136
H4    H     H_    0.204921 0.186401 0.975280 0.105842
H5    H     H_    0.919738 0.615418 0.036215 0.108326
H6    H     H_    0.089165 0.374930 0.004071 0.103301
H7    H     H_    0.631388 0.863773 0.126018 0.133132
H8    H     H_    0.361061 0.124609 0.867621 0.136988
H9    H     H_    0.827215 0.512780 0.441482 0.124898
H10   H     H_    0.993399 0.412416 0.342741 0.123939
H11   H     H_    0.921514 0.606194 0.376150 0.128513
H12   H     H_    0.175287 0.112692 0.174856 0.081757
H13   H     H_    0.996753 0.356074 0.522768 0.130213
H14   H     H_    0.997976 0.818752 0.087167 0.098915
H15   H     H_    0.979151 0.046999 0.434913 0.092805
H16   H     H_    0.175185 0.329078 0.391800 0.081646
H17   H     H_    0.806320 0.650987 0.570142 0.086530
H18   H     H_    0.007270 0.746663 0.218848 0.103889
H19   H     H_    0.798051 0.049212 0.294140 0.100740
H20   H     H_    0.187963 0.629650 0.340375 0.110816
H21   H     H_    0.623164 0.202503 0.285780 0.113687
H22   H     H_    0.353050 0.659704 0.200397 0.118204
H23   H     H_    0.981594 0.997299 0.151726 0.130108
H24   H     H_    0.811261 0.353253 0.561216 0.102416
H25   H     H_    0.171200 0.777711 0.080338 0.117213
H26   H     H_    0.984916 0.198983 0.568203 0.095843
H27   H     H_    0.321014 0.454223 0.313808 0.127566
H28   H     H_    0.669187 0.489784 0.445271 0.118541
H29   H     H_    0.679687 0.193852 0.511590 0.116160
H30   H     H_    0.317054 0.787174 0.404339 0.121775
H31   H     H_    0.317367 0.023567 0.696217 0.093739
H32   H     H_    0.679719 0.975877 0.298651 0.092857
H33   H     H_    0.675047 0.881106 0.846444 0.102781
H34   H     H_    0.898955 0.150394 0.895503 0.127897
H35   H     H_    0.321828 0.107054 0.149339 0.096549
H36   H     H_    0.170794 0.154373 0.563690 0.087659
H37   H     H_    0.782688 0.823519 0.375885 0.092500
H38   H     H_    0.772457 0.137474 0.679838 0.101660
H39   H     H_    0.162914 0.945357 0.345949 0.097557
H40   H     H_    0.996596 0.160015 0.083176 0.123862
H41   H     H_    0.821779 0.066969 0.990190 0.127214
H42   H     H_    0.323745 0.330949 0.359836 0.085656
H43   H     H_    0.672314 0.634285 0.554528 0.084419
H44   H     H_    0.845237 0.506760 0.877139 0.095454
H45   H     H_    0.173416 0.503416 0.085198 0.125805
H46   H     H_    0.642954 0.574511 0.761999 0.112452
H47   H     H_    0.374493 0.442707 0.138567 0.123516
H48   H     H_    0.514857 0.749947 0.805179 0.110683
N1    N     N_R   0.705410 0.966550 0.689210 -0.046319
N2    N     N_R   0.556610 0.796750 0.548620 -0.038469
N3    N     N_R   0.556610 0.951620 0.703500 -0.040599
N4    N     N_R   0.443390 0.048380 0.296500 -0.040802
N5    N     N_R   0.294590 0.131500 0.522480 -0.041225
N6    N     N_R   0.705410 0.868500 0.477520 -0.041736
N7    N     N_R   0.705410 0.023370 0.632390 -0.043570
N8    N     N_R   0.294590 0.976630 0.367610 -0.044361
N9    N     N_R   0.294590 0.033450 0.310790 -0.044466
N10   N     N_R   0.294590 0.188320 0.465660 -0.044528
N11   N     N_R   0.705410 0.811680 0.534340 -0.043413
N12   N     N_R   0.556610 0.157790 0.497330 -0.039363
N13   N     N_R   0.443390 0.842210 0.502670 -0.042702
N14   N     N_R   0.443390 0.997080 0.657540 -0.036809
N15   N     N_R   0.556610 0.002920 0.342460 -0.034603
N16   N     N_R   0.443390 0.203250 0.451380 -0.040555
Ni1   Ni    Ni4+2 0.629830 0.882720 0.617850 0.216134
Ni2   Ni    Ni4+2 0.370170 0.117280 0.382150 0.207517
Ni3   Ni    Ni4+2 0.629830 0.013030 0.487540 0.215831
Ni4   Ni    Ni4+2 0.370170 0.986970 0.512460 0.206712

loop_
_geom_bond_atom_site_label_1
_geom_bond_atom_site_label_2
_ccdc_geom_bond_type
N9    Ni2   S    
C41   N13   A    
C63   C65   A    
C59   N4    A    
C45   C55   A    
C29   C42   A    
N4    N15   A    
C43   H15   S    
C14   C18   A    
C3    C68   A    
C42   H14   S    
N1    Ni1   S    
C33   C36   A    
C4    H2    S    
C63   N8    A    
C47   C49   A    
C53   H31   S    
C15   C19   A    
C54   N15   A    
C46   C49   A    
N3    Ni1   S    
C17   H17   S    
C14   C21   A    
C35   C37   A    
C24   C26   D    
C38   C42   A    
N15   Ni3   S    
C3    H48   S    
C7    H3    S    
C36   H22   S    
C40   N12   A    
C16   H16   S    
N3    N14   A    
C56   C57   A    
C19   C66   S    
C48   C56   S    
N6    N11   A    
C2    C13   A    
C62   C64   A    
C59   C67   A    
C58   C66   A    
C22   C25   D    
C35   C49   S    
C31   C33   A    
C10   H6    S    
C61   H37   S    
N4    Ni2   S    
C44   C47   A    
C48   C50   A    
C15   H8    S    
C51   H41   S    
C54   H32   S    
C23   C60   A    
C9    H5    S    
N12   N16   A    
C62   N7    A    
C25   C26   S    
C27   C51   D    
C45   C47   S    
C40   C45   A    
C37   C39   A    
C46   C48   A    
C8    H4    S    
C26   H9    S    
N8    Ni4   S    
C51   C52   S    
C22   H13   S    
C4    C6    A    
N12   Ni3   S    
C40   H29   S    
C5    C7    A    
C17   N11   A    
C39   C43   A    
C12   N9    A    
C33   C50   S    
C34   C61   A    
C24   C34   S    
C25   H10   S    
N7    Ni3   S    
C61   N6    A    
C2    C4    A    
C32   C35   A    
C41   C56   A    
N13   Ni4   S    
C2    H47   S    
C24   H11   S    
C32   H21   S    
C15   C20   A    
C46   H28   S    
C58   H33   S    
C1    N1    A    
C53   C66   A    
C9    C11   A    
C52   H40   S    
C29   H18   S    
N2    Ni1   S    
C62   H38   S    
N16   Ni2   S    
C39   H26   S    
C55   H42   S    
C30   C43   A    
C17   C34   A    
C63   H39   S    
C1    C64   A    
C11   C68   A    
C44   C50   A    
C7    C9    A    
C31   H20   S    
C37   H24   S    
C19   C21   A    
C11   H44   S    
C22   C23   S    
N14   Ni4   S    
N11   Ni1   S    
C3    C5    A    
C10   C13   A    
C6    C8    A    
C54   C67   A    
C16   C23   A    
C6    C20   S    
C12   C65   A    
C27   H34   S    
C59   H35   S    
C14   H7    S    
C36   C38   A    
C28   C65   S    
C18   C67   S    
N5    N10   A    
C29   C31   A    
C44   H27   S    
C30   C32   A    
C28   C52   D    
C57   H43   S    
C12   H12   S    
C38   H25   S    
C58   N3    A    
C28   H23   S    
C18   C20   A    
N5    Ni4   S    
N1    N7    A    
C60   N5    A    
C1    H1    S    
N6    Ni3   S    
C27   C64   S    
C5    C21   S    
N10   Ni2   S    
C8    C10   A    
C55   N16   A    
N2    N13   A    
C41   H30   S    
N8    N9    A    
C53   N14   A    
C30   H19   S    
C60   H36   S    
C16   N10   A    
C13   H45   S    
C68   H46   S    
C57   N2    A    
