data_mof_unit_48484.cif
_audit_creation_date              2012-12-11T14:51:51-0500
_audit_creation_method            fapswitch 2.2
_symmetry_space_group_name_H-M    P1
_symmetry_Int_Tables_number       1
_space_group_crystal_system       triclinic
_cell_length_a                    6.936745
_cell_length_b                    16.655701
_cell_length_c                    16.942529
_cell_angle_alpha                 101.354005
_cell_angle_beta                  90.171757
_cell_angle_gamma                 90.421067
_cell_volume                      1919.09766404

loop_
_atom_site_label
_atom_site_type_symbol
_atom_type_description
_atom_site_fract_x
_atom_site_fract_y
_atom_site_fract_z
_atom_type_partial_charge
O1    O     O_R   0.506340 0.439070 0.579550 -0.536800
O2    O     O_R   0.170010 0.404890 0.412100 -0.539223
O3    O     O_R   0.005010 0.560930 0.420450 -0.538816
C1    C     C_R   0.339515 0.381607 0.383219 0.696393
O4    O     O_R   0.176280 0.429360 0.578400 -0.542929
O5    O     O_R   0.011320 0.585570 0.587940 -0.537579
C2    C     C_R   0.343422 0.413756 0.605369 0.700740
O6    O     O_R   0.500030 0.414430 0.412060 -0.541506
O7    O     O_3   0.340950 0.551220 0.502940 -0.367458
V1    V     V_3+5 0.064020 0.490500 0.499460 1.394865
O8    O     O_R   0.681910 0.595110 0.587900 -0.541433
C3    C     C_R   0.851524 0.618418 0.616691 0.680946
O9    O     O_R   0.675640 0.570640 0.421600 -0.540994
C4    C     C_R   0.842767 0.585917 0.394383 0.692154
V2    V     V_3+5 0.564670 0.509500 0.500540 1.396731
O10   O     O_3   0.837610 0.448780 0.497060 -0.367746
C5    C     C_R   0.926812 0.863227 0.169367 -0.172776
C6    C     C_R   0.839779 0.638152 0.332381 -0.068502
C7    C     C_R   0.654803 0.691759 0.231035 -0.167007
C8    C     C_R   0.674579 0.636931 0.283303 -0.176156
C9    C     C_R   0.987473 0.694813 0.326680 -0.215104
C10   C     C_R   0.966962 0.751119 0.274845 0.085351
C11   C     C_R   0.799228 0.749876 0.226744 0.155617
C12   C     C_R   0.779704 0.805942 0.174581 -0.292198
C13   C     C_R   0.090609 0.866079 0.220607 0.467633
C14   C     C_R   0.110494 0.809528 0.271317 -0.273821
H1    H     H_    0.653699 0.802998 0.136072 0.155509
H2    H     H_    0.525207 0.689300 0.194722 0.118750
H3    H     H_    0.239410 0.811641 0.308041 0.141473
H4    H     H_    0.558225 0.593840 0.286112 0.119644
H5    H     H_    0.114304 0.697232 0.364656 0.120329
C15   C     C_3   0.808769 0.817972 0.731252 -0.141811
C16   C     C_3   0.978598 0.768543 0.687141 -0.139392
H6    H     H_    0.056990 0.783455 0.634772 0.101132
H7    H     H_    0.747815 0.874598 0.716251 0.097741
C17   C     C_3   0.865680 0.688681 0.687474 -0.007565
C18   C     C_3   0.695708 0.737290 0.730774 -0.116522
C19   C     C_3   0.787492 0.731385 0.812919 -0.139266
C20   C     C_3   0.957321 0.681956 0.768809 -0.140907
C21   C     C_3   0.070382 0.762638 0.769286 -0.116546
C22   C     C_3   0.900409 0.811247 0.812586 -0.003182
H8    H     H_    0.541334 0.726495 0.714390 0.105935
H9    H     H_    0.709098 0.716474 0.865288 0.101257
H10   H     H_    0.018274 0.625330 0.783810 0.099853
H11   H     H_    0.224755 0.773433 0.785671 0.104861
C23   C     C_3   0.556376 0.282701 0.275371 -0.176106
C24   C     C_3   0.494484 0.192483 0.272373 -0.216646
H12   H     H_    0.587154 0.145082 0.290468 0.115982
H13   H     H_    0.699457 0.309318 0.295883 0.118789
C25   C     C_3   0.408832 0.188862 0.187667 -0.076483
C26   C     C_3   0.467417 0.278179 0.191240 0.518485
C27   C     C_3   0.270931 0.308098 0.227593 -0.214072
C28   C     C_3   0.211179 0.217642 0.225020 -0.161917
C29   C     C_3   0.297257 0.221941 0.310393 -0.131808
C30   C     C_3   0.357682 0.311446 0.312299 -0.061212
H14   H     H_    0.178650 0.355507 0.209274 0.110122
H15   H     H_    0.068496 0.190430 0.204708 0.134457
H16   H     H_    0.225149 0.198907 0.360052 0.105331
C31   C     C_R   0.427684 0.139342 0.833202 -0.064392
C32   C     C_R   0.338900 0.360911 0.666916 -0.070321
C33   C     C_R   0.148789 0.303102 0.764188 -0.199433
C34   C     C_R   0.169342 0.358189 0.712287 -0.166820
C35   C     C_R   0.490375 0.307952 0.676233 -0.243949
C36   C     C_R   0.469657 0.251574 0.728078 0.160629
C37   C     C_R   0.297048 0.248774 0.772144 0.158707
C38   C     C_R   0.276281 0.192358 0.823948 -0.233019
C39   C     C_R   0.597308 0.142115 0.787886 -0.163243
C40   C     C_R   0.617923 0.197251 0.736040 -0.202270
H17   H     H_    0.145655 0.191624 0.858782 0.126523
H18   H     H_    0.716673 0.101926 0.793263 0.123769
H19   H     H_    0.015814 0.302515 0.797500 0.125287
H20   H     H_    0.750919 0.197854 0.702745 0.120127
H21   H     H_    0.049953 0.398361 0.706889 0.126765
H22   H     H_    0.620983 0.308670 0.641384 0.122521
O11   O     O_R   0.266070 0.085680 0.087850 -0.539481
O12   O     O_R   0.590090 0.070660 0.921580 -0.541561
O13   O     O_R   0.754780 0.914400 0.912080 -0.542455
C41   C     C_R   0.423004 0.086372 0.894634 0.702215
O14   O     O_R   0.596110 0.095130 0.087880 -0.533342
O15   O     O_R   0.760850 0.939050 0.079570 -0.539022
C42   C     C_R   0.426644 0.118605 0.116652 0.739390
O16   O     O_R   0.260010 0.061030 0.920360 -0.542361
O17   O     O_3   0.425070 0.948840 0.997010 -0.365798
V3    V     V_3+5 0.702100 0.009490 0.000550 1.439758
O18   O     O_R   0.090200 0.929250 0.078500 -0.512029
C43   C     C_R   0.923219 0.914418 0.106118 0.732560
O19   O     O_R   0.084180 0.904770 0.912200 -0.546984
C44   C     C_R   0.914570 0.881510 0.883369 0.662664
V4    V     V_3+5 0.201420 0.990350 0.999580 1.452144
O20   O     O_3   0.928580 0.051150 0.002990 -0.370861
O21   O     O_3   0.557542 0.303698 0.125707 -0.557149
C45   C     C_3   0.604404 0.387640 0.147264 -0.260459
H23   H     H_    0.713279 0.399294 0.196582 0.124618
H24   H     H_    0.474060 0.425494 0.164446 0.124635
H25   H     H_    0.669039 0.407386 0.094320 0.170479
O22   O     O_3   0.239406 0.921182 0.218433 -0.545176
C46   C     C_3   0.198592 0.993743 0.273959 -0.249080
H26   H     H_    0.181577 0.982165 0.336112 0.125689
H27   H     H_    0.068224 0.024195 0.255600 0.116161
H28   H     H_    0.321959 0.036468 0.274968 0.157963

loop_
_geom_bond_atom_site_label_1
_geom_bond_atom_site_label_2
_ccdc_geom_bond_type
O19   C44   A    
C6    C9    A    
C4    C6    S    
O2    C1    A    
C7    C8    A    
C12   H1    S    
O15   V3    S    
O12   V3    S    
C46   H26   S    
C8    H4    S    
C28   C29   S    
C9    H5    S    
C23   H13   S    
O16   V4    S    
C32   C35   A    
C36   C40   A    
C17   C18   S    
O12   C41   A    
C31   C38   A    
O5    C3    A    
O14   V3    S    
C38   H17   S    
V2    O10   S    
C16   C17   S    
C32   C34   A    
C18   H8    S    
O15   C43   A    
C31   C39   A    
C23   C24   S    
O8    V2    S    
O17   V3    S    
O13   C44   A    
C23   C30   S    
C11   C12   A    
C34   H21   S    
O1    V2    S    
C3    C17   S    
O7    V1    S    
C27   C30   S    
C1    O6    A    
C26   O21   S    
C33   H19   S    
O9    C4    A    
V3    O20   S    
C31   C41   S    
O4    V1    S    
C46   H27   S    
C16   H6    S    
C24   C25   S    
C21   H11   S    
O17   V4    S    
C5    C12   A    
C39   C40   A    
C25   C28   S    
C15   H7    S    
C19   C22   S    
C20   C21   S    
O14   C42   A    
C28   H15   S    
O11   C42   A    
O13   V3    S    
C13   C14   A    
O18   C43   A    
C23   C26   S    
C45   H25   S    
C5    C43   S    
C40   H20   S    
C16   C21   S    
C7    C11   A    
C18   C19   S    
C41   O16   A    
C24   H12   S    
C15   C22   S    
O22   C46   S    
C45   H24   S    
C25   C26   S    
C15   C18   S    
C7    H2    S    
O3    C4    A    
C14   H3    S    
C24   C29   S    
C21   C22   S    
O6    V2    S    
O19   V4    S    
C1    C30   S    
O2    V1    S    
C2    C32   S    
O21   C45   S    
C46   H28   S    
C27   C28   S    
O4    C2    A    
C29   H16   S    
C22   C44   S    
C29   C30   S    
O18   V4    S    
O1    C2    A    
C17   C20   S    
O5    V1    S    
O8    C3    A    
C20   H10   S    
C35   H22   S    
C39   H18   S    
C5    C13   A    
C15   C16   S    
O9    V2    S    
O7    V2    S    
C26   C27   S    
O3    V1    S    
V1    O10   S    
C36   C37   A    
C19   C20   S    
C45   H23   S    
C6    C8    A    
C33   C34   A    
O11   V4    S    
C35   C36   A    
C33   C37   A    
C19   H9    S    
C13   O22   S    
C37   C38   A    
C10   C14   A    
C10   C11   A    
V4    O20   S    
C9    C10   A    
C27   H14   S    
C25   C42   S    
