data_mof_unit_24899.cif
_audit_creation_date              2012-12-10T16:56:35-0500
_audit_creation_method            fapswitch 2.2
_symmetry_space_group_name_H-M    P1
_symmetry_Int_Tables_number       1
_space_group_crystal_system       triclinic
_cell_length_a                    10.785689
_cell_length_b                    10.927926
_cell_length_c                    9.721863
_cell_angle_alpha                 89.610051
_cell_angle_beta                  90.169605
_cell_angle_gamma                 90.262714
_cell_volume                      1145.82593741

loop_
_atom_site_label
_atom_site_type_symbol
_atom_type_description
_atom_site_fract_x
_atom_site_fract_y
_atom_site_fract_z
_atom_type_partial_charge
C1    C     C_R   0.501796 0.265440 0.500375 0.866098
C2    C     C_3   0.877068 0.487954 0.500389 -0.040410
C3    C     C_3   0.932010 0.620421 0.482519 -0.203380
C4    C     C_3   0.924848 0.407073 0.378454 -0.218685
C5    C     C_2   0.506793 0.933736 0.386966 -0.134392
C6    C     C_2   0.492893 0.866514 0.501577 -0.315827
C7    C     C_2   0.501094 0.067719 0.387260 -0.116872
C8    C     C_2   0.508801 0.133426 0.502992 -0.273589
C9    C     C_2   0.421655 0.436945 0.922137 -0.091478
C10   C     C_2   0.436385 0.423498 0.075890 -0.118331
C11   C     C_R   0.260506 0.490044 0.499754 0.834078
C12   C     C_R   0.498805 0.734533 0.499753 0.843053
C13   C     C_R   0.739435 0.495748 0.500340 0.707326
C14   C     C_3   0.071684 0.445525 0.646373 -0.176598
C15   C     C_3   0.926924 0.437018 0.642350 -0.208227
C16   C     C_3   0.074379 0.613628 0.465558 -0.437674
C17   C     C_3   0.067420 0.389142 0.391804 -0.140906
C18   C     C_3   0.122098 0.482762 0.499590 -0.032295
Cu1   Cu    Cu3+1 0.500030 0.500020 0.638630 0.959069
Cu2   Cu    Cu3+1 0.499970 0.499980 0.361370 0.998146
H1    H     H_    0.095743 0.522593 0.716315 0.112460
H2    H     H_    0.904607 0.458255 0.281802 0.192653
H3    H     H_    0.103619 0.639787 0.359786 0.205811
H4    H     H_    0.520622 0.889759 0.288349 0.192530
H5    H     H_    0.474351 0.906927 0.600625 0.161903
H6    H     H_    0.491886 0.113040 0.287965 0.177777
H7    H     H_    0.523394 0.091912 0.603021 0.154062
H8    H     H_    0.345427 0.389477 0.872881 0.177922
H9    H     H_    0.582671 0.521392 0.890050 0.211265
H10   H     H_    0.393189 0.344636 0.124108 0.204745
H11   H     H_    0.894123 0.499904 0.724265 0.124112
H12   H     H_    0.118400 0.681626 0.535489 0.165636
H13   H     H_    0.913605 0.671223 0.579293 0.121257
H14   H     H_    0.085473 0.295258 0.431629 0.244196
N1    N     N_2   0.498630 0.498660 0.846910 -0.299907
N2    N     N_2   0.498590 0.498630 0.153040 -0.223663
O1    O     O_R   0.500020 0.321960 0.617040 -0.562751
O2    O     O_R   0.499980 0.321920 0.382900 -0.588179
O3    O     O_R   0.317710 0.500000 0.617070 -0.574753
O4    O     O_R   0.317670 0.499960 0.382930 -0.602474
O5    O     O_R   0.500020 0.678080 0.617100 -0.572615
O6    O     O_R   0.499980 0.678040 0.382960 -0.561917
O7    O     O_R   0.682330 0.500040 0.617070 -0.604863
O8    O     O_R   0.682290 0.500000 0.382930 -0.550983
C19   C     C_2   0.872148 0.696530 0.369445 0.457360
H15   H     H_    0.800171 0.761292 0.395945 0.081925
O9    O     O_2   0.900136 0.684087 0.248730 -0.520439
C20   C     C_2   0.132329 0.334614 0.713963 0.453240
H16   H     H_    0.114912 0.316401 0.822109 0.082827
O10   O     O_2   0.199487 0.265374 0.650541 -0.540357
C21   C     C_2   0.524501 0.618725 0.102258 0.609944
H17   H     H_    0.461024 0.664832 0.032267 0.006009
O11   O     O_2   0.618996 0.671595 0.137920 -0.527733
C22   C     C_2   0.871560 0.313291 0.682468 0.311035
H18   H     H_    0.791566 0.310134 0.749895 0.107293
O12   O     O_2   0.912832 0.217286 0.638722 -0.523223
C23   C     C_2   0.124144 0.396534 0.249846 0.407525
H19   H     H_    0.124436 0.482198 0.192750 0.081016
O13   O     O_2   0.167968 0.305415 0.197184 -0.536842
C24   C     C_2   0.857464 0.286082 0.360092 0.473963
H20   H     H_    0.777559 0.262364 0.422350 0.073616
O14   O     O_2   0.889183 0.215489 0.270118 -0.500489

loop_
_geom_bond_atom_site_label_1
_geom_bond_atom_site_label_2
_ccdc_geom_bond_type
C2    C4    S    
C11   C18   S    
C15   H11   S    
C12   O5    A    
C16   H12   S    
C1    C8    S    
C4    H2    S    
C9    C10   S    
H9    N1    S    
Cu2   O6    S    
Cu1   Cu2   S    
C1    O1    A    
C4    C24   S    
C20   O10   D    
C17   C18   S    
C7    C8    D    
Cu1   N1    S    
C19   H15   S    
C11   O3    A    
C2    C15   S    
C7    H6    S    
C23   H19   S    
C5    C6    D    
N2    C21   S    
Cu1   O3    S    
C1    O2    A    
C14   C20   S    
C4    C17   S    
C14   H1    S    
C24   O14   D    
C20   H16   S    
Cu2   O8    S    
C10   N2    D    
C2    C3    S    
C16   H3    S    
C5    C7    S    
C19   O9    D    
C6    C12   S    
C11   O4    A    
Cu2   O4    S    
C22   O12   D    
C23   O13   D    
C6    H5    S    
C17   H14   S    
C3    H13   S    
C21   H17   S    
Cu2   N2    S    
C15   C22   S    
C5    H4    S    
C13   O7    A    
Cu2   O2    S    
C16   C18   S    
C9    N1    D    
C2    C13   S    
C10   H10   S    
C14   C15   S    
C8    H7    S    
C12   O6    A    
Cu1   O1    S    
C22   H18   S    
C14   C18   S    
C3    C19   S    
C13   O8    A    
C3    C16   S    
Cu1   O5    S    
C9    H8    S    
C17   C23   S    
C24   H20   S    
C21   O11   D    
Cu1   O7    S    
