data_mof_unit_48177.cif
_audit_creation_date              2012-10-26T17:12:31-0400
_audit_creation_method            fapswitch 2.2
_symmetry_space_group_name_H-M    P1
_symmetry_Int_Tables_number       1
_space_group_crystal_system       triclinic
_cell_length_a                    16.752272
_cell_length_b                    16.735075
_cell_length_c                    16.737983
_cell_angle_alpha                 67.995415
_cell_angle_beta                  68.156039
_cell_angle_gamma                 67.963161
_cell_volume                      3883.76119624

loop_
_atom_site_label
_atom_site_type_symbol
_atom_type_description
_atom_site_fract_x
_atom_site_fract_y
_atom_site_fract_z
_atom_type_partial_charge
C1    C     C_R   0.029043 0.828069 0.564346 0.832965
C2    C     C_R   0.029046 0.564273 0.828148 0.866816
C3    C     C_R   0.168010 0.987875 0.430359 0.861366
C4    C     C_R   0.827807 0.029696 0.564073 0.840514
C5    C     C_R   0.446134 0.097070 0.701539 0.558995
C6    C     C_R   0.493380 0.084482 0.245820 0.526418
C7    C     C_R   0.067887 0.704287 0.451725 0.568039
C8    C     C_R   0.933347 0.295312 0.548198 0.593240
C9    C     C_R   0.743515 0.518864 0.919239 0.529721
C10   C     C_R   0.294523 0.551594 0.922419 0.559542
C11   C     C_R   0.245675 0.084563 0.493688 0.521750
C12   C     C_R   0.970999 0.171916 0.435656 0.859921
C13   C     C_R   0.701518 0.096366 0.446084 0.556882
C14   C     C_R   0.552370 0.299004 0.912325 0.581908
C15   C     C_R   0.458958 0.699295 0.056817 0.574452
C16   C     C_R   0.933330 0.548356 0.295221 0.566166
C17   C     C_R   0.067815 0.451280 0.704810 0.586097
C18   C     C_R   0.525039 0.086143 0.525159 -0.098125
C19   C     C_R   0.428062 0.069375 0.428303 -0.107139
C20   C     C_R   0.023320 0.542821 0.543130 -0.102406
C21   C     C_R   0.978389 0.456498 0.456618 -0.103835
C22   C     C_R   0.557014 0.561087 0.972992 -0.096550
C23   C     C_R   0.831469 0.569811 0.013986 0.867564
C24   C     C_R   0.465952 0.467526 0.943524 -0.103796
C25   C     C_R   0.564134 0.089062 0.432955 -0.078639
C26   C     C_R   0.382987 0.085480 0.513086 -0.082791
C27   C     C_R   0.015604 0.454420 0.585676 -0.076260
C28   C     C_R   0.986219 0.544863 0.414046 -0.072057
C29   C     C_R   0.463288 0.592115 0.987691 -0.080297
C30   C     C_R   0.559427 0.433588 0.932176 -0.085786
C31   C     C_R   0.512872 0.085212 0.383206 -0.077641
C32   C     C_R   0.432784 0.089460 0.564272 -0.084287
C33   C     C_R   0.420896 0.552500 0.959527 -0.072882
C34   C     C_R   0.171888 0.435716 0.970780 0.832968
C35   C     C_R   0.606357 0.487455 0.935913 -0.073433
C36   C     C_R   0.986225 0.413873 0.545015 -0.079510
C37   C     C_R   0.015645 0.585368 0.454697 -0.079456
C38   C     C_R   0.395467 0.093485 0.654104 0.611014
C39   C     C_R   0.536809 0.105850 0.288817 0.630656
C40   C     C_R   0.048298 0.661333 0.407118 0.615736
C41   C     C_R   0.953464 0.337987 0.592668 0.662654
C42   C     C_R   0.699570 0.474922 0.899985 0.633451
C43   C     C_R   0.338329 0.597373 0.939103 0.617009
C44   C     C_R   0.288632 0.106135 0.537037 0.633851
C45   C     C_R   0.564056 0.029702 0.827833 0.837776
C46   C     C_R   0.654026 0.092603 0.395580 0.602514
C47   C     C_R   0.601213 0.347611 0.917707 0.642277
C48   C     C_R   0.414788 0.657426 0.035220 0.609641
C49   C     C_R   0.953439 0.592704 0.338019 0.609832
C50   C     C_R   0.048202 0.406716 0.661827 0.659776
C51   C     C_R   0.540226 0.075444 0.670819 -0.187167
C52   C     C_R   0.424736 0.041135 0.295497 -0.173742
C53   C     C_R   0.050057 0.676047 0.545984 -0.187020
C54   C     C_R   0.950890 0.323617 0.453949 -0.172190
C55   C     C_R   0.695871 0.577048 0.974841 -0.174458
C56   C     C_R   0.430381 0.987790 0.168048 0.864563
C57   C     C_R   0.325514 0.457256 0.938620 -0.183877
C58   C     C_R   0.295329 0.041186 0.424950 -0.172668
C59   C     C_R   0.670805 0.075182 0.540219 -0.182181
C60   C     C_R   0.457823 0.327754 0.933705 -0.169080
C61   C     C_R   0.553047 0.679714 0.028866 -0.194440
C62   C     C_R   0.950891 0.454018 0.323572 -0.181750
C63   C     C_R   0.050029 0.545657 0.676406 -0.166822
C64   C     C_R   0.596700 0.051560 0.727616 -0.165526
C65   C     C_R   0.388000 0.002698 0.258357 -0.180382
C66   C     C_R   0.046268 0.728780 0.598090 -0.165904
C67   C     C_R   0.436110 0.172145 0.969720 0.866360
C68   C     C_R   0.954024 0.271121 0.401936 -0.157069
C69   C     C_R   0.738167 0.612138 0.008684 -0.176781
C70   C     C_R   0.271403 0.402737 0.950856 -0.167205
C71   C     C_R   0.258257 0.002773 0.388069 -0.180789
C72   C     C_R   0.727596 0.051478 0.596698 -0.168155
C73   C     C_R   0.403149 0.272168 0.949014 -0.161468
C74   C     C_R   0.600763 0.730143 0.036698 -0.151692
C75   C     C_R   0.954058 0.402023 0.271032 -0.166763
C76   C     C_R   0.046269 0.597865 0.729015 -0.155346
C77   C     C_R   0.689107 0.039401 0.689139 0.564909
C78   C     C_R   0.564565 0.828054 0.028154 0.835565
C79   C     C_R   0.308240 0.979018 0.308278 0.559475
C80   C     C_R   0.046157 0.688122 0.688330 0.555859
C81   C     C_R   0.953824 0.311868 0.311783 0.555549
C82   C     C_R   0.690267 0.690071 0.037020 0.559196
C83   C     C_R   0.311491 0.311493 0.955180 0.566619
C84   C     C_R   0.578969 0.078016 0.579010 -0.091886
C85   C     C_R   0.384096 0.046960 0.384319 -0.086591
C86   C     C_R   0.040291 0.588593 0.588925 -0.095513
C87   C     C_R   0.960957 0.410933 0.410944 -0.099532
C88   C     C_R   0.601873 0.605513 0.992948 -0.094102
C89   C     C_R   0.971053 0.435688 0.171867 0.828253
C90   C     C_R   0.416278 0.416991 0.939271 -0.091797
Cu1   Cu    Cu3+1 0.995180 0.995180 0.424630 1.264291
Cu2   Cu    Cu3+1 0.004820 0.004820 0.575370 1.280578
Cu3   Cu    Cu3+1 0.995180 0.424630 0.995180 1.277816
Cu4   Cu    Cu3+1 0.004820 0.575370 0.004820 1.264602
Cu5   Cu    Cu3+1 0.424630 0.995180 0.995180 1.264997
Cu6   Cu    Cu3+1 0.575370 0.004820 0.004820 1.279034
F1    F     F_    0.400177 0.129387 0.773975 -0.570816
F2    F     F_    0.409332 0.751533 0.113485 -0.557206
F3    F     F_    0.884854 0.599604 0.235176 -0.567858
F4    F     F_    0.115988 0.400242 0.765158 -0.566464
F5    F     F_    0.311461 0.087467 0.701231 -0.514451
F6    F     F_    0.589266 0.161612 0.236579 -0.532315
F7    F     F_    0.072613 0.687611 0.316264 -0.521570
F8    F     F_    0.929317 0.311684 0.683525 -0.492389
F9    F     F_    0.747196 0.430834 0.836047 -0.527109
F10   F     F_    0.305763 0.687796 0.923163 -0.542427
F11   F     F_    0.236353 0.162085 0.589384 -0.509766
F12   F     F_    0.508284 0.121526 0.156236 -0.615601
F13   F     F_    0.701124 0.085913 0.311688 -0.528921
F14   F     F_    0.688299 0.305199 0.915678 -0.501696
F15   F     F_    0.324663 0.674533 0.069438 -0.530100
F16   F     F_    0.929360 0.683692 0.311568 -0.541830
F17   F     F_    0.072516 0.315722 0.688263 -0.488735
F18   F     F_    0.743428 0.010975 0.743493 -0.593290
F19   F     F_    0.277447 0.934830 0.277394 -0.571958
F20   F     F_    0.044358 0.737615 0.737770 -0.587953
F21   F     F_    0.954909 0.262584 0.262509 -0.586344
F22   F     F_    0.731264 0.728834 0.063009 -0.584167
F23   F     F_    0.116007 0.764444 0.400912 -0.553919
F24   F     F_    0.259586 0.259276 0.968603 -0.579110
F25   F     F_    0.884814 0.235546 0.599186 -0.569075
F26   F     F_    0.830746 0.512531 0.873856 -0.629882
F27   F     F_    0.229632 0.601679 0.879634 -0.576916
F28   F     F_    0.156104 0.121426 0.508787 -0.619982
F29   F     F_    0.773951 0.128491 0.399866 -0.577639
F30   F     F_    0.600320 0.229016 0.876446 -0.574224
O1    O     O_R   0.124540 0.978640 0.385460 -0.495991
O2    O     O_R   0.124540 0.385460 0.978640 -0.489361
O3    O     O_R   0.021360 0.875460 0.614540 -0.511344
O4    O     O_R   0.978640 0.124540 0.385460 -0.501912
O5    O     O_R   0.013780 0.867370 0.487190 -0.549180
O6    O     O_R   0.986220 0.132630 0.512810 -0.503948
O7    O     O_R   0.867370 0.487190 0.013780 -0.550836
O8    O     O_R   0.132630 0.512810 0.986220 -0.554028
O9    O     O_R   0.487190 0.013780 0.867370 -0.554681
O10   O     O_R   0.512810 0.986220 0.132630 -0.547850
O11   O     O_R   0.512810 0.132630 0.986220 -0.496616
O12   O     O_R   0.875460 0.021360 0.614540 -0.487444
O13   O     O_R   0.487190 0.867370 0.013780 -0.550879
O14   O     O_R   0.986220 0.512810 0.132630 -0.547264
O15   O     O_R   0.013780 0.487190 0.867370 -0.509207
O16   O     O_R   0.132630 0.986220 0.512810 -0.549755
O17   O     O_R   0.867370 0.013780 0.487190 -0.551246
O18   O     O_R   0.978640 0.385460 0.124540 -0.514016
O19   O     O_R   0.021360 0.614540 0.875460 -0.502405
O20   O     O_R   0.385460 0.124540 0.978640 -0.498144
O21   O     O_R   0.614540 0.875460 0.021360 -0.520075
O22   O     O_R   0.614540 0.021360 0.875460 -0.486101
O23   O     O_R   0.385460 0.978640 0.124540 -0.498515
O24   O     O_R   0.875460 0.614540 0.021360 -0.497881

loop_
_geom_bond_atom_site_label_1
_geom_bond_atom_site_label_2
_ccdc_geom_bond_type
C25   C31   A    
C21   C87   A    
C26   C32   A    
Cu3   Cu4   S    
C65   C79   A    
C22   C29   A    
C79   F19   S    
C45   O22   A    
Cu4   O14   S    
C64   C77   A    
C23   C69   S    
Cu5   Cu6   S    
C3    O16   A    
Cu3   O15   S    
Cu2   O12   S    
C78   O13   A    
C4    O17   A    
C71   C79   A    
C26   C44   A    
C66   C80   A    
Cu6   O10   S    
Cu1   O4    S    
C2    O19   A    
C22   C35   A    
C12   C68   S    
C9    C42   A    
Cu1   O1    S    
C30   C35   A    
C68   C81   A    
C52   C85   A    
Cu2   O6    S    
C37   C40   A    
C1    O3    A    
C54   C87   A    
C3    O1    A    
C8    F25   S    
Cu1   O5    S    
C63   C76   A    
C34   O8    A    
C56   C65   S    
C81   F21   S    
C60   C73   A    
Cu5   O20   S    
C55   C88   A    
C35   C42   A    
C19   C26   A    
C69   C82   A    
C14   C47   A    
C11   F28   S    
C29   C33   A    
C20   C86   A    
C18   C84   A    
C7    C40   A    
C53   C86   A    
C67   C73   S    
C22   C88   A    
C57   C70   A    
C11   C58   A    
Cu2   O16   S    
C34   C70   S    
C27   C50   A    
C59   C72   A    
C13   F29   S    
Cu4   O19   S    
C17   F4    S    
C19   C31   A    
C5    C38   A    
C36   C41   A    
C18   C25   A    
C16   C62   A    
C15   C48   A    
C74   C82   A    
C67   O11   A    
C56   O10   A    
C1    C66   S    
Cu1   O17   S    
Cu6   O22   S    
C45   O9    A    
C57   C90   A    
C23   O7    A    
C29   C48   A    
C33   C43   A    
C7    F23   S    
C30   C47   A    
C10   C57   A    
C16   C49   A    
C10   F27   S    
C8    C54   A    
Cu1   Cu2   S    
C21   C36   A    
C75   C81   A    
C1    O5    A    
C43   F10   S    
C83   F24   S    
C3    C71   S    
C72   C77   A    
C70   C83   A    
C61   C88   A    
C28   C49   A    
C89   O14   A    
C67   O20   A    
Cu5   O9    S    
C9    F26   S    
C15   C61   A    
C11   C44   A    
C8    C41   A    
C53   C66   A    
C55   C69   A    
Cu3   O18   S    
C12   O4    A    
C78   O21   A    
C49   F16   S    
C9    C55   A    
Cu5   O13   S    
C21   C28   A    
C5    F1    S    
C32   C38   A    
C63   C86   A    
C61   C74   A    
C62   C75   A    
C18   C32   A    
C7    C53   A    
C15   F2    S    
C77   F18   S    
C47   F14   S    
C58   C85   A    
C4    C72   S    
C2    C76   S    
C39   F6    S    
C44   F11   S    
C59   C84   A    
Cu6   O21   S    
C6    F12   S    
C12   O6    A    
C10   C43   A    
C23   O24   A    
Cu6   O11   S    
C80   F20   S    
C51   C64   A    
C76   C80   A    
C19   C85   A    
C24   C90   A    
C17   C50   A    
C16   F3    S    
Cu5   O23   S    
C13   C59   A    
C20   C27   A    
C60   C90   A    
C27   C36   A    
C38   F5    S    
C89   O18   A    
C14   C60   A    
C62   C87   A    
C45   C64   S    
Cu3   O7    S    
C24   C33   A    
C14   F30   S    
C41   F8    S    
C50   F17   S    
Cu2   O3    S    
Cu3   O2    S    
C17   C63   A    
C40   F7    S    
C20   C37   A    
C13   C46   A    
C28   C37   A    
C51   C84   A    
Cu4   O8    S    
C31   C39   A    
C58   C71   A    
C42   F9    S    
C24   C30   A    
C75   C89   S    
C4    O12   A    
Cu4   O24   S    
C48   F15   S    
C54   C68   A    
C34   O2    A    
C74   C78   S    
C46   F13   S    
C2    O15   A    
C82   F22   S    
C6    C39   A    
C5    C51   A    
C6    C52   A    
C56   O23   A    
C25   C46   A    
C73   C83   A    
C52   C65   A    
