data_mof_unit_32972.cif
_audit_creation_date              2012-12-11T16:13:44-0500
_audit_creation_method            fapswitch 2.2
_symmetry_space_group_name_H-M    P1
_symmetry_Int_Tables_number       1
_space_group_crystal_system       triclinic
_cell_length_a                    26.178813
_cell_length_b                    7.259061
_cell_length_c                    23.753363
_cell_angle_alpha                 90.000014
_cell_angle_beta                  101.421262
_cell_angle_gamma                 90.0
_cell_volume                      4424.55101995

loop_
_atom_site_label
_atom_site_type_symbol
_atom_type_description
_atom_site_fract_x
_atom_site_fract_y
_atom_site_fract_z
_atom_type_partial_charge
O1    O     O_R   0.192370 0.384760 0.193350 -0.529764
O2    O     O_R   0.807630 0.615240 0.806650 -0.531566
O3    O     O_R   0.307630 0.884760 0.306650 -0.529763
O4    O     O_R   0.692370 0.115240 0.693350 -0.531567
O5    O     O_R   0.296630 0.711620 0.196480 -0.542393
O6    O     O_R   0.703370 0.288380 0.803520 -0.541697
O7    O     O_R   0.203370 0.211620 0.303520 -0.542393
O8    O     O_R   0.796630 0.788380 0.696480 -0.541696
C1    C     C_R   0.312313 0.546094 0.184039 0.688884
C2    C     C_R   0.687304 0.453799 0.815530 0.690223
C3    C     C_R   0.187686 0.046094 0.315960 0.688884
C4    C     C_R   0.812696 0.953799 0.684470 0.690223
O9    O     O_R   0.192080 0.714290 0.186600 -0.535868
O10   O     O_R   0.807920 0.285710 0.813400 -0.534179
O11   O     O_R   0.307920 0.214290 0.313400 -0.535868
O12   O     O_R   0.692080 0.785710 0.686600 -0.534179
O13   O     O_R   0.202340 0.887460 0.296690 -0.536289
O14   O     O_R   0.797660 0.112540 0.703310 -0.537201
O15   O     O_R   0.297660 0.387460 0.203310 -0.536289
O16   O     O_R   0.702340 0.612540 0.796690 -0.537201
C5    C     C_R   0.173759 0.545896 0.171338 0.715308
C6    C     C_R   0.826283 0.454096 0.828609 0.716647
C7    C     C_R   0.326241 0.045896 0.328662 0.715307
C8    C     C_R   0.673717 0.954096 0.671391 0.716647
O17   O     O_3   0.253490 0.552180 0.286130 -0.375635
O18   O     O_3   0.746510 0.447820 0.713870 -0.375819
O19   O     O_3   0.246510 0.052180 0.213870 -0.375635
O20   O     O_3   0.753490 0.947820 0.786130 -0.375818
V1    V     V_3+5 0.249350 0.825920 0.243300 1.397970
V2    V     V_3+5 0.750650 0.174080 0.756700 1.400295
V3    V     V_3+5 0.250650 0.325920 0.256700 1.397970
V4    V     V_3+5 0.749350 0.674080 0.743300 1.400295
C9    C     C_3   0.530796 0.869673 0.486607 0.133802
C10   C     C_3   0.468827 0.130265 0.513871 0.133412
C11   C     C_3   0.969204 0.369673 0.013393 0.133802
C12   C     C_3   0.031173 0.630265 0.986129 0.133412
C13   C     C_3   0.513781 0.043839 0.450188 -0.175442
C14   C     C_3   0.485852 0.956095 0.550296 -0.177119
C15   C     C_3   0.986219 0.543839 0.049812 -0.175442
C16   C     C_3   0.014148 0.456095 0.949703 -0.177119
H1    H     H_    0.525214 0.078657 0.408887 0.120021
H2    H     H_    0.474425 0.921254 0.591599 0.117937
H3    H     H_    0.974786 0.578657 0.091113 0.120021
H4    H     H_    0.025575 0.421254 0.908401 0.117937
H5    H     H_    0.546188 0.296139 0.511223 0.117384
H6    H     H_    0.453427 0.703822 0.489275 0.117186
H7    H     H_    0.953812 0.796139 0.988777 0.117384
H8    H     H_    0.046573 0.203822 0.010724 0.117186
C17   C     C_1   0.371889 0.036506 0.374626 -0.183539
C18   C     C_1   0.627942 0.963464 0.625588 -0.182851
C19   C     C_1   0.128110 0.536506 0.125374 -0.183539
C20   C     C_1   0.872058 0.463464 0.874412 -0.182851
C21   C     C_3   0.474303 0.837496 0.494664 -0.174820
C22   C     C_3   0.525322 0.162448 0.505815 -0.175058
C23   C     C_3   0.025697 0.337496 0.005336 -0.174820
C24   C     C_3   0.974678 0.662448 0.994185 -0.175058
C25   C     C_3   0.457480 0.012944 0.458961 0.113593
C26   C     C_3   0.542152 0.986997 0.541512 0.114121
C27   C     C_3   0.042520 0.512944 0.041039 0.113593
C28   C     C_3   0.957848 0.486997 0.958488 0.114121
C29   C     C_1   0.410339 0.026643 0.412740 -0.066472
C30   C     C_1   0.589382 0.973315 0.587616 -0.066469
C31   C     C_1   0.089661 0.526643 0.087260 -0.066472
C32   C     C_1   0.910618 0.473315 0.912384 -0.066469
C33   C     C_R   0.859604 0.121151 0.616881 -0.172596
C34   C     C_R   0.117790 0.886884 0.356560 -0.174289
C35   C     C_R   0.640396 0.621151 0.883119 -0.172597
C36   C     C_R   0.382210 0.386884 0.143440 -0.174289
H9    H     H_    0.837522 0.244754 0.621195 0.128775
H10   H     H_    0.119802 0.769952 0.328756 0.125019
H11   H     H_    0.662478 0.744753 0.878805 0.128775
H12   H     H_    0.380198 0.269951 0.171244 0.125020
C37   C     C_R   0.895724 0.124520 0.580708 -0.173094
C38   C     C_R   0.081365 0.884524 0.392247 -0.158404
C39   C     C_R   0.604276 0.624519 0.919291 -0.173094
C40   C     C_R   0.418635 0.384524 0.107753 -0.158404
H13   H     H_    0.899927 0.251011 0.557916 0.137254
H14   H     H_    0.056535 0.764523 0.390574 0.145789
H15   H     H_    0.600073 0.751011 0.942083 0.137254
H16   H     H_    0.443465 0.264523 0.109426 0.145788
C41   C     C_R   0.925556 0.967994 0.573167 -0.001548
C42   C     C_R   0.076467 0.033162 0.429095 -0.020611
C43   C     C_R   0.574444 0.467994 0.926833 -0.001548
C44   C     C_R   0.423533 0.533162 0.070905 -0.020611
C45   C     C_R   0.918362 0.804093 0.603961 0.090375
C46   C     C_R   0.110731 0.187372 0.430266 0.090903
C47   C     C_R   0.581638 0.304092 0.896038 0.090375
C48   C     C_R   0.389269 0.687372 0.069734 0.090903
C49   C     C_R   0.880913 0.802691 0.639263 -0.176917
C50   C     C_R   0.146336 0.188186 0.392428 -0.157649
C51   C     C_R   0.619087 0.302691 0.860737 -0.176917
C52   C     C_R   0.353663 0.688186 0.107572 -0.157649
H17   H     H_    0.875557 0.678421 0.662699 0.117350
H18   H     H_    0.172044 0.303926 0.391544 0.118434
H19   H     H_    0.624443 0.178421 0.837301 0.117350
H20   H     H_    0.327956 0.803926 0.108456 0.118435
C53   C     C_R   0.851414 0.959838 0.646221 -0.064583
C54   C     C_R   0.150207 0.039484 0.355628 -0.072798
C55   C     C_R   0.648586 0.459838 0.853779 -0.064582
C56   C     C_R   0.349793 0.539484 0.144372 -0.072798
N1    N     N_R   0.979862 0.835554 0.507779 -0.291653
N2    N     N_R   0.018516 0.168066 0.490545 -0.312801
N3    N     N_R   0.520138 0.335553 0.992221 -0.291653
N4    N     N_R   0.481484 0.668066 0.009455 -0.312801
N5    N     N_R   0.015159 0.851662 0.474619 -0.303582
N6    N     N_R   0.983451 0.151848 0.523999 -0.306035
N7    N     N_R   0.484840 0.351662 0.025381 -0.303582
N8    N     N_R   0.516550 0.651848 0.976001 -0.306035
C57   C     C_R   0.036026 0.018162 0.465829 0.505215
C58   C     C_R   0.963807 0.984585 0.534127 0.512829
C59   C     C_R   0.463974 0.518162 0.034170 0.505215
C60   C     C_R   0.536193 0.484585 0.965872 0.512829
C61   C     C_3   0.567180 0.720948 0.471666 -0.370139
C62   C     C_3   0.542031 0.616098 0.417209 -0.308274
C63   C     C_3   0.580120 0.478929 0.399521 -0.760913
H21   H     H_    0.614140 0.552663 0.388828 0.232629
H22   H     H_    0.594016 0.379440 0.434723 0.226573
H23   H     H_    0.560364 0.401318 0.361047 0.216959
H24   H     H_    0.507208 0.540024 0.424954 0.193498
H25   H     H_    0.529359 0.714715 0.381354 0.199580
H26   H     H_    0.603842 0.787803 0.465426 0.180352
H27   H     H_    0.576673 0.623353 0.508273 0.168369
C64   C     C_3   0.432417 0.278907 0.528815 -0.370443
C65   C     C_3   0.457475 0.383369 0.583386 -0.304150
C66   C     C_3   0.419358 0.520501 0.601043 -0.776010
H28   H     H_    0.405597 0.620320 0.565898 0.227874
H29   H     H_    0.385256 0.446781 0.611544 0.229049
H30   H     H_    0.439040 0.597738 0.639631 0.214997
H31   H     H_    0.470040 0.284507 0.619198 0.195968
H32   H     H_    0.492355 0.459420 0.575795 0.193751
H33   H     H_    0.423006 0.376746 0.492266 0.168014
H34   H     H_    0.395716 0.212018 0.534916 0.177087
C67   C     C_3   0.932820 0.220948 0.028334 -0.370139
C68   C     C_3   0.957968 0.116098 0.082791 -0.308273
C69   C     C_3   0.919880 0.978929 0.100478 -0.760913
H35   H     H_    0.885860 0.052664 0.111172 0.232629
H36   H     H_    0.905984 0.879440 0.065277 0.226573
H37   H     H_    0.939636 0.901318 0.138953 0.216959
H38   H     H_    0.992791 0.040024 0.075046 0.193497
H39   H     H_    0.970641 0.214715 0.118646 0.199580
H40   H     H_    0.896158 0.287803 0.034574 0.180352
H41   H     H_    0.923327 0.123353 0.991727 0.168369
C70   C     C_3   0.067583 0.778906 0.971184 -0.370443
C71   C     C_3   0.042525 0.883369 0.916614 -0.304150
C72   C     C_3   0.080641 0.020501 0.898957 -0.776011
H42   H     H_    0.094403 0.120320 0.934102 0.227874
H43   H     H_    0.114744 0.946781 0.888456 0.229050
H44   H     H_    0.060960 0.097738 0.860369 0.214997
H45   H     H_    0.029960 0.784507 0.880802 0.195968
H46   H     H_    0.007645 0.959420 0.924205 0.193751
H47   H     H_    0.076994 0.876746 0.007734 0.168015
H48   H     H_    0.104284 0.712018 0.965083 0.177087
C73   C     C_3   0.950047 0.629755 0.602060 -0.354510
C74   C     C_3   0.006892 0.654452 0.633301 -0.297687
C75   C     C_3   0.040016 0.488729 0.623707 -0.715112
H49   H     H_    0.023655 0.360188 0.638369 0.230782
H50   H     H_    0.041476 0.476156 0.577440 0.264092
H51   H     H_    0.080380 0.507174 0.648382 0.200763
H52   H     H_    0.024361 0.779932 0.618260 0.203910
H53   H     H_    0.008108 0.670420 0.680100 0.184029
H54   H     H_    0.933395 0.514357 0.623422 0.158310
H55   H     H_    0.947241 0.583473 0.557086 0.215874
C76   C     C_3   0.109809 0.346371 0.472227 -0.352303
C77   C     C_3   0.154037 0.488610 0.477017 -0.345770
C78   C     C_3   0.151232 0.629949 0.523926 -0.739766
H56   H     H_    0.113069 0.701750 0.515101 0.249071
H57   H     H_    0.156484 0.561386 0.566495 0.223287
H58   H     H_    0.182567 0.733893 0.525254 0.216407
H59   H     H_    0.192426 0.417964 0.487646 0.196721
H60   H     H_    0.150921 0.563273 0.435649 0.202993
H61   H     H_    0.072282 0.421259 0.459349 0.211662
H62   H     H_    0.112077 0.286640 0.515765 0.192488
C79   C     C_3   0.549953 0.129755 0.897940 -0.354510
C80   C     C_3   0.493108 0.154452 0.866698 -0.297686
C81   C     C_3   0.459984 0.988729 0.876293 -0.715111
H63   H     H_    0.476345 0.860187 0.861631 0.230782
H64   H     H_    0.458523 0.976156 0.922560 0.264091
H65   H     H_    0.419620 0.007174 0.851618 0.200763
H66   H     H_    0.475639 0.279932 0.881739 0.203910
H67   H     H_    0.491892 0.170419 0.819900 0.184029
H68   H     H_    0.566605 0.014357 0.876578 0.158310
H69   H     H_    0.552759 0.083472 0.942913 0.215874
C82   C     C_3   0.390191 0.846371 0.027772 -0.352302
C83   C     C_3   0.345963 0.988610 0.022982 -0.345771
C84   C     C_3   0.348768 0.129948 0.976074 -0.739766
H70   H     H_    0.386931 0.201749 0.984898 0.249071
H71   H     H_    0.343515 0.061385 0.933505 0.223287
H72   H     H_    0.317433 0.233892 0.974745 0.216407
H73   H     H_    0.307574 0.917963 0.012354 0.196722
H74   H     H_    0.349079 0.063273 0.064350 0.202993
H75   H     H_    0.427718 0.921259 0.040651 0.211662
H76   H     H_    0.387923 0.786640 0.984235 0.192488

loop_
_geom_bond_atom_site_label_1
_geom_bond_atom_site_label_2
_ccdc_geom_bond_type
O17   V3    S    
H8    C23   S    
C43   C47   A    
C26   C30   S    
C10   C64   S    
C16   C28   S    
C23   C27   S    
C64   H34   S    
O19   V1    S    
O13   V1    S    
C77   H60   S    
C76   C77   S    
C9    C26   S    
C52   H20   S    
C12   C27   S    
O15   V3    S    
C82   H76   S    
C11   C67   S    
C62   C63   S    
O4    V2    S    
C69   H35   S    
C81   H64   S    
C79   C80   S    
O1    C5    A    
C67   H41   S    
C78   H56   S    
C3    C54   S    
O9    V1    S    
C77   C78   S    
C12   C70   S    
O10   V2    S    
C14   H2    S    
C47   C51   A    
C68   H39   S    
C11   C15   S    
O4    C8    A    
C7    C17   S    
C75   H50   S    
C70   C71   S    
C34   C38   A    
O1    V3    S    
C33   C37   A    
C83   C84   S    
O2    V4    S    
O3    V1    S    
C80   C81   S    
C71   H46   S    
C14   C26   S    
O3    C7    A    
C1    O15   A    
C61   H27   S    
C48   C52   A    
C2    O16   A    
C49   H17   S    
C63   H22   S    
O2    C6    A    
C10   C25   S    
O12   V4    S    
O14   V2    S    
C76   H61   S    
C62   H24   S    
C35   C55   A    
C9    C61   S    
C63   H23   S    
N4    N8    A    
O11   C7    A    
C66   H28   S    
C79   H68   S    
C78   H57   S    
C75   H51   S    
C9    C21   S    
C40   C44   A    
C77   H59   S    
C38   C42   A    
C62   H25   S    
C37   C41   A    
C72   H43   S    
O16   V4    S    
C50   H18   S    
C81   H65   S    
O5    V1    S    
N1    N5    A    
C47   C79   S    
C65   C66   S    
C44   C59   S    
C17   C29   T    
C74   H53   S    
C11   C23   S    
O8    V4    S    
C42   C57   S    
C44   C48   A    
C64   C65   S    
C19   C31   T    
C36   H12   S    
C20   C32   T    
C68   H38   S    
C21   C25   S    
O18   V4    S    
C84   H72   S    
C15   H3    S    
N1    C58   A    
C42   C46   A    
O10   C6    A    
O7    V3    S    
C9    C13   S    
N8    C60   A    
C49   C53   A    
N3    C60   A    
O7    C3    A    
C82   C83   S    
C36   C56   A    
O5    C1    A    
C71   H45   S    
C12   C24   S    
C66   H30   S    
C81   H63   S    
C12   C16   S    
O8    C4    A    
C16   C23   S    
C15   C27   S    
C22   C26   S    
C4    C53   S    
C65   H32   S    
C15   C24   S    
C45   C73   S    
C36   C40   A    
O11   V3    S    
C76   H62   S    
C8    C18   S    
C74   C75   S    
C69   H37   S    
C13   C22   S    
C70   H48   S    
O6    V2    S    
C79   H69   S    
C10   C22   S    
C1    C56   S    
C46   C50   A    
C67   C68   S    
C18   C30   T    
C83   H74   S    
C27   C31   S    
C35   C39   A    
C4    O14   A    
C80   H67   S    
C72   H42   S    
C5    C19   S    
C72   H44   S    
C52   C56   A    
C6    C20   S    
C61   C62   S    
N6    C58   A    
C69   H36   S    
N5    C57   A    
C3    O13   A    
C45   C49   A    
C64   H33   S    
C10   C14   S    
N7    C59   A    
C40   H16   S    
C71   C72   S    
C48   C82   S    
C82   H75   S    
H5    C22   S    
N4    C59   A    
C25   C29   S    
C68   C69   S    
C78   H58   S    
C67   H40   S    
C73   H55   S    
C28   C32   S    
C34   C54   A    
O20   V2    S    
C33   C53   A    
C74   H52   S    
O9    C5    A    
C39   C43   A    
C84   H70   S    
C34   H10   S    
C14   C21   S    
C33   H9    S    
C43   C60   S    
H6    C21   S    
C70   H47   S    
C65   H31   S    
N2    N6    A    
C35   H11   S    
C13   H1    S    
C2    C55   S    
C13   C25   S    
C84   H71   S    
O6    C2    A    
C51   H19   S    
C24   C28   S    
C16   H4    S    
C61   H26   S    
C41   C58   S    
O12   C8    A    
C38   H14   S    
C73   H54   S    
C75   H49   S    
C66   H29   S    
C37   H13   S    
C83   H73   S    
C11   C28   S    
N2    C57   A    
N3    N7    A    
C46   C76   S    
C51   C55   A    
C73   C74   S    
C39   H15   S    
C80   H66   S    
C50   C54   A    
C41   C45   A    
C63   H21   S    
H7    C24   S    
