data_mof_unit_63450.cif
_audit_creation_date              2012-12-10T19:25:23-0500
_audit_creation_method            fapswitch 2.2
_symmetry_space_group_name_H-M    P1
_symmetry_Int_Tables_number       1
_space_group_crystal_system       triclinic
_cell_length_a                    18.71788
_cell_length_b                    18.686294
_cell_length_c                    18.785946
_cell_angle_alpha                 109.451412
_cell_angle_beta                  109.203025
_cell_angle_gamma                 109.346228
_cell_volume                      5083.74147324

loop_
_atom_site_label
_atom_site_type_symbol
_atom_type_description
_atom_site_fract_x
_atom_site_fract_y
_atom_site_fract_z
_atom_type_partial_charge
C1    C     C_R   0.878907 0.379936 0.998917 0.884335
C2    C     C_R   0.181642 0.496440 0.183537 -0.097350
C3    C     C_R   0.179703 0.416765 0.169036 -0.138389
C4    C     C_R   0.885092 0.504365 0.880361 0.946825
C5    C     C_R   0.245098 0.414689 0.231113 -0.041229
C6    C     C_R   0.312445 0.494604 0.307698 -0.132014
C7    C     C_R   0.311387 0.570985 0.318407 0.012895
C8    C     C_3   0.362823 0.667911 0.373880 0.191138
C9    C     C_3   0.289190 0.668784 0.305792 0.208879
C10   C     C_R   0.178840 0.749496 0.991294 0.031216
C11   C     C_R   0.191247 0.684427 0.003687 -0.175299
C12   C     C_R   0.812974 0.312941 0.997483 -0.082918
C13   C     C_R   0.261881 0.673666 0.001108 0.383022
C14   C     C_R   0.324249 0.735120 0.994523 -0.155481
C15   C     C_R   0.313838 0.806064 0.991757 -0.204966
C16   C     C_R   0.122854 0.619880 0.002703 0.906315
C17   C     C_R   0.238243 0.808208 0.983599 0.139580
C18   C     C_3   0.226720 0.881944 0.030459 -0.458153
C19   C     C_3   0.161389 0.817214 0.040633 -0.238066
C20   C     C_R   0.498632 0.379714 0.378593 0.872146
C21   C     C_R   0.615993 0.502854 0.620023 0.865183
C22   C     C_R   0.494627 0.619699 0.614834 0.957762
C23   C     C_R   0.742929 0.241334 0.917606 -0.196944
C24   C     C_R   0.377846 0.498034 0.375804 0.901598
C25   C     C_R   0.500577 0.879822 0.880712 0.892115
C26   C     C_R   0.620203 0.118771 0.998603 0.913012
C27   C     C_R   0.497476 0.118460 0.119091 0.834003
C28   C     C_R   0.118894 0.499561 0.119099 0.883278
C29   C     C_R   0.380007 0.877914 0.998087 0.834577
C30   C     C_R   0.492706 0.315848 0.239098 0.071556
C31   C     C_R   0.497246 0.312189 0.312941 -0.135265
C32   C     C_R   0.485182 0.235186 0.315947 -0.126279
C33   C     C_R   0.481978 0.167502 0.250993 -0.067984
C34   C     C_R   0.678801 0.174900 0.915907 0.371120
C35   C     C_R   0.490326 0.179123 0.182873 -0.149810
C36   C     C_R   0.487055 0.249217 0.173980 0.080322
C37   C     C_3   0.539066 0.308887 0.151492 -0.447254
C38   C     C_3   0.546956 0.383751 0.225253 0.255583
C39   C     C_R   0.570516 0.754216 0.751567 -0.014111
C40   C     C_2   0.760100 0.578167 0.746337 -0.300794
C41   C     C_R   0.493019 0.684245 0.679951 -0.145123
C42   C     C_R   0.413953 0.677092 0.676153 0.430067
C43   C     C_R   0.416727 0.741909 0.743445 -0.219591
C44   C     C_R   0.497397 0.811551 0.815025 -0.149080
C45   C     C_R   0.687213 0.180145 0.995162 -0.145533
C46   C     C_R   0.572700 0.814045 0.817395 0.087850
C47   C     C_3   0.669533 0.866716 0.866406 0.253462
C48   C     C_3   0.667031 0.796964 0.791370 -0.459173
C49   C     C_2   0.677862 0.511288 0.697717 0.186305
C50   C     C_2   0.823732 0.583442 0.821543 0.469397
C51   C     C_2   0.828668 0.511092 0.811910 -0.328163
C52   C     C_R   0.825573 0.310668 0.073593 -0.085547
C53   C     C_2   0.940290 0.414232 0.228498 0.455319
C54   C     C_2   0.244733 0.330759 0.212857 0.485351
C55   C     C_2   0.398565 0.725892 0.988732 0.577902
C56   C     C_R   0.764803 0.243726 0.072118 0.015209
C57   C     C_2   0.189706 0.838912 0.133699 0.547176
C58   C     C_2   0.469184 0.086244 0.254806 0.465431
C59   C     C_2   0.638922 0.447023 0.299466 0.491609
C60   C     C_3   0.781294 0.300977 0.159983 -0.507864
C61   C     C_3   0.847445 0.376330 0.160785 0.349020
C62   C     C_R   0.247603 0.571683 0.259953 0.011109
Cl1   Cl    Cl    0.372710 0.702555 0.479220 -0.438279
Cl2   Cl    Cl    0.813971 0.455445 0.158080 -0.460669
Cl3   Cl    Cl    0.223556 0.704707 0.341597 -0.372870
Cl4   Cl    Cl    0.273391 0.586161 0.010371 -0.486723
Cl5   Cl    Cl    0.634804 0.438104 0.732740 -0.511498
Cl6   Cl    Cl    0.491007 0.436429 0.188904 -0.561187
Cl7   Cl    Cl    0.311194 0.591285 0.587898 -0.478470
Cl8   Cl    Cl    0.894985 0.685765 0.917181 -0.570431
Cl9   Cl    Cl    0.714505 0.866660 0.966147 -0.485059
Cl10  Cl    Cl    0.590188 0.087538 0.814345 -0.527068
H1    H     H_    0.781390 0.629431 0.730488 0.177717
H2    H     H_    0.498974 0.297111 0.085784 0.245890
H3    H     H_    0.356444 0.737936 0.739896 0.192701
H4    H     H_    0.694395 0.932249 0.871760 0.123745
H5    H     H_    0.690253 0.822125 0.752761 0.200049
H6    H     H_    0.692669 0.755915 0.808984 0.245388
H7    H     H_    0.791373 0.453508 0.747692 0.167326
H8    H     H_    0.736385 0.238897 0.857205 0.196041
H9    H     H_    0.723247 0.306078 0.157618 0.224670
H10   H     H_    0.810175 0.282432 0.207993 0.193327
H11   H     H_    0.965774 0.371186 0.235937 0.041088
H12   H     H_    0.128280 0.357062 0.109262 0.197329
H13   H     H_    0.299994 0.329415 0.254184 0.065260
H14   H     H_    0.425961 0.751690 0.954242 0.034790
H15   H     H_    0.145440 0.841856 0.158598 0.089881
H16   H     H_    0.457676 0.029914 0.200968 0.076369
H17   H     H_    0.665501 0.516536 0.322646 0.117086
H18   H     H_    0.425942 0.695848 0.375059 0.112865
H19   H     H_    0.310079 0.696974 0.267835 0.109978
H20   H     H_    0.287220 0.935691 0.091918 0.201893
H21   H     H_    0.195977 0.903550 0.986641 0.209664
H22   H     H_    0.093684 0.803305 0.004138 0.190686
H23   H     H_    0.481026 0.229308 0.370140 0.205614
H24   H     H_    0.601032 0.308735 0.162570 0.187120
O1    O     O_R   0.908050 0.460100 0.051390 -0.556522
O2    O     O_R   0.551950 0.908320 0.960240 -0.588960
O3    O     O_R   0.540220 0.091590 0.948580 -0.568146
O4    O     O_R   0.908730 0.356680 0.948620 -0.634904
O5    O     O_R   0.643000 0.091540 0.051310 -0.610433
O6    O     O_R   0.448050 0.091580 0.039660 -0.607624
O7    O     O_R   0.550830 0.091520 0.142390 -0.623215
O8    O     O_R   0.357000 0.908370 0.948590 -0.612862
O9    O     O_R   0.459780 0.908310 0.051320 -0.626427
O10   O     O_R   0.908630 0.551710 0.960350 -0.551609
O11   O     O_R   0.909310 0.448290 0.857570 -0.630855
O12   O     O_R   0.445680 0.356610 0.405790 -0.631503
O13   O     O_R   0.091270 0.643320 0.051380 -0.626395
O14   O     O_R   0.091950 0.539900 0.948610 -0.584081
O15   O     O_R   0.090690 0.551710 0.142430 -0.569345
O16   O     O_R   0.091370 0.448290 0.039650 -0.609055
O17   O     O_R   0.549120 0.460050 0.405790 -0.612198
O18   O     O_2   0.987900 0.493109 0.275100 -0.440577
O19   O     O_2   0.182694 0.261707 0.150496 -0.541287
O20   O     O_2   0.431559 0.691910 0.023775 -0.451401
O21   O     O_2   0.261572 0.853301 0.181510 -0.519395
O22   O     O_2   0.470132 0.080700 0.318038 -0.506196
O23   O     O_R   0.639540 0.551640 0.587850 -0.644960
O24   O     O_2   0.684368 0.421192 0.333888 -0.560337
O25   O     O_R   0.536110 0.448210 0.587860 -0.559356
O26   O     O_R   0.547900 0.643240 0.587840 -0.617294
O27   O     O_R   0.444470 0.539800 0.587850 -0.576891
O28   O     O_R   0.457480 0.551640 0.405780 -0.601480
O29   O     O_R   0.354050 0.448210 0.405780 -0.613615
O30   O     O_R   0.449170 0.908380 0.857510 -0.592829
Zn1   Zn    Zn3+2 0.999540 0.569060 0.068630 1.159717
Zn2   Zn    Zn3+2 0.000460 0.430940 0.931370 1.063527
Zn3   Zn    Zn3+2 0.565860 0.568990 0.496810 1.034940
Zn4   Zn    Zn3+2 0.427730 0.430860 0.496820 1.100705
Zn5   Zn    Zn3+2 0.431370 0.999990 0.931350 1.073008
Zn6   Zn    Zn3+2 0.568630 0.999910 0.068550 1.064341

loop_
_geom_bond_atom_site_label_1
_geom_bond_atom_site_label_2
_ccdc_geom_bond_type
C37   H2    S    
C33   C58   S    
C41   C42   A    
C35   C36   A    
C24   O28   A    
O25   Zn4   S    
O1    Zn1   S    
C9    H19   S    
C21   C49   S    
C16   O14   A    
C7    C8    S    
C39   C41   A    
C19   C57   S    
C12   C23   A    
C30   C38   S    
C59   O24   D    
O17   Zn3   S    
C36   C37   S    
C47   H4    S    
C52   C61   S    
C26   O5    A    
C5    C6    A    
C22   C41   S    
C55   O20   D    
C10   C17   A    
C40   C49   D    
C58   O22   D    
C40   H1    S    
C25   C44   S    
C18   C19   S    
C59   H17   S    
C48   H6    S    
C26   C45   S    
O23   Zn3   S    
C53   C61   S    
O29   Zn4   S    
O13   Zn1   S    
C47   C48   S    
C45   C56   A    
C8    C9    S    
O8    Zn5   S    
C15   C29   S    
C23   H8    S    
O7    Zn6   S    
O26   Zn3   S    
O12   Zn4   S    
C26   O3    A    
C14   C55   S    
C13   C14   A    
C29   O9    A    
C1    C12   S    
C60   H10   S    
C1    O4    A    
C12   C52   A    
C44   C46   A    
C16   O13   A    
C22   O26   A    
O9    Zn6   S    
C9    Cl3   S    
C13   Cl4   S    
C28   O15   A    
C43   H3    S    
C4    O11   A    
C4    C51   S    
C9    C62   S    
C5    C54   S    
C22   O27   A    
O6    Zn5   S    
C1    O1    A    
C27   C35   S    
C4    O10   A    
O10   Zn1   S    
C42   Cl7   S    
C28   O16   A    
C57   H15   S    
C29   O8    A    
C60   C61   S    
C48   H5    S    
C61   Cl2   S    
C25   O30   A    
C7    C62   A    
C37   C38   S    
C60   H9    S    
C31   C32   A    
C10   C19   S    
C23   C34   A    
C6    C24   S    
C54   O19   D    
C17   C18   S    
C50   C51   D    
C34   C45   A    
C47   Cl9   S    
C19   H22   S    
C39   C46   A    
C38   Cl6   S    
O27   Zn4   S    
O15   Zn1   S    
C24   O29   A    
C8    H18   S    
C42   C43   A    
C34   Cl10  S    
C53   O18   D    
C57   O21   D    
C15   C17   A    
C46   C47   S    
C49   Cl5   S    
O4    Zn2   S    
C3    C5    A    
C58   H16   S    
O11   Zn2   S    
C54   H13   S    
C6    C7    A    
C30   C36   A    
C27   O6    A    
O3    Zn5   S    
C53   H11   S    
C18   H20   S    
C32   C33   A    
C55   H14   S    
C2    C3    A    
C50   Cl8   S    
C21   O23   A    
C11   C13   A    
C30   C31   A    
C52   C56   A    
O30   Zn5   S    
C43   C44   A    
C40   C50   S    
C27   O7    A    
C33   C35   A    
O28   Zn3   S    
C21   O25   A    
C20   O17   A    
C51   H7    S    
O16   Zn2   S    
C11   C16   S    
C10   C11   A    
C8    Cl1   S    
C38   C59   S    
O5    Zn6   S    
C56   C60   S    
C25   O2    A    
C32   H23   S    
C37   H24   S    
O2    Zn6   S    
C3    H12   S    
C18   H21   S    
C14   C15   A    
C2    C28   S    
C2    C62   A    
O14   Zn2   S    
C39   C48   S    
C20   O12   A    
C20   C31   S    
