data_mof_unit_57610.cif
_audit_creation_date              2013-03-05T16:18:08-0500
_audit_creation_method            fapswitch 2.2
_symmetry_space_group_name_H-M    P1
_symmetry_Int_Tables_number       1
_space_group_crystal_system       triclinic
_cell_length_a                    10.807417
_cell_length_b                    9.802887
_cell_length_c                    15.792639
_cell_angle_alpha                 91.499031
_cell_angle_beta                  88.489354
_cell_angle_gamma                 89.510969
_cell_volume                      1671.90842275

loop_
_atom_site_label
_atom_site_type_symbol
_atom_site_description
_atom_site_fract_x
_atom_site_fract_y
_atom_site_fract_z
_atom_type_partial_charge
O1    O     O_R   0.314910 0.616040 0.499980 -0.618769
O2    O     O_R   0.314910 0.383960 0.499980 -0.587848
C1    C     C_R   0.257839 0.500379 0.504764 0.959932
O3    O     O_R   0.500120 0.616090 0.377110 -0.630220
O4    O     O_R   0.500120 0.383910 0.377110 -0.623280
C2    C     C_R   0.501870 0.498109 0.338808 0.909097
Zn1   Zn    Zn3+2 0.500150 0.654960 0.499960 0.963262
Zn2   Zn    Zn3+2 0.500150 0.345040 0.499960 0.970112
O5    O     O_R   0.685320 0.616040 0.499960 -0.638513
O6    O     O_R   0.685320 0.383960 0.499960 -0.664336
O7    O     O_R   0.500110 0.615990 0.622830 -0.592338
O8    O     O_R   0.500110 0.384010 0.622830 -0.608899
C3    C     C_R   0.741455 0.499433 0.502607 0.828160
C4    C     C_R   0.500506 0.501665 0.661529 1.024720
C5    C     C_3   0.458460 0.631032 0.057993 -0.276690
C6    C     C_3   0.439122 0.365138 0.046858 -0.323202
C7    C     C_3   0.417923 0.381320 0.948733 -0.202232
C8    C     C_3   0.466629 0.647003 0.958210 -0.203017
H1    H     H_    0.502636 0.277367 0.053820 0.188450
H2    H     H_    0.518338 0.708434 0.087429 0.212969
C9    C     C_1   0.504390 0.505617 0.750235 0.035488
C10   C     C_3   0.514647 0.489725 0.084058 -0.039792
C11   C     C_3   0.511912 0.500317 0.917413 -0.091541
C12   C     C_3   0.652541 0.461827 0.946199 -0.263400
C13   C     C_3   0.655220 0.478268 0.049200 -0.276946
C14   C     C_1   0.508048 0.505839 0.825373 0.100807
C15   C     C_1   0.512819 0.488418 0.175878 0.008819
C16   C     C_1   0.508272 0.492664 0.250740 -0.035010
C17   C     C_3   0.065362 0.618199 0.574578 -0.152425
C18   C     C_3   0.069021 0.348788 0.535398 -0.129494
C19   C     C_3   0.921029 0.624684 0.563190 -0.252437
C20   C     C_3   0.924063 0.362593 0.548206 -0.320133
H3    H     H_    0.899446 0.713285 0.523512 0.178734
H4    H     H_    0.882314 0.275931 0.512992 0.087462
H5    H     H_    0.107090 0.634731 0.402288 0.246640
H6    H     H_    0.127172 0.472600 0.369199 0.234264
C21   C     C_3   0.076357 0.532222 0.419631 -0.297358
C22   C     C_3   0.120480 0.499499 0.510365 -0.087934
C23   C     C_3   0.877263 0.498932 0.507559 -0.100884
C24   C     C_3   0.933856 0.514316 0.413388 -0.194338
C25   C     C_3   0.378625 0.079973 0.474608 -0.248849
C26   C     C_3   0.376458 0.920180 0.480390 -0.256352
H7    H     H_    0.354643 0.109547 0.409842 0.192547
H8    H     H_    0.337761 0.872555 0.422485 0.185114
H9    H     H_    0.305263 0.123285 0.517910 0.193432
H10   H     H_    0.312356 0.894987 0.532827 0.191652
C27   C     C_3   0.597422 0.078135 0.438835 -0.151251
C28   C     C_3   0.591909 0.915728 0.434694 -0.152296
C29   C     C_3   0.526880 0.083949 0.583159 -0.239386
C30   C     C_3   0.533917 0.922275 0.581865 -0.247641
N1    N     N_3   0.499750 0.138610 0.498180 -0.103540
N2    N     N_3   0.499750 0.861390 0.498180 -0.102846
H11   H     H_    0.615529 0.126340 0.605921 0.158727
H12   H     H_    0.628852 0.888410 0.597836 0.164322
H13   H     H_    0.454201 0.119221 0.630168 0.212445
H14   H     H_    0.471426 0.883391 0.632684 0.195200
H15   H     H_    0.689732 0.105752 0.463947 0.148587
H16   H     H_    0.685422 0.877182 0.451057 0.168488
C31   C     C_2   0.343778 0.698448 0.923857 0.435786
H17   H     H_    0.304885 0.652282 0.868360 0.090691
O9    O     O_2   0.294160 0.803016 0.952472 -0.499470
C32   C     C_2   0.282151 0.414063 0.930967 0.406554
H18   H     H_    0.215470 0.438832 0.981087 0.169445
O10   O     O_2   0.243907 0.409917 0.858784 -0.516517
C33   C     C_2   0.874263 0.633453 0.368129 0.549613
H19   H     H_    0.780431 0.622161 0.346537 0.113781
O11   O     O_2   0.928213 0.739821 0.354100 -0.484017
C34   C     C_2   0.908533 0.390302 0.356656 0.429081
H20   H     H_    0.856320 0.305465 0.379957 0.126173
O12   O     O_2   0.945896 0.385030 0.282878 -0.447587
C35   C     C_2   0.594273 0.138326 0.351416 0.512615
H21   H     H_    0.509569 0.138297 0.316106 0.061732
O13   O     O_2   0.688142 0.181216 0.317352 -0.574726
C36   C     C_2   0.570328 0.863239 0.345015 0.490637
H22   H     H_    0.479467 0.869127 0.317840 0.081700
O14   O     O_2   0.656729 0.821155 0.300131 -0.501189
C37   C     C_2   0.335381 0.669086 0.103225 1.069714
O15   O     O_2   0.238423 0.616153 0.082986 -0.577950
O16   O     O_R   0.334301 0.768006 0.168803 -0.782381
H23   H     H_    0.248494 0.785132 0.194604 0.369412
C38   C     C_2   0.325075 0.316470 0.097200 0.942818
O17   O     O_2   0.282321 0.380890 0.158645 -0.568103
O18   O     O_R   0.269829 0.193694 0.072667 -0.707797
H24   H     H_    0.195666 0.170546 0.110074 0.386328
C39   C     C_2   0.437102 0.241345 0.902054 1.010161
O19   O     O_2   0.438896 0.233503 0.824529 -0.586754
O20   O     O_R   0.444906 0.120550 0.947045 -0.717704
H25   H     H_    0.452776 0.036626 0.908427 0.382809
C40   C     C_2   0.553522 0.763276 0.932292 0.931499
O21   O     O_2   0.563305 0.793103 0.857527 -0.595953
O22   O     O_R   0.612614 0.845029 0.992432 -0.795958
H26   H     H_    0.670159 0.913365 0.965785 0.366056
C41   C     C_2   0.726673 0.604974 0.080873 0.546729
H27   H     H_    0.761688 0.681146 0.038646 0.121979
O23   O     O_2   0.745484 0.623931 0.156284 -0.506280
C42   C     C_2   0.724376 0.360911 0.090159 0.645472
H28   H     H_    0.676386 0.290480 0.131234 0.083240
O24   O     O_2   0.835773 0.344505 0.077749 -0.438443
C43   C     C_2   0.758578 0.544642 0.905855 0.902059
O25   O     O_2   0.742510 0.617229 0.845579 -0.536124
O26   O     O_R   0.879525 0.523935 0.933079 -0.726655
H29   H     H_    0.942869 0.579427 0.900723 0.390047
C44   C     C_2   0.687252 0.318007 0.908689 0.962530
O27   O     O_2   0.704430 0.303481 0.831876 -0.577775
O28   O     O_R   0.697677 0.202525 0.958009 -0.786899
H30   H     H_    0.727608 0.119740 0.923395 0.361678
C45   C     C_2   0.110959 0.763637 0.558575 0.337498
H31   H     H_    0.151362 0.823366 0.609668 0.096525
O29   O     O_2   0.094336 0.821391 0.492201 -0.567765
C46   C     C_2   0.091477 0.237831 0.465200 0.328137
H32   H     H_    0.046185 0.139851 0.471381 0.145872
O30   O     O_2   0.159943 0.251666 0.403516 -0.557697
C47   C     C_2   0.108753 0.592910 0.664470 0.887104
O31   O     O_2   0.037803 0.565965 0.722940 -0.524907
O32   O     O_R   0.234367 0.608168 0.680573 -0.817204
H33   H     H_    0.254148 0.587723 0.740941 0.363547
C48   C     C_2   0.129360 0.281914 0.611532 0.962597
O33   O     O_2   0.213033 0.336024 0.650066 -0.563677
O34   O     O_R   0.091201 0.151450 0.634835 -0.819749
H34   H     H_    0.138635 0.115301 0.684186 0.367590
C49   C     C_2   0.846958 0.667205 0.642912 0.506568
H35   H     H_    0.869157 0.762692 0.675173 0.083259
O35   O     O_2   0.762716 0.599086 0.671361 -0.538106
C50   C     C_2   0.865108 0.339809 0.636082 0.599424
H36   H     H_    0.766339 0.322018 0.641134 0.090404
O36   O     O_2   0.922747 0.338989 0.701318 -0.437707

loop_
_geom_bond_atom_site_label_1
_geom_bond_atom_site_label_2
_geom_bond_distance
_ccdc_geom_bond_type
C5    C8    1.587888 S    
O20   H25   1.012843 S    
C13   C41   1.547111 S    
O26   H29   1.013975 S    
C12   C43   1.543611 S    
C45   O29   1.220986 D    
C25   C26   1.571812 S    
C20   C50   1.534231 S    
C9    C14   1.188266 T    
C38   O17   1.221984 D    
C37   O15   1.219716 D    
Zn1   O7    1.987458 S    
C41   H27   1.078453 S    
C36   O14   1.219756 D    
C18   C46   1.545711 S    
C7    C39   1.550292 S    
C4    C9    1.402174 S    
H6    C21   1.106631 S    
H5    C21   1.100193 S    
C21   C22   1.562381 S    
Zn1   N2    2.024511 S    
C21   C24   1.556945 S    
C48   O34   1.402427 S    
C39   O19   1.224352 D    
O4    C2    1.286345 A    
O7    C4    1.290515 A    
C11   C14   1.457661 S    
O32   H33   1.007372 S    
C18   C22   1.637466 S    
C26   H10   1.100038 S    
C20   C23   1.582606 S    
O5    C3    1.291687 A    
C46   H32   1.087225 S    
C32   O10   1.222576 D    
C5    C10   1.576594 S    
C2    C16   1.390325 S    
O18   H24   1.013930 S    
C1    C22   1.484906 S    
C6    C7    1.584304 S    
C33   O11   1.221460 D    
C10   C13   1.604210 S    
C42   O24   1.223224 D    
C17   C22   1.622281 S    
C30   N2    1.492471 S    
C45   H31   1.087565 S    
C19   H3    1.110927 S    
C40   O22   1.397525 S    
C37   O16   1.399867 S    
C31   H17   1.073103 S    
C41   O23   1.223116 D    
C25   H7    1.107064 S    
C26   H8    1.109174 S    
O3    Zn1   1.967393 S    
C38   O18   1.398287 S    
C39   O20   1.399864 S    
C5    H2    1.102902 S    
C31   O9    1.223166 D    
C49   O35   1.217036 D    
C36   H22   1.083662 S    
C8    C11   1.626404 S    
C27   C28   1.593370 S    
C28   C36   1.518659 S    
C12   C13   1.631466 S    
C19   C49   1.520986 S    
O3    C2    1.290848 A    
C23   C24   1.604356 S    
C35   O13   1.218885 D    
C34   H20   1.076353 S    
C27   N1    1.500719 S    
C29   N1    1.493263 S    
C29   H13   1.113040 S    
C30   H14   1.112357 S    
O1    C1    1.298322 A    
C20   H4    1.108881 S    
C32   H18   1.077820 S    
C7    C32   1.534016 S    
C27   H15   1.116113 S    
C43   O25   1.218465 D    
C7    C11   1.631300 S    
Zn2   O8    1.967845 S    
C42   H28   1.085475 S    
C44   O28   1.396255 S    
C30   H12   1.112971 S    
Zn2   N1    2.023114 S    
C27   C35   1.516591 S    
C49   H35   1.085657 S    
Zn2   O6    2.040451 S    
C43   O26   1.401532 S    
O8    C4    1.291169 A    
C33   H19   1.084003 S    
C24   C33   1.531253 S    
O22   H26   1.010299 S    
C50   O36   1.218066 D    
C47   O31   1.220353 D    
Zn1   O5    2.034053 S    
C17   C47   1.532402 S    
C6    C10   1.583586 S    
O1    Zn1   2.041185 S    
C8    C40   1.539819 S    
O2    Zn2   2.034785 S    
O6    C3    1.289086 A    
O4    Zn2   1.986954 S    
O34   H34   1.014014 S    
C28   H16   1.115024 S    
C18   C48   1.541420 S    
O28   H30   1.012443 S    
C10   C15   1.450087 S    
C12   C44   1.553982 S    
O2    C1    1.292125 A    
C35   H21   1.084384 S    
C17   C19   1.575842 S    
C48   O33   1.220551 D    
C18   C20   1.578531 S    
C5    C37   1.531758 S    
C6    H1    1.105626 S    
C29   H11   1.112185 S    
C6    C38   1.535284 S    
C19   C23   1.578106 S    
C46   O30   1.218820 D    
C3    C23   1.471836 S    
C11   C12   1.641507 S    
O16   H23   1.013926 S    
C8    C31   1.533720 S    
C28   N2    1.505100 S    
C13   C42   1.533069 S    
C34   O12   1.222692 D    
C29   C30   1.585619 S    
C24   C34   1.522225 S    
C44   O27   1.226762 D    
C25   H9    1.107717 S    
C17   C45   1.537412 S    
C47   O32   1.396316 S    
C40   O21   1.225886 D    
C25   N1    1.486582 S    
C26   N2    1.483798 S    
C50   H36   1.084260 S    
C15   C16   1.181628 T    
