data_mof_unit_46241.cif
_audit_creation_date              2012-12-10T19:50:03-0500
_audit_creation_method            fapswitch 2.2
_symmetry_space_group_name_H-M    P1
_symmetry_Int_Tables_number       1
_space_group_crystal_system       triclinic
_cell_length_a                    14.32391
_cell_length_b                    14.933096
_cell_length_c                    15.585919
_cell_angle_alpha                 90.522924
_cell_angle_beta                  66.807053
_cell_angle_gamma                 88.0235
_cell_volume                      3061.64636982

loop_
_atom_site_label
_atom_site_type_symbol
_atom_type_description
_atom_site_fract_x
_atom_site_fract_y
_atom_site_fract_z
_atom_type_partial_charge
C1    C     C_R   0.499901 0.671884 0.498422 0.840871
C2    C     C_R   0.501581 0.327898 0.499498 0.836666
C3    C     C_R   0.374090 0.526581 0.104620 -0.275511
C4    C     C_R   0.615176 0.512166 0.894493 -0.225895
C5    C     C_R   0.302843 0.538844 0.065064 0.005156
C6    C     C_R   0.689015 0.506672 0.931146 -0.004674
C7    C     C_R   0.424649 0.912582 0.542454 -0.188824
C8    C     C_R   0.557443 0.088085 0.529364 -0.176950
C9    C     C_R   0.422453 0.820683 0.549917 -0.187206
C10   C     C_R   0.554768 0.180506 0.537723 -0.241792
C11   C     C_R   0.503490 0.767324 0.490619 -0.043452
C12   C     C_R   0.507122 0.231878 0.491235 -0.023334
C13   C     C_R   0.591353 0.805282 0.427585 -0.263590
C14   C     C_R   0.463346 0.191493 0.435860 -0.217379
C15   C     C_R   0.595208 0.897820 0.419564 0.027249
C16   C     C_R   0.463289 0.099121 0.428405 0.008115
C17   C     C_R   0.509304 0.951073 0.475603 0.053553
C18   C     C_R   0.511196 0.047433 0.475746 0.065839
C19   C     C_R   0.863128 0.550822 0.567856 -0.385595
C20   C     C_R   0.119941 0.420702 0.473822 -0.381312
C21   C     C_R   0.766216 0.555320 0.561608 0.634018
C22   C     C_R   0.221237 0.425923 0.467055 0.609024
C23   C     C_R   0.436032 0.494801 0.675786 0.904889
C24   C     C_R   0.563361 0.506011 0.324192 0.897069
C25   C     C_R   0.823854 0.440918 0.443762 0.031424
C26   C     C_R   0.185754 0.573965 0.529016 0.029875
C27   C     C_R   0.920832 0.438166 0.446597 -0.348298
C28   C     C_R   0.086926 0.572097 0.529452 -0.308150
C29   C     C_R   0.943256 0.493703 0.507834 0.104232
C30   C     C_R   0.050575 0.494702 0.504951 0.095335
C31   C     C_R   0.394649 0.487196 0.777744 -0.301570
C32   C     C_R   0.601269 0.518510 0.222547 -0.292081
C33   C     C_R   0.260117 0.514608 0.929787 -0.328096
C34   C     C_R   0.732976 0.504597 0.067721 -0.317163
C35   C     C_R   0.290507 0.496937 0.834332 0.435924
C36   C     C_R   0.704683 0.514176 0.163633 0.447064
C37   C     C_R   0.463143 0.471101 0.820225 0.392851
C38   C     C_R   0.530366 0.539797 0.183742 0.365275
C39   C     C_R   0.436876 0.500647 0.913082 -0.036393
C40   C     C_R   0.554940 0.521684 0.087892 -0.053075
C41   C     C_R   0.332760 0.520365 0.969301 -0.017497
C42   C     C_R   0.659598 0.508552 0.028546 -0.010419
C43   C     C_R   0.510962 0.509329 0.951606 0.071366
C44   C     C_R   0.479615 0.519151 0.049300 0.067947
H1    H     H_    0.875018 0.590930 0.620389 0.162199
H2    H     H_    0.096919 0.358412 0.453924 0.154786
H3    H     H_    0.979599 0.393815 0.397907 0.150897
H4    H     H_    0.037472 0.631758 0.551577 0.157915
H5    H     H_    0.179525 0.522122 0.972552 0.178228
H6    H     H_    0.813346 0.497352 0.024585 0.182491
H7    H     H_    0.343858 0.526421 0.179251 0.204325
H8    H     H_    0.641390 0.521747 0.820214 0.223397
H9    H     H_    0.361862 0.953897 0.590584 0.135445
H10   H     H_    0.593463 0.047966 0.566281 0.140281
H11   H     H_    0.360573 0.790666 0.604346 0.176803
H12   H     H_    0.588177 0.211634 0.581241 0.129449
H13   H     H_    0.656221 0.762961 0.384410 0.137794
H14   H     H_    0.428196 0.231973 0.398851 0.187351
N1    N     N_R   0.747530 0.500020 0.500000 -0.141064
N2    N     N_R   0.252470 0.499980 0.500000 -0.152669
O1    O     O_R   0.420530 0.630930 0.499990 -0.615259
O2    O     O_R   0.579470 0.369070 0.500010 -0.630539
O3    O     O_R   0.579480 0.630940 0.499990 -0.608587
O4    O     O_R   0.420520 0.369060 0.500010 -0.582196
O5    O     O_R   0.375120 0.499990 0.632240 -0.611835
O6    O     O_R   0.624880 0.500010 0.367760 -0.594948
O7    O     O_R   0.534080 0.500000 0.632240 -0.520470
O8    O     O_R   0.465920 0.500000 0.367760 -0.567674
Zn1   Zn    Zn3+2 0.393860 0.499990 0.500000 0.970095
Zn2   Zn    Zn3+2 0.606140 0.500010 0.500000 0.985900
C45   C     C_R   0.202161 0.581545 0.123659 0.129703
C46   C     C_R   0.143064 0.548737 0.212023 -0.166544
C47   C     C_R   0.055647 0.597097 0.271091 -0.147039
C48   C     C_R   0.026337 0.677943 0.243007 -0.120802
C49   C     C_R   0.083735 0.710501 0.154966 -0.149208
C50   C     C_R   0.171341 0.662750 0.095562 -0.166558
H15   H     H_    0.165621 0.486970 0.235880 0.122743
H16   H     H_    0.011372 0.573147 0.339443 0.148542
H17   H     H_    0.959552 0.715574 0.289951 0.114027
H18   H     H_    0.061271 0.773445 0.133305 0.137083
H19   H     H_    0.216952 0.690531 0.028777 0.132161
C51   C     C_R   0.796466 0.501860 0.864637 0.115771
C52   C     C_R   0.834773 0.426874 0.804275 -0.139032
C53   C     C_R   0.936781 0.421244 0.742597 -0.152284
C54   C     C_R   0.000499 0.490543 0.740618 -0.091791
C55   C     C_R   0.962170 0.566334 0.798861 -0.129025
C56   C     C_R   0.860202 0.572478 0.860216 -0.207192
H20   H     H_    0.785988 0.372506 0.805936 0.134180
H21   H     H_    0.966663 0.363000 0.696797 0.138418
H22   H     H_    0.079708 0.485070 0.694192 0.143090
H23   H     H_    0.011268 0.620111 0.797274 0.150348
H24   H     H_    0.831151 0.631485 0.905111 0.133835
O9    O     O_3   0.685720 0.607915 0.623538 -0.607019
C57   C     C_3   0.712256 0.697327 0.630730 0.052973
H25   H     H_    0.656878 0.742305 0.616423 0.174966
H26   H     H_    0.788879 0.714421 0.578966 0.102764
C58   C     C_3   0.702862 0.716981 0.730440 -0.346597
H27   H     H_    0.623377 0.707096 0.780065 0.228494
H28   H     H_    0.753542 0.669751 0.748478 0.222607
C59   C     C_3   0.730859 0.812727 0.741697 -0.972069
H29   H     H_    0.811017 0.823250 0.694403 0.264106
H30   H     H_    0.722381 0.824969 0.814829 0.264969
H31   H     H_    0.679997 0.861400 0.725513 0.262851
O10   O     O_3   0.288773 0.354897 0.426513 -0.642077
C60   C     C_3   0.327951 0.361053 0.327909 0.105666
H32   H     H_    0.411848 0.350510 0.301245 0.166022
H33   H     H_    0.313789 0.427734 0.302449 0.135785
C61   C     C_3   0.285382 0.287641 0.286148 -0.399330
H34   H     H_    0.293366 0.222267 0.316467 0.257163
H35   H     H_    0.203365 0.302513 0.303722 0.208031
C62   C     C_3   0.340713 0.280643 0.180107 -0.956060
H36   H     H_    0.330577 0.344376 0.148141 0.269675
H37   H     H_    0.308914 0.226057 0.152391 0.265654
H38   H     H_    0.423114 0.265155 0.160191 0.262019
C63   C     C_R   0.810207 0.378123 0.376808 0.160200
C64   C     C_R   0.772155 0.293239 0.405155 -0.111948
C65   C     C_R   0.768660 0.230275 0.339526 -0.144812
C66   C     C_R   0.807769 0.250283 0.244769 -0.157374
C67   C     C_R   0.853771 0.331659 0.215388 -0.109276
C68   C     C_R   0.857167 0.394348 0.281136 -0.091325
H39   H     H_    0.745832 0.275893 0.477930 0.127625
H40   H     H_    0.736986 0.165638 0.361892 0.172382
H41   H     H_    0.805052 0.201976 0.193827 0.131636
H42   H     H_    0.887990 0.345715 0.141691 0.141267
H43   H     H_    0.898108 0.455018 0.257642 0.159061
C69   C     C_R   0.207012 0.657102 0.568524 0.196005
C70   C     C_R   0.200321 0.657640 0.660607 -0.148882
C71   C     C_R   0.179568 0.737658 0.713342 -0.207014
C72   C     C_R   0.166489 0.818326 0.673829 -0.143897
C73   C     C_R   0.178148 0.819304 0.580497 -0.146481
C74   C     C_R   0.198737 0.739238 0.527869 -0.172326
H44   H     H_    0.202455 0.595429 0.693887 0.199541
H45   H     H_    0.171225 0.736753 0.785431 0.146275
H46   H     H_    0.149292 0.880133 0.714868 0.129242
H47   H     H_    0.168513 0.881717 0.549744 0.125482
H48   H     H_    0.200481 0.740343 0.457757 0.128265
O11   O     O_3   0.442467 0.588056 0.239240 -0.645957
C75   C     C_3   0.447771 0.678535 0.211814 0.070306
H49   H     H_    0.373413 0.699437 0.209886 0.160696
H50   H     H_    0.506804 0.690535 0.140789 0.135254
C76   C     C_3   0.465754 0.737381 0.283837 -0.321622
H51   H     H_    0.399105 0.735473 0.351549 0.239831
H52   H     H_    0.534026 0.711386 0.294020 0.202335
C77   C     C_3   0.481743 0.833720 0.252005 -0.950425
H53   H     H_    0.556079 0.838654 0.192154 0.253270
H54   H     H_    0.480668 0.877304 0.310220 0.287875
H55   H     H_    0.420141 0.857260 0.230522 0.274548
O12   O     O_3   0.554751 0.424430 0.771366 -0.633991
C78   C     C_3   0.538494 0.332016 0.765665 0.105961
H56   H     H_    0.605312 0.302550 0.706222 0.158921
H57   H     H_    0.470653 0.319076 0.749840 0.099546
C79   C     C_3   0.531220 0.284765 0.854918 -0.364218
H58   H     H_    0.599404 0.298571 0.869490 0.228442
H59   H     H_    0.462673 0.310725 0.915015 0.220078
C80   C     C_3   0.524159 0.183728 0.845349 -0.977898
H60   H     H_    0.455686 0.168548 0.831860 0.265740
H61   H     H_    0.518377 0.151442 0.911061 0.265117
H62   H     H_    0.592974 0.155393 0.787100 0.261235
O13   O     O_3   0.779447 0.526864 0.196968 -0.649421
C81   C     C_3   0.778963 0.618495 0.222087 0.129710
H63   H     H_    0.817415 0.622571 0.271405 0.149511
H64   H     H_    0.700871 0.648095 0.260419 0.110384
C82   C     C_3   0.836945 0.674313 0.136542 -0.401506
H65   H     H_    0.918239 0.651255 0.106132 0.236925
H66   H     H_    0.805580 0.665832 0.082402 0.219876
C83   C     C_3   0.828044 0.773814 0.162646 -0.943176
H67   H     H_    0.747529 0.798490 0.186860 0.271727
H68   H     H_    0.874398 0.812179 0.100707 0.263758
H69   H     H_    0.855425 0.785739 0.218942 0.268919
O14   O     O_3   0.217797 0.484995 0.798262 -0.656574
C84   C     C_3   0.185990 0.395371 0.811512 0.038505
H70   H     H_    0.102253 0.397251 0.833346 0.174183
H71   H     H_    0.201058 0.360263 0.868119 0.125093
C85   C     C_3   0.235560 0.340859 0.719827 -0.281256
H72   H     H_    0.223345 0.376968 0.662872 0.241983
H73   H     H_    0.318619 0.332617 0.701317 0.199553
C86   C     C_3   0.191748 0.248234 0.727551 -0.990172
H74   H     H_    0.204157 0.210206 0.783338 0.259530
H75   H     H_    0.230249 0.210579 0.660201 0.278703
H76   H     H_    0.109028 0.254343 0.743505 0.260137
C87   C     C_R   0.689826 0.936720 0.354797 0.126026
C88   C     C_R   0.693039 0.978185 0.273377 -0.163640
C89   C     C_R   0.783890 0.011567 0.210437 -0.155806
C90   C     C_R   0.871753 0.004560 0.228889 -0.109788
C91   C     C_R   0.869013 0.963470 0.310018 -0.151508
C92   C     C_R   0.778467 0.929162 0.372652 -0.181438
H77   H     H_    0.626118 0.982668 0.257575 0.133613
H78   H     H_    0.786258 0.042528 0.147149 0.120634
H79   H     H_    0.941976 0.030677 0.180186 0.119852
H80   H     H_    0.937183 0.957649 0.324041 0.125035
H81   H     H_    0.777339 0.896687 0.434902 0.120806
C93   C     C_R   0.410721 0.060890 0.372473 0.100003
C94   C     C_R   0.446790 0.076499 0.276222 -0.188000
C95   C     C_R   0.391143 0.050305 0.224666 -0.132289
C96   C     C_R   0.298385 0.009593 0.268992 -0.135534
C97   C     C_R   0.261673 0.994285 0.364750 -0.141203
C98   C     C_R   0.317120 0.020471 0.416547 -0.126272
H82   H     H_    0.516994 0.110511 0.241570 0.126221
H83   H     H_    0.419283 0.062644 0.150609 0.132885
H84   H     H_    0.255018 0.989874 0.229152 0.122236
H85   H     H_    0.189375 0.963500 0.399091 0.118707
H86   H     H_    0.285200 0.012257 0.491291 0.115748

loop_
_geom_bond_atom_site_label_1
_geom_bond_atom_site_label_2
_ccdc_geom_bond_type
C84   H70   S    
O9    C57   S    
C6    C51   S    
C80   H61   S    
C65   C66   A    
C47   C48   A    
C60   H32   S    
C62   H36   S    
C1    C11   S    
C49   C50   A    
C2    C12   S    
C71   C72   A    
C58   H27   S    
C78   H56   S    
C91   H80   S    
C39   C41   A    
C20   C30   A    
C67   H42   S    
C90   C91   A    
C60   H33   S    
C69   C70   A    
C4    H8    S    
C52   C53   A    
C32   C36   A    
C82   H66   S    
C21   N1    A    
C55   H23   S    
C25   C63   S    
C22   N2    A    
C45   C50   A    
C85   H72   S    
C27   C29   A    
O14   C84   S    
C27   H3    S    
C94   H82   S    
N2    Zn1   S    
C22   O10   S    
C61   H34   S    
O2    Zn2   S    
C93   C98   A    
C26   C69   S    
C23   O7    A    
C92   H81   S    
C66   C67   A    
C16   C93   S    
C36   O13   S    
C88   C89   A    
C76   H51   S    
O13   C81   S    
O8    Zn1   S    
C7    C17   A    
C34   C42   A    
C47   H16   S    
O3    Zn2   S    
C9    H11   S    
C14   C16   A    
C32   C38   A    
C10   H12   S    
C49   H18   S    
C63   C68   A    
C24   O6    A    
C88   H77   S    
C40   C42   A    
C95   C96   A    
C56   H24   S    
C80   H62   S    
C83   H68   S    
C77   H55   S    
C1    O3    A    
O10   C60   S    
C58   H28   S    
C2    O4    A    
C96   H84   S    
C14   H14   S    
C84   C85   S    
C3    C44   A    
C34   H6    S    
C64   H39   S    
C81   C82   S    
C82   C83   S    
O12   C78   S    
C77   H54   S    
C74   H48   S    
C48   C49   A    
C76   C77   S    
C8    H10   S    
C3    H7    S    
C55   C56   A    
C97   C98   A    
C39   C43   A    
C96   C97   A    
C57   C58   S    
C86   H75   S    
C87   C88   A    
C59   H31   S    
C8    C18   A    
C31   C37   A    
C76   H52   S    
C23   C31   S    
C65   H40   S    
C24   C32   S    
C89   C90   A    
C29   C30   S    
C84   H71   S    
C95   H83   S    
C79   C80   S    
C87   C92   A    
C86   H76   S    
C59   H30   S    
C17   C18   S    
C5    C45   S    
C98   H86   S    
C62   H37   S    
C16   C18   A    
C60   C61   S    
C53   C54   A    
C67   C68   A    
C57   H26   S    
C70   H44   S    
C85   C86   S    
C54   C55   A    
C10   C12   A    
C86   H74   S    
C4    C6    A    
C73   H47   S    
C12   C14   A    
C94   C95   A    
C48   H17   S    
C9    C11   A    
C13   C15   A    
C83   H67   S    
C31   C35   A    
C78   C79   S    
C53   H21   S    
C7    H9    S    
C70   C71   A    
C19   C29   A    
C58   C59   S    
C72   C73   A    
C79   H59   S    
O1    Zn1   S    
C7    C9    A    
C5    C41   A    
C28   H4    S    
C19   C21   A    
C68   H43   S    
C20   C22   A    
C46   C47   A    
C3    C5    A    
C75   C76   S    
C1    O1    A    
C50   H19   S    
C46   H15   S    
C54   H22   S    
C19   H1    S    
C15   C17   A    
C75   H50   S    
C4    C43   A    
C25   C27   A    
O4    Zn1   S    
O11   C75   S    
C26   C28   A    
C61   C62   S    
C77   H53   S    
O7    Zn2   S    
C33   C41   A    
C93   C94   A    
C23   O5    A    
C78   H57   S    
C73   C74   A    
C45   C46   A    
C37   C39   A    
C89   H78   S    
C81   H63   S    
C38   C40   A    
C11   C13   A    
C91   C92   A    
O6    Zn2   S    
C21   O9    S    
C69   C74   A    
C43   C44   A    
O5    Zn1   S    
C15   C87   S    
C28   C30   A    
C59   H29   S    
C33   C35   A    
C38   O11   S    
C61   H35   S    
C64   C65   A    
C52   H20   S    
C62   H38   S    
C34   C36   A    
C66   H41   S    
C37   O12   S    
C57   H25   S    
C85   H73   S    
C82   H65   S    
C75   H49   S    
C24   O8    A    
N1    Zn2   S    
C72   H46   S    
C2    O2    A    
C40   C44   A    
C13   H13   S    
C79   H58   S    
C83   H69   S    
C8    C10   A    
C51   C52   A    
C6    C42   A    
C33   H5    S    
C80   H60   S    
C35   O14   S    
C90   H79   S    
C25   N1    A    
C63   C64   A    
C97   H85   S    
C71   H45   S    
C26   N2    A    
C20   H2    S    
C51   C56   A    
C81   H64   S    
