data_mof_unit_67232.cif
_audit_creation_date              2012-12-11T18:15:38-0500
_audit_creation_method            fapswitch 2.2
_symmetry_space_group_name_H-M    P1
_symmetry_Int_Tables_number       1
_space_group_crystal_system       triclinic
_cell_length_a                    20.61893
_cell_length_b                    20.324791
_cell_length_c                    8.388171
_cell_angle_alpha                 89.906516
_cell_angle_beta                  93.199943
_cell_angle_gamma                 90.152249
_cell_volume                      3509.77926282

loop_
_atom_site_label
_atom_site_type_symbol
_atom_type_description
_atom_site_fract_x
_atom_site_fract_y
_atom_site_fract_z
_atom_type_partial_charge
Ba1   Ba    Ba6+2 0.999980 0.452130 0.155200 1.715607
Ba2   Ba    Ba6+2 0.999980 0.547870 0.655200 1.675410
Ba3   Ba    Ba6+2 0.499980 0.952130 0.155200 1.715579
Ba4   Ba    Ba6+2 0.499980 0.047870 0.655200 1.675368
C1    C     C_3   0.952322 0.144813 0.448166 -0.317037
C2    C     C_R   0.111123 0.665359 0.185211 -0.255723
C3    C     C_3   0.273136 0.705900 0.922126 -0.194537
C4    C     C_2   0.049772 0.208413 0.841380 0.433948
C5    C     C_2   0.069867 0.780325 0.457121 0.465059
C6    C     C_2   0.549773 0.708406 0.841401 0.433932
C7    C     C_2   0.569864 0.280330 0.457144 0.465087
C8    C     C_2   0.053852 0.098880 0.075152 0.584610
C9    C     C_2   0.050545 0.907338 0.639573 0.543918
C10   C     C_2   0.553852 0.598877 0.075181 0.584546
C11   C     C_2   0.550532 0.407341 0.639616 0.543862
C12   C     C_2   0.945395 0.062830 0.955057 0.518050
C13   C     C_R   0.619830 0.842085 0.666629 -0.241657
C14   C     C_2   0.966998 0.939802 0.428227 0.503833
C15   C     C_2   0.445389 0.562834 0.955120 0.518028
C16   C     C_2   0.466991 0.439806 0.428255 0.503873
C17   C     C_R   0.611119 0.165356 0.185217 -0.255721
C18   C     C_R   0.131117 0.289639 0.563776 0.034940
C19   C     C_R   0.119930 0.719515 0.085030 -0.012205
C20   C     C_R   0.631115 0.789629 0.563779 0.034934
C21   C     C_R   0.619921 0.219514 0.085044 -0.012217
C22   C     C_R   0.177555 0.241248 0.608145 0.110199
C23   C     C_R   0.165458 0.768506 0.131544 0.083767
C24   C     C_R   0.677549 0.741233 0.608157 0.110188
C25   C     C_3   0.927448 0.846224 0.851962 -0.299671
C26   C     C_R   0.665440 0.268512 0.131571 0.083778
C27   C     C_R   0.214561 0.246728 0.754685 0.031665
C28   C     C_R   0.208954 0.758088 0.266417 0.072198
C29   C     C_R   0.714555 0.746718 0.754696 0.031670
C30   C     C_R   0.708940 0.258094 0.266436 0.072216
C31   C     C_R   0.204630 0.301656 0.856198 -0.025053
C32   C     C_R   0.202647 0.700304 0.361731 -0.033224
C33   C     C_R   0.704626 0.801649 0.856203 -0.025041
C34   C     C_R   0.702640 0.200307 0.361741 -0.033247
C35   C     C_R   0.801428 0.702679 0.941491 -0.073872
C36   C     C_3   0.452335 0.644804 0.448210 -0.317020
C37   C     C_R   0.799479 0.298969 0.446229 -0.055466
C38   C     C_R   0.301435 0.202686 0.941478 -0.073860
C39   C     C_R   0.299492 0.798961 0.446212 -0.055460
C40   C     C_R   0.794307 0.759690 0.037472 -0.003997
C41   C     C_R   0.791242 0.242743 0.544740 0.034801
C42   C     C_R   0.294313 0.259696 0.037462 -0.004012
C43   C     C_R   0.291251 0.742737 0.544728 0.034778
C44   C     C_R   0.849331 0.653782 0.989163 0.019705
C45   C     C_R   0.848366 0.347100 0.491410 -0.002060
C46   C     C_R   0.349336 0.153786 0.989153 0.019776
C47   C     C_3   0.427453 0.346229 0.851972 -0.299725
C48   C     C_R   0.348377 0.847093 0.491394 -0.001934
C49   C     C_R   0.886567 0.663392 0.132625 -0.289054
C50   C     C_R   0.886538 0.337248 0.633510 -0.292509
C51   C     C_R   0.386571 0.163395 0.132619 -0.289145
C52   C     C_R   0.386547 0.837243 0.633498 -0.292515
C53   C     C_3   0.988599 0.174715 0.882888 0.340725
C54   C     C_3   0.009442 0.820688 0.425313 0.277771
C55   C     C_3   0.488599 0.674712 0.882913 0.340781
C56   C     C_3   0.509438 0.320692 0.425339 0.277745
C57   C     C_R   0.879956 0.719546 0.227480 -0.019429
C58   C     C_R   0.154523 0.349301 0.813879 0.066272
C59   C     C_R   0.876274 0.283820 0.735090 -0.026272
C60   C     C_R   0.379961 0.219550 0.227474 -0.019448
C61   C     C_R   0.376282 0.783816 0.735081 -0.026298
C62   C     C_R   0.836208 0.769294 0.175549 0.111241
C63   C     C_R   0.828806 0.236616 0.690476 0.101814
C64   C     C_R   0.336215 0.269299 0.175540 0.111247
C65   C     C_R   0.328814 0.736612 0.690467 0.101794
C66   C     C_R   0.760700 0.697262 0.801378 -0.037444
C67   C     C_R   0.757667 0.305586 0.308566 -0.017225
C68   C     C_R   0.260708 0.197272 0.801361 -0.037424
C69   C     C_R   0.152426 0.652958 0.320214 -0.025955
C70   C     C_R   0.257682 0.805577 0.308545 -0.017183
C71   C     C_3   0.005594 0.102862 0.931892 -0.155564
C72   C     C_3   0.023413 0.895121 0.469483 -0.085911
C73   C     C_3   0.505589 0.602859 0.931930 -0.155578
C74   C     C_3   0.523406 0.395125 0.469522 -0.085910
C75   C     C_3   0.805143 0.460665 0.909243 0.257521
C76   C     C_3   0.785964 0.516967 0.472401 0.263623
C77   C     C_3   0.305143 0.960633 0.908999 0.257632
C78   C     C_3   0.286092 0.017115 0.472194 0.263717
C79   C     C_3   0.757300 0.413693 0.825387 -0.408338
C80   C     C_R   0.654521 0.849297 0.813878 0.066259
C81   C     C_3   0.712848 0.519973 0.488143 -0.385136
C82   C     C_3   0.257286 0.913716 0.824977 -0.408185
C83   C     C_3   0.212996 0.020343 0.488089 -0.384786
C84   C     C_3   0.212276 0.519733 0.856382 0.245389
C85   C     C_3   0.226337 0.493985 0.345714 0.239523
C86   C     C_3   0.712276 0.019734 0.856388 0.245388
C87   C     C_3   0.726338 0.993985 0.345717 0.239526
C88   C     C_3   0.282656 0.530297 0.817448 -0.454928
C89   C     C_3   0.284499 0.535345 0.299433 -0.448336
C90   C     C_3   0.782656 0.030303 0.817462 -0.454925
C91   C     C_R   0.652422 0.152958 0.320220 -0.025941
C92   C     C_3   0.784500 0.035344 0.299437 -0.448348
C93   C     C_3   0.979654 0.213394 0.423421 0.384510
C94   C     C_3   0.966767 0.784694 0.891795 0.337610
C95   C     C_3   0.479658 0.713388 0.423443 0.384530
C96   C     C_3   0.466767 0.284698 0.891808 0.337573
C97   C     C_R   0.244716 0.306429 0.996515 -0.049152
C98   C     C_R   0.244319 0.693931 0.499360 -0.027139
C99   C     C_R   0.744711 0.806423 0.996521 -0.049133
C100  C     C_R   0.744313 0.193934 0.499369 -0.027137
C101  C     C_2   0.184621 0.576624 0.935957 0.608180
C102  C     C_R   0.119829 0.342090 0.666632 -0.241669
C103  C     C_2   0.247097 0.426837 0.398220 0.475333
C104  C     C_2   0.684618 0.076623 0.935967 0.608239
C105  C     C_2   0.747097 0.926837 0.398226 0.475341
C106  C     C_3   0.220839 0.194840 0.369179 -0.175671
C107  C     C_3   0.130245 0.881362 0.112470 -0.200489
C108  C     C_3   0.720824 0.694801 0.369196 -0.175549
C109  C     C_3   0.630208 0.381363 0.112546 -0.200565
C110  C     C_3   0.862702 0.884627 0.183012 -0.221543
C111  C     C_3   0.773134 0.205894 0.922138 -0.194520
C112  C     C_3   0.362706 0.384634 0.183013 -0.221572
H1    H     H_    0.944582 0.241467 0.344321 0.082916
H2    H     H_    0.701924 0.548719 0.595750 0.120100
H3    H     H_    0.578138 0.367393 0.114713 0.114859
H4    H     H_    0.846465 0.826891 0.381567 0.233219
H5    H     H_    0.859115 0.928682 0.256665 0.127258
H6    H     H_    0.836587 0.896441 0.067890 0.114611
H7    H     H_    0.914565 0.875054 0.166909 0.085930
H8    H     H_    0.854422 0.159533 0.841967 0.212548
H9    H     H_    0.723087 0.193084 0.884699 0.129857
H10   H     H_    0.773383 0.259585 0.939932 0.121053
H11   H     H_    0.788286 0.182070 0.037536 0.115835
H12   H     H_    0.346470 0.326895 0.381563 0.233219
H13   H     H_    0.263096 0.864799 0.880457 0.098520
H14   H     H_    0.359117 0.428687 0.256671 0.127246
H15   H     H_    0.336590 0.396449 0.067893 0.114614
H16   H     H_    0.414569 0.375064 0.166909 0.085929
H17   H     H_    0.354422 0.659531 0.841969 0.212572
H18   H     H_    0.223089 0.693091 0.884684 0.129850
H19   H     H_    0.273388 0.759591 0.939914 0.121081
H20   H     H_    0.288286 0.682077 0.037529 0.115853
H21   H     H_    0.071622 0.195289 0.731875 -0.108304
H22   H     H_    0.067096 0.727610 0.453992 0.047242
H23   H     H_    0.571625 0.695275 0.731903 -0.108309
H24   H     H_    0.202189 0.049180 0.595638 0.120113
H25   H     H_    0.567096 0.227616 0.453995 0.047233
H26   H     H_    0.099298 0.125843 0.074003 -0.009142
H27   H     H_    0.092487 0.880553 0.687631 0.069234
H28   H     H_    0.599300 0.625836 0.074018 -0.009143
H29   H     H_    0.592453 0.380533 0.687708 0.069292
H30   H     H_    0.930187 0.025677 0.867928 0.043891
H31   H     H_    0.967172 0.969824 0.321147 0.052894
H32   H     H_    0.430193 0.525654 0.868048 0.043881
H33   H     H_    0.467168 0.469827 0.321174 0.052850
H34   H     H_    0.706878 0.431559 0.834233 0.134653
H35   H     H_    0.692801 0.469515 0.499669 0.116067
H36   H     H_    0.206865 0.931552 0.834023 0.134607
H37   H     H_    0.192812 0.969951 0.499821 0.116092
H38   H     H_    0.184800 0.507913 0.744049 0.096086
H39   H     H_    0.190130 0.490809 0.243953 0.098501
H40   H     H_    0.684801 0.007915 0.744053 0.096084
H41   H     H_    0.942297 0.743198 0.826478 0.091354
H42   H     H_    0.690131 0.990808 0.243956 0.098499
H43   H     H_    0.310276 0.551423 0.921377 0.152483
H44   H     H_    0.270205 0.587298 0.280839 0.100205
H45   H     H_    0.810272 0.051435 0.921389 0.152485
H46   H     H_    0.770206 0.087297 0.280846 0.100204
H47   H     H_    0.285774 0.563741 0.713945 0.121020
H48   H     H_    0.324256 0.533937 0.394438 0.150851
H49   H     H_    0.785773 0.063743 0.713951 0.121013
H50   H     H_    0.824257 0.033935 0.394441 0.150847
H51   H     H_    0.304868 0.482616 0.786065 0.138559
H52   H     H_    0.444578 0.741456 0.344355 0.082890
H53   H     H_    0.302449 0.517413 0.185690 0.142279
H54   H     H_    0.804873 0.982623 0.786092 0.138561
H55   H     H_    0.802450 0.017412 0.185694 0.142287
H56   H     H_    0.984741 0.237931 0.541846 -0.128984
H57   H     H_    0.967194 0.775947 0.022564 -0.079671
H58   H     H_    0.484751 0.737927 0.541866 -0.129017
H59   H     H_    0.467198 0.275954 0.022579 -0.079629
H60   H     H_    0.905335 0.147922 0.506022 0.050555
H61   H     H_    0.875942 0.837320 0.874496 0.043079
H62   H     H_    0.405353 0.647909 0.506088 0.050565
H63   H     H_    0.442293 0.243201 0.826501 0.091361
H64   H     H_    0.375946 0.337330 0.874507 0.043115
H65   H     H_    0.943812 0.119961 0.331985 0.211421
H66   H     H_    0.928466 0.858824 0.725179 0.216892
H67   H     H_    0.443819 0.619949 0.332035 0.211424
H68   H     H_    0.428469 0.358828 0.725188 0.216873
H69   H     H_    0.029788 0.079946 0.830550 -0.022212
H70   H     H_    0.062189 0.911956 0.392484 -0.040242
H71   H     H_    0.529778 0.579938 0.830587 -0.022148
H72   H     H_    0.562184 0.411963 0.392536 -0.040233
H73   H     H_    0.083417 0.378252 0.630863 0.055080
H74   H     H_    0.766959 0.408263 0.697917 0.078073
H75   H     H_    0.072868 0.630465 0.153486 0.101155
H76   H     H_    0.583420 0.878249 0.630854 0.055079
H77   H     H_    0.572868 0.130458 0.153486 0.101166
H78   H     H_    0.920395 0.625525 0.173318 0.080327
H79   H     H_    0.922711 0.373698 0.669841 0.067868
H80   H     H_    0.420396 0.125526 0.173316 0.080309
H81   H     H_    0.422718 0.873694 0.669833 0.067869
H82   H     H_    0.237374 0.347193 0.074845 0.165368
H83   H     H_    0.239450 0.651168 0.573750 0.102847
H84   H     H_    0.737370 0.847189 0.074848 0.165366
H85   H     H_    0.689086 0.543804 0.380958 0.135024
H86   H     H_    0.739448 0.151169 0.573753 0.102846
H87   H     H_    0.765020 0.654504 0.726748 0.127636
H88   H     H_    0.762236 0.348497 0.234122 0.111760
H89   H     H_    0.265031 0.154518 0.726722 0.127615
H90   H     H_    0.262255 0.848485 0.234096 0.111847
H91   H     H_    0.986960 0.115151 0.524507 0.125206
H92   H     H_    0.947341 0.888863 0.921070 0.125598
H93   H     H_    0.486982 0.615147 0.524540 0.125207
H94   H     H_    0.447350 0.388869 0.921074 0.125567
H95   H     H_    0.956068 0.172807 0.773498 -0.178692
H96   H     H_    0.266901 0.908421 0.697448 0.078098
H97   H     H_    0.996591 0.817878 0.295269 -0.139404
H98   H     H_    0.456069 0.672802 0.773522 -0.178703
H99   H     H_    0.496589 0.317885 0.295295 -0.139401
H100  H     H_    0.854645 0.441749 0.890138 0.061462
H101  H     H_    0.805125 0.567213 0.456274 0.073909
H102  H     H_    0.354644 0.941743 0.889790 0.061184
H103  H     H_    0.305396 0.067285 0.455732 0.073684
H104  H     H_    0.794849 0.461420 0.036813 0.109032
H105  H     H_    0.809070 0.496500 0.582858 0.060603
H106  H     H_    0.294863 0.961295 0.036583 0.109027
H107  H     H_    0.189260 0.044170 0.380866 0.134873
H108  H     H_    0.309169 0.996682 0.582729 0.060765
H109  H     H_    0.212086 0.601724 0.030644 -0.201361
H110  H     H_    0.288852 0.420914 0.481568 0.030734
H111  H     H_    0.712079 0.101721 0.030663 -0.201449
H112  H     H_    0.788853 0.920914 0.481572 0.030722
H113  H     H_    0.142894 0.157452 0.490660 0.210901
H114  H     H_    0.264926 0.164125 0.376759 0.092480
H115  H     H_    0.235882 0.246923 0.357097 0.159342
H116  H     H_    0.191030 0.180328 0.260455 0.113461
H117  H     H_    0.157817 0.824480 0.923495 0.213652
H118  H     H_    0.763091 0.364834 0.881167 0.098725
H119  H     H_    0.133946 0.926557 0.039236 0.120153
H120  H     H_    0.150010 0.892785 0.235048 0.139934
H121  H     H_    0.078172 0.867398 0.114619 0.114876
H122  H     H_    0.642888 0.657416 0.490733 0.210900
H123  H     H_    0.764903 0.664074 0.376760 0.092462
H124  H     H_    0.735880 0.746880 0.357103 0.159266
H125  H     H_    0.691004 0.680295 0.260484 0.113468
H126  H     H_    0.657776 0.324495 0.923543 0.213665
H127  H     H_    0.633898 0.426561 0.039318 0.120163
H128  H     H_    0.649983 0.392784 0.235116 0.139906
N1    N     N_2   0.184698 0.184863 0.510219 -0.458122
N2    N     N_2   0.166966 0.828778 0.044869 -0.459589
N3    N     N_2   0.684687 0.684839 0.510251 -0.458073
N4    N     N_2   0.666930 0.328788 0.044916 -0.459600
N5    N     N_2   0.833909 0.829330 0.261335 -0.421106
N6    N     N_2   0.814712 0.185691 0.798803 -0.457707
N7    N     N_2   0.333914 0.329335 0.261331 -0.421113
N8    N     N_2   0.314715 0.685690 0.798799 -0.457706
O1    O     O_2   0.130070 0.404060 0.104920 -0.410064
O2    O     O_3   0.958109 0.794616 0.511669 -0.616571
O3    O     O_3   0.458521 0.708168 0.006708 -0.545475
O4    O     O_3   0.458106 0.294615 0.511688 -0.616561
O5    O     O_3   0.924190 0.533610 0.949240 -0.488714
O6    O     O_3   0.924190 0.466390 0.449240 -0.480442
O7    O     O_3   0.424190 0.033610 0.949240 -0.488684
O8    O     O_3   0.424190 0.966390 0.449240 -0.480586
O9    O     O_3   0.075780 0.466370 0.861070 -0.464690
O10   O     O_3   0.075780 0.533630 0.361070 -0.472944
O11   O     O_3   0.575780 0.966370 0.861070 -0.464690
O12   O     O_2   0.130070 0.595940 0.604920 -0.431797
O13   O     O_3   0.575780 0.033630 0.361070 -0.472945
O14   O     O_3   0.022320 0.344950 0.359800 -0.481934
O15   O     O_3   0.022320 0.655050 0.859800 -0.434217
O16   O     O_3   0.522320 0.844950 0.359800 -0.481921
O17   O     O_3   0.522320 0.155050 0.859800 -0.434202
O18   O     O_2   0.120961 0.289597 0.226059 -0.385544
O19   O     O_2   0.121199 0.716093 0.749875 -0.455707
O20   O     O_2   0.620964 0.789594 0.226064 -0.385552
O21   O     O_2   0.621200 0.216092 0.749890 -0.455697
O22   O     O_3   0.208919 0.469648 0.965865 -0.692165
O23   O     O_2   0.630070 0.904060 0.104920 -0.410069
O24   O     O_3   0.200506 0.520742 0.479370 -0.668147
O25   O     O_3   0.708920 0.969647 0.965865 -0.692165
O26   O     O_3   0.700506 0.020742 0.479372 -0.668144
O27   O     O_3   0.039543 0.208511 0.351600 -0.583824
O28   O     O_3   0.030316 0.793469 0.843822 -0.611718
O29   O     O_3   0.539542 0.708509 0.351594 -0.583801
O30   O     O_3   0.530314 0.293467 0.843822 -0.611752
O31   O     O_2   0.869860 0.403670 0.205810 -0.464834
O32   O     O_2   0.869860 0.596330 0.705810 -0.467106
O33   O     O_2   0.369860 0.903670 0.205810 -0.464762
O34   O     O_2   0.630070 0.095940 0.604920 -0.431796
O35   O     O_2   0.369860 0.096330 0.705810 -0.467224
O36   O     O_3   0.977590 0.344880 0.951200 -0.438504
O37   O     O_3   0.977590 0.655120 0.451200 -0.486908
O38   O     O_3   0.477590 0.844880 0.951200 -0.438495
O39   O     O_3   0.477590 0.155120 0.451200 -0.486922
O40   O     O_2   0.873618 0.297025 0.065925 -0.493860
O41   O     O_2   0.871535 0.704462 0.548264 -0.482714
O42   O     O_2   0.373616 0.797029 0.065913 -0.493848
O43   O     O_2   0.371533 0.204458 0.548255 -0.482731
O44   O     O_2   0.127149 0.587445 0.913705 -0.558429
O45   O     O_3   0.798783 0.480239 0.337398 -0.645985
O46   O     O_2   0.214671 0.378841 0.359015 -0.609267
O47   O     O_2   0.627146 0.087443 0.913704 -0.558427
O48   O     O_2   0.714671 0.878840 0.359024 -0.609249
O49   O     O_2   0.076540 0.247261 0.933691 -0.558850
O50   O     O_2   0.122718 0.805900 0.487182 -0.644959
O51   O     O_2   0.576541 0.747258 0.933701 -0.558848
O52   O     O_2   0.622714 0.305908 0.487222 -0.644984
O53   O     O_2   0.043957 0.064451 0.190824 -0.597021
O54   O     O_2   0.028235 0.949714 0.723754 -0.610318
O55   O     O_2   0.543956 0.564454 0.190862 -0.597067
O56   O     O_3   0.794347 0.524035 0.848849 -0.656969
O57   O     O_2   0.528246 0.449747 0.723752 -0.610353
O58   O     O_2   0.912876 0.072201 0.069890 -0.610879
O59   O     O_2   0.921092 0.943372 0.513642 -0.608678
O60   O     O_2   0.412859 0.572235 0.069918 -0.610888
O61   O     O_2   0.421085 0.443377 0.513665 -0.608700
O62   O     O_3   0.298753 0.980201 0.337381 -0.646007
O63   O     O_3   0.294334 0.024046 0.848870 -0.656930
O64   O     O_3   0.958521 0.208166 0.006691 -0.545509
P1    P     P_3+3 0.136530 0.426510 0.931350 1.011686
P2    P     P_3+3 0.923621 0.721028 0.428702 0.916392
P3    P     P_3+3 0.420945 0.781467 0.935183 1.000959
P4    P     P_3+3 0.423621 0.221028 0.428702 0.916348
P5    P     P_3+3 0.074345 0.721695 0.886890 0.989829
P6    P     P_3+3 0.080568 0.283706 0.375071 1.062209
P7    P     P_3+3 0.574343 0.221694 0.886898 0.989833
P8    P     P_3+3 0.580568 0.783703 0.375071 1.062235
P9    P     P_3+3 0.136530 0.573490 0.431350 0.970978
P10   P     P_3+3 0.636530 0.926510 0.931350 1.011680
P11   P     P_3+3 0.636530 0.073490 0.431350 0.970980
P12   P     P_3+3 0.863410 0.426100 0.379280 0.957310
P13   P     P_3+3 0.863410 0.573900 0.879280 0.956199
P14   P     P_3+3 0.363410 0.926100 0.379280 0.957224
P15   P     P_3+3 0.363410 0.073900 0.879280 0.956195
P16   P     P_3+3 0.920944 0.281467 0.935184 1.000926

loop_
_geom_bond_atom_site_label_1
_geom_bond_atom_site_label_2
_ccdc_geom_bond_type
C108  N3    S    
C12   C71   S    
C111  N6    S    
C107  H121  S    
C25   H92   S    
C26   N4    S    
Ba2   O37   S    
C56   H99   S    
C52   H81   S    
C85   H39   S    
C11   C74   S    
C78   H108  S    
C50   C59   A    
C78   C83   S    
C103  H110  S    
C66   H87   S    
C16   H33   S    
C106  H114  S    
C76   H105  S    
Ba2   O12   S    
C109  H127  S    
Ba1   P1    S    
H122  N3    S    
C83   H37   S    
O8    P14   S    
C77   C82   S    
C19   P5    S    
Ba4   O8    S    
C25   H61   S    
C46   P15   S    
C49   H78   S    
C67   H88   S    
O29   P8    S    
O6    P12   S    
C90   H49   S    
C37   C45   A    
C10   H28   S    
C20   P8    S    
C55   O3    S    
C9    O54   D    
H12   N7    S    
C36   H93   S    
C24   N3    S    
C83   H107  S    
C87   O26   S    
C81   H35   S    
C82   H36   S    
C4    C53   S    
C1    H91   S    
C5    H22   S    
C94   H41   S    
C96   H59   S    
C38   C68   A    
C107  H120  S    
O18   P6    D    
C93   H56   S    
H17   N8    S    
O45   P12   S    
C11   O57   D    
C64   N7    S    
C24   C29   A    
O56   P13   S    
C1    H60   S    
O24   P9    S    
C7    C56   S    
O26   P11   S    
C2    C69   A    
C91   P11   S    
Ba1   O6    S    
O17   P7    S    
Ba4   P15   S    
Ba3   O16   S    
C80   P10   S    
O13   P11   S    
C103  O46   D    
C58   C102  A    
C15   H32   S    
O25   P10   S    
O5    P13   S    
Ba4   O39   S    
C98   H83   S    
C90   H54   S    
C95   H58   S    
C107  N2    S    
Ba3   O7    S    
C92   H46   S    
C54   O2    S    
C93   H1    S    
C32   C69   A    
C112  H14   S    
C8    C71   S    
C37   C41   A    
C53   O64   S    
O1    P1    D    
C39   C43   A    
Ba1   O36   S    
O31   P12   D    
C69   P9    S    
C53   H95   S    
C79   H74   S    
C10   O55   D    
C47   H94   S    
C101  O44   D    
C83   H24   S    
O34   P11   D    
C54   C72   S    
C77   H106  S    
C56   C74   S    
C86   O25   S    
O30   P7    S    
C60   C64   A    
O27   P6    S    
C28   C70   A    
C39   C48   A    
C56   O4    S    
C43   C65   A    
C87   H42   S    
H8    N6    S    
O40   P16   D    
C49   C57   A    
C44   P13   S    
C78   H103  S    
O37   P2    S    
C108  H124  S    
C21   P7    S    
C34   C91   A    
C9    C72   S    
O39   P4    S    
O20   P8    D    
C101  H109  S    
C37   C67   A    
C79   H34   S    
H113  N1    S    
C51   H80   S    
C87   C92   S    
C43   C98   A    
C40   C99   A    
C44   C49   A    
C42   C97   A    
Ba4   O35   S    
C25   H66   S    
C26   C30   A    
C14   H31   S    
C76   H101  S    
Ba1   O31   S    
C94   H57   S    
Ba2   O32   S    
C17   C91   A    
C110  N5    S    
H126  N4    S    
C84   H38   S    
C63   N6    S    
C42   C64   A    
C41   C100  A    
C112  H16   S    
C7    H25   S    
C90   H45   S    
C76   O45   S    
C38   C46   A    
C110  H7    S    
C88   H47   S    
C75   H100  S    
C1    C93   S    
C58   P1    S    
C86   H40   S    
Ba3   Ba4   S    
O63   P15   S    
C106  N1    S    
C104  O47   D    
Ba4   O17   S    
Ba3   P14   S    
C17   C21   A    
C4    O49   D    
C18   P6    S    
C20   C24   A    
C45   P12   S    
O22   P1    S    
Ba3   O23   S    
C35   C40   A    
C112  N7    S    
C13   C80   A    
C53   C71   S    
C93   O27   S    
C86   C104  S    
C3    H20   S    
C94   O28   S    
C84   C101  S    
C7    O52   D    
O38   P3    S    
C99   H84   S    
C85   C89   S    
C106  H115  S    
Ba1   O10   S    
C61   P3    S    
Ba2   O5    S    
O23   P10   D    
Ba3   O38   S    
C17   H77   S    
O15   P5    S    
O10   P9    S    
O16   P8    S    
C89   H53   S    
O12   P9    D    
C111  H10   S    
C25   C94   S    
C60   P4    S    
C82   H96   S    
C47   C96   S    
C5    C54   S    
C38   C42   A    
C10   C73   S    
O2    P2    S    
C75   O56   S    
C109  H3    S    
C110  H5    S    
Ba1   O14   S    
C92   H55   S    
C41   C63   A    
C107  H119  S    
C81   H85   S    
C36   C95   S    
O32   P13   D    
C1    H65   S    
C105  H112  S    
Ba1   O1    S    
C86   C90   S    
Ba1   O5    S    
C13   H76   S    
C12   O58   D    
O21   P7    D    
H4    N5    S    
C3    H18   S    
C47   H68   S    
C6    O51   D    
C33   C99   A    
O33   P14   D    
C16   O61   D    
O64   P16   S    
C29   C33   A    
C4    H21   S    
C15   O60   D    
C89   H44   S    
C76   C81   S    
C52   C61   A    
C105  O48   D    
C109  H128  S    
C85   C103  S    
C8    O53   D    
O9    P1    S    
O28   P5    S    
C108  H125  S    
Ba4   O7    S    
C48   P14   S    
C27   C31   A    
C59   P16   S    
C28   C32   A    
C95   H52   S    
C21   C26   A    
Ba3   O33   S    
C14   C72   S    
C50   H79   S    
C23   C28   A    
C31   C97   A    
O36   P16   S    
C68   H89   S    
C104  H111  S    
Ba2   P9    S    
C6    C55   S    
C75   C79   S    
C88   H51   S    
C87   C105  S    
C75   H104  S    
C61   C65   A    
Ba2   O15   S    
C8    H26   S    
C9    H27   S    
C81   H2    S    
Ba4   O34   S    
Ba1   P12   S    
C54   H97   S    
C5    O50   D    
Ba3   P10   S    
C18   C22   A    
C45   C50   A    
C35   C44   A    
Ba3   O13   S    
C40   C62   A    
C55   C73   S    
O11   P10   S    
O41   P2    D    
C55   H98   S    
O43   P4    D    
Ba2   P13   S    
C14   O59   D    
C88   H43   S    
C32   C98   A    
H117  N2    S    
Ba2   O9    S    
C2    C19   A    
Ba3   O8    S    
O19   P5    D    
C111  H11   S    
C12   H30   S    
Ba1   Ba2   S    
C15   C73   S    
C84   O22   S    
C34   C100  A    
C65   N8    S    
C57   C62   A    
C77   O63   S    
C84   C88   S    
C85   O24   S    
C33   C80   A    
C19   C23   A    
O7    P15   S    
C22   N1    S    
C39   C70   A    
C62   N5    S    
C22   C27   A    
C71   H69   S    
O14   P6    S    
C57   P2    S    
C59   C63   A    
C13   C20   A    
C23   N2    S    
C11   H29   S    
C97   H82   S    
C89   H48   S    
C18   C102  A    
Ba4   P11   S    
C100  H86   S    
C2    H75   S    
C3    H19   S    
O35   P15   D    
C79   H118  S    
C108  H123  S    
C51   C60   A    
C106  H116  S    
C36   H62   S    
C29   C66   A    
C27   C68   A    
Ba2   O6    S    
C73   H71   S    
C92   H50   S    
C74   H72   S    
C47   H64   S    
C95   O29   S    
C72   H70   S    
O62   P14   S    
O42   P3    D    
C70   H90   S    
C30   C34   A    
C82   H13   S    
C109  N4    S    
C46   C51   A    
C111  H9    S    
C16   C74   S    
C3    N8    S    
C36   H67   S    
C112  H15   S    
C78   O62   S    
Ba4   O11   S    
C77   H102  S    
C35   C66   A    
C31   C58   A    
C110  H6    S    
C6    H23   S    
C96   O30   S    
C102  H73   S    
C96   H63   S    
C30   C67   A    
O3    P3    S    
C48   C52   A    
O4    P4    S    
