data_mof_unit_40548.cif
_audit_creation_date              2012-12-10T18:04:44-0500
_audit_creation_method            fapswitch 2.2
_symmetry_space_group_name_H-M    P1
_symmetry_Int_Tables_number       1
_space_group_crystal_system       triclinic
_cell_length_a                    19.515457
_cell_length_b                    17.558879
_cell_length_c                    12.60599
_cell_angle_alpha                 90.156296
_cell_angle_beta                  99.093663
_cell_angle_gamma                 89.954446
_cell_volume                      4265.3798337

loop_
_atom_site_label
_atom_site_type_symbol
_atom_type_description
_atom_site_fract_x
_atom_site_fract_y
_atom_site_fract_z
_atom_type_partial_charge
C1    C     C_R   0.408397 0.099683 0.441910 0.852478
C2    C     C_R   0.689337 0.684950 0.576525 0.149726
C3    C     C_R   0.282761 0.711367 0.648538 0.148105
C4    C     C_R   0.189336 0.184950 0.576525 0.149726
C5    C     C_R   0.350478 0.741242 0.672462 0.159781
C6    C     C_R   0.217974 0.111707 0.569496 0.169722
C7    C     C_R   0.850478 0.241242 0.672462 0.159781
C8    C     C_R   0.717974 0.611707 0.569496 0.169722
C9    C     C_R   0.378881 0.777794 0.591372 -0.206179
C10   C     C_R   0.271492 0.101883 0.509069 -0.216480
C11   C     C_R   0.878880 0.277794 0.591372 -0.206179
C12   C     C_R   0.411880 0.896330 0.444240 0.837894
C13   C     C_R   0.771492 0.601883 0.509069 -0.216480
C14   C     C_R   0.679030 0.187997 0.519245 -0.241219
C15   C     C_R   0.684520 0.818059 0.524936 -0.233545
C16   C     C_R   0.179030 0.687997 0.519245 -0.241219
C17   C     C_R   0.184520 0.318059 0.524936 -0.233545
C18   C     C_R   0.684257 0.145176 0.701933 -0.212413
C19   C     C_R   0.608833 0.771506 0.644120 -0.208141
C20   C     C_R   0.184257 0.645176 0.701933 -0.212413
C21   C     C_R   0.108833 0.271506 0.644120 -0.208141
C22   C     C_R   0.363707 0.834363 0.410309 -0.094278
C23   C     C_R   0.908397 0.599683 0.441910 0.852478
C24   C     C_R   0.355946 0.156717 0.404902 -0.099142
C25   C     C_R   0.863707 0.334363 0.410309 -0.094278
C26   C     C_R   0.855946 0.656717 0.404902 -0.099142
C27   C     C_R   0.643103 0.000612 0.133164 -0.312893
C28   C     C_R   0.143103 0.500612 0.133164 -0.312893
C29   C     C_R   0.378688 0.997829 0.762065 0.042245
C30   C     C_R   0.878688 0.497829 0.762065 0.042245
C31   C     C_R   0.352770 0.996085 0.858193 -0.246922
C32   C     C_R   0.852770 0.496085 0.858193 -0.246922
C33   C     C_R   0.589044 0.897499 0.556199 0.847320
C34   C     C_R   0.911880 0.396330 0.444240 0.837894
C35   C     C_R   0.590903 0.100525 0.557629 0.860899
C36   C     C_R   0.089044 0.397499 0.556199 0.847320
C37   C     C_R   0.090903 0.600525 0.557629 0.860899
C38   C     C_R   0.398838 0.996668 0.954250 -0.198930
C39   C     C_R   0.898838 0.496667 0.954250 -0.198930
C40   C     C_R   0.471359 0.998672 0.953886 0.017343
C41   C     C_R   0.971359 0.498672 0.953886 0.017343
C42   C     C_R   0.494914 0.999793 0.853730 0.232882
C43   C     C_R   0.994914 0.499793 0.853730 0.232882
C44   C     C_R   0.521208 0.999274 0.048173 -0.012138
C45   C     C_R   0.746952 0.214444 0.540977 0.031827
C46   C     C_R   0.021208 0.499274 0.048173 -0.012138
C47   C     C_R   0.593250 0.000092 0.040611 0.199063
C48   C     C_R   0.093250 0.500092 0.040611 0.199063
C49   C     C_R   0.614776 0.000388 0.940854 -0.295221
C50   C     C_R   0.114776 0.500388 0.940854 -0.295221
C51   C     C_R   0.566067 0.000239 0.848660 -0.215729
C52   C     C_R   0.066067 0.500239 0.848660 -0.215729
C53   C     C_R   0.502621 0.999359 0.150562 -0.053793
C54   C     C_R   0.002621 0.499359 0.150562 -0.053793
C55   C     C_R   0.621135 0.000521 0.232115 0.008392
C56   C     C_R   0.710930 0.745345 0.514155 0.036025
C57   C     C_R   0.121135 0.500521 0.232115 0.008392
C58   C     C_R   0.749872 0.177531 0.728616 -0.194385
C59   C     C_R   0.638880 0.699608 0.642848 -0.190229
C60   C     C_R   0.249872 0.677531 0.728616 -0.194385
C61   C     C_R   0.138880 0.199608 0.642848 -0.190229
C62   C     C_R   0.649869 0.148869 0.596065 -0.047422
C63   C     C_R   0.630731 0.829955 0.582375 -0.044603
C64   C     C_R   0.149869 0.648869 0.596065 -0.047422
C65   C     C_R   0.130731 0.329955 0.582375 -0.044603
C66   C     C_R   0.333902 0.828971 0.301713 -0.187175
C67   C     C_R   0.246952 0.714444 0.540977 0.031827
C68   C     C_R   0.370223 0.211220 0.330193 -0.188502
C69   C     C_R   0.833902 0.328971 0.301713 -0.187175
C70   C     C_R   0.870223 0.711220 0.330193 -0.188502
C71   C     C_R   0.279185 0.779344 0.270343 -0.151111
C72   C     C_R   0.327461 0.274197 0.308445 -0.149905
C73   C     C_R   0.779185 0.279344 0.270343 -0.151111
C74   C     C_R   0.827461 0.774197 0.308445 -0.149905
C75   C     C_R   0.250616 0.739238 0.347651 -0.177719
C76   C     C_R   0.273419 0.285934 0.366460 -0.172145
C77   C     C_R   0.750616 0.239238 0.347651 -0.177719
C78   C     C_R   0.210930 0.245344 0.514155 0.036025
C79   C     C_R   0.773420 0.785934 0.366460 -0.172145
C80   C     C_R   0.278803 0.745938 0.458213 0.080607
C81   C     C_R   0.259482 0.232278 0.444347 0.085406
C82   C     C_R   0.778803 0.245938 0.458213 0.080607
C83   C     C_R   0.759482 0.732278 0.444347 0.085406
C84   C     C_R   0.341106 0.786106 0.486969 0.032943
C85   C     C_R   0.295818 0.163009 0.452955 0.039575
C86   C     C_R   0.841106 0.286106 0.486969 0.032943
C87   C     C_R   0.795818 0.663009 0.452955 0.039575
C88   C     C_3   0.392616 0.736786 0.783531 -0.929134
C89   C     C_R   0.782761 0.211367 0.648538 0.148105
C90   C     C_3   0.193211 0.043908 0.626296 -0.953098
C91   C     C_3   0.892616 0.236786 0.783531 -0.929134
C92   C     C_3   0.693211 0.543908 0.626296 -0.953098
H1    H     H_    0.661967 0.114660 0.762708 0.152603
H2    H     H_    0.949743 0.499181 0.164999 0.124152
H3    H     H_    0.343576 0.996850 0.686790 0.143873
H4    H     H_    0.843576 0.496850 0.686790 0.143873
H5    H     H_    0.376090 0.995042 0.026675 0.135407
H6    H     H_    0.876090 0.495042 0.026675 0.135407
H7    H     H_    0.297358 0.994058 0.858364 0.149801
H8    H     H_    0.797358 0.494058 0.858364 0.149801
H9    H     H_    0.585585 0.000289 0.774337 0.212851
H10   H     H_    0.085585 0.500289 0.774337 0.212851
H11   H     H_    0.775219 0.173364 0.811136 0.150551
H12   H     H_    0.566346 0.780264 0.688702 0.150920
H13   H     H_    0.620490 0.655454 0.690976 0.154468
H14   H     H_    0.275219 0.673364 0.811136 0.150551
H15   H     H_    0.120490 0.155454 0.690976 0.154468
H16   H     H_    0.647863 0.195255 0.441243 0.149110
H17   H     H_    0.703242 0.866693 0.485817 0.139665
H18   H     H_    0.147863 0.695256 0.441243 0.149110
H19   H     H_    0.203242 0.366693 0.485817 0.139665
H20   H     H_    0.351718 0.864488 0.241423 0.151308
H21   H     H_    0.415539 0.206253 0.290864 0.156589
H22   H     H_    0.851718 0.364488 0.241423 0.151308
H23   H     H_    0.161967 0.614660 0.762708 0.152603
H24   H     H_    0.915539 0.706253 0.290864 0.156589
H25   H     H_    0.707732 0.202043 0.318499 0.131527
H26   H     H_    0.742295 0.836272 0.346751 0.129531
H27   H     H_    0.207732 0.702043 0.318499 0.131527
H28   H     H_    0.242295 0.336272 0.346751 0.129531
H29   H     H_    0.256939 0.774290 0.186327 0.140887
H30   H     H_    0.337934 0.315703 0.249707 0.140806
H31   H     H_    0.756939 0.274290 0.186327 0.140887
H32   H     H_    0.837934 0.815703 0.249707 0.140806
H33   H     H_    0.431454 0.798995 0.610161 0.170224
H34   H     H_    0.066346 0.280264 0.688702 0.150920
H35   H     H_    0.293229 0.045492 0.504080 0.159568
H36   H     H_    0.931454 0.298995 0.610161 0.170224
H37   H     H_    0.793229 0.545492 0.504080 0.159568
H38   H     H_    0.658584 0.000924 0.305225 0.131523
H39   H     H_    0.158584 0.500924 0.305225 0.131523
H40   H     H_    0.365465 0.767726 0.841661 0.244979
H41   H     H_    0.400051 0.676301 0.808157 0.239201
H42   H     H_    0.444769 0.762880 0.786908 0.241962
H43   H     H_    0.219824 0.990529 0.608489 0.241183
H44   H     H_    0.203445 0.053300 0.714488 0.236878
H45   H     H_    0.669466 0.000869 0.933970 0.152346
H46   H     H_    0.136718 0.035548 0.599660 0.249412
H47   H     H_    0.944769 0.262880 0.786908 0.241962
H48   H     H_    0.865465 0.267726 0.841661 0.244979
H49   H     H_    0.900051 0.176302 0.808157 0.239201
H50   H     H_    0.719824 0.490529 0.608489 0.241183
H51   H     H_    0.703445 0.553300 0.714488 0.236878
H52   H     H_    0.636718 0.535548 0.599660 0.249412
H53   H     H_    0.169465 0.500869 0.933970 0.152346
H54   H     H_    0.698147 0.001139 0.128945 0.141856
H55   H     H_    0.198147 0.501139 0.128945 0.141856
H56   H     H_    0.449743 0.999181 0.164999 0.124152
N1    N     N_R   0.552340 1.000000 0.237260 -0.101733
N2    N     N_R   0.052340 0.500000 0.237260 -0.101733
N3    N     N_R   0.448170 1.000000 0.762060 -0.133444
N4    N     N_R   0.948170 0.500000 0.762060 -0.133444
O1    O     O_R   0.448200 0.076800 0.373930 -0.615594
O2    O     O_R   0.585240 0.076800 0.457600 -0.615757
O3    O     O_R   0.085240 0.423200 0.457600 -0.607130
O4    O     O_R   0.085240 0.576800 0.457600 -0.615757
O5    O     O_R   0.551780 0.923190 0.626070 -0.642171
O6    O     O_R   0.551780 0.076810 0.626070 -0.627208
O7    O     O_R   0.051780 0.423190 0.626070 -0.642171
O8    O     O_R   0.051780 0.576810 0.626070 -0.627208
O9    O     O_R   0.448200 0.923200 0.373930 -0.610107
O10   O     O_R   0.948200 0.576800 0.373930 -0.615594
O11   O     O_R   0.948200 0.423200 0.373930 -0.610106
O12   O     O_R   0.414750 0.076790 0.542400 -0.605147
O13   O     O_R   0.414750 0.923210 0.542400 -0.624810
O14   O     O_R   0.914750 0.576790 0.542400 -0.605147
O15   O     O_R   0.914750 0.423210 0.542400 -0.624810
O16   O     O_R   0.585240 0.923200 0.457600 -0.607130
Zn1   Zn    Zn3+2 0.522330 1.000000 0.387520 0.935610
Zn2   Zn    Zn3+2 0.022330 0.500000 0.387520 0.935610
Zn3   Zn    Zn3+2 0.477660 1.000000 0.612480 0.924521
Zn4   Zn    Zn3+2 0.977660 0.500000 0.612480 0.924521

loop_
_geom_bond_atom_site_label_1
_geom_bond_atom_site_label_2
_ccdc_geom_bond_type
O13   Zn3   S    
C83   C87   A    
C10   C85   A    
O14   Zn4   S    
C8    C13   A    
C49   H45   S    
C15   H17   S    
C74   H32   S    
C45   C82   A    
O3    Zn2   S    
C35   O2    A    
C80   C84   A    
C16   H18   S    
C54   N2    A    
C28   C57   A    
C7    C11   A    
C52   H10   S    
C76   H28   S    
N1    Zn1   S    
C37   O8    A    
C38   C40   A    
C88   H41   S    
C77   H25   S    
N4    Zn4   S    
C27   C55   A    
C43   C52   A    
C23   C26   S    
C11   C86   A    
C14   C62   A    
C79   H26   S    
C12   C22   S    
N3    Zn3   S    
C4    C78   A    
C32   C39   A    
O11   Zn2   S    
C92   H51   S    
C73   C77   A    
C22   C66   A    
C30   H4    S    
C36   O7    A    
C12   O9    A    
C5    C88   S    
C44   C53   A    
C18   C58   A    
C1    O12   A    
C19   C63   A    
C26   C87   A    
C49   C51   A    
C70   C74   A    
C50   C52   A    
C41   C46   A    
C69   C73   A    
C8    C92   S    
C31   H7    S    
C20   C60   A    
C45   C89   A    
C75   C80   A    
C21   C61   A    
C44   C47   A    
C68   C72   A    
C42   C51   A    
C23   O10   A    
O9    Zn1   S    
C3    C60   A    
C48   C50   A    
C53   N1    A    
C41   C43   A    
C37   O4    A    
C13   C87   A    
C38   H5    S    
C61   H15   S    
C14   H16   S    
C17   H19   S    
C90   H46   S    
C71   H29   S    
C55   N1    A    
C14   C45   A    
C46   C48   A    
C69   H22   S    
O7    Zn4   S    
C30   C32   A    
C75   H27   S    
C47   C49   A    
C34   O11   A    
C12   O13   A    
C29   H3    S    
C2    C59   A    
C18   C62   A    
C39   H6    S    
C19   C59   A    
C82   C86   A    
C4    C61   A    
C53   H56   S    
C9    H33   S    
C32   H8    S    
O2    Zn1   S    
C33   O5    A    
C22   C84   A    
C20   C64   A    
C5    C9    A    
C29   N3    A    
C23   O14   A    
C90   H44   S    
C19   H12   S    
C30   N4    A    
C66   C71   A    
O10   Zn2   S    
C33   C63   S    
C55   H38   S    
C7    C91   S    
C57   N2    A    
C46   C54   A    
O6    Zn3   S    
O8    Zn4   S    
C72   C76   A    
C16   C67   A    
C59   H13   S    
C1    O1    A    
C42   N3    A    
C91   H47   S    
C50   H53   S    
C4    C6    A    
O16   Zn1   S    
C74   C79   A    
C26   C70   A    
C25   C86   A    
C33   O16   A    
C25   C69   A    
C88   H40   S    
O1    Zn1   S    
C10   H35   S    
C37   C64   S    
C92   H50   S    
C56   C83   A    
C24   C85   A    
C27   C47   A    
C28   C48   A    
C28   H55   S    
C13   H37   S    
C21   C65   A    
C36   C65   S    
C57   H39   S    
C3    C67   A    
C67   C80   A    
C40   C42   A    
C3    C5    A    
C76   C81   A    
C6    C10   A    
C20   H23   S    
O15   Zn4   S    
C60   H14   S    
C51   H9    S    
C25   C34   S    
C17   C65   A    
C31   C38   A    
C72   H30   S    
C70   H24   S    
C15   C56   A    
C11   H36   S    
C35   O6    A    
C88   H42   S    
C73   H31   S    
C29   C31   A    
C68   H21   S    
C6    C90   S    
O5    Zn3   S    
C71   C75   A    
C90   H43   S    
C78   C81   A    
N2    Zn2   S    
C77   C82   A    
C27   H54   S    
O4    Zn2   S    
C17   C78   A    
C35   C62   S    
C92   H52   S    
C58   C89   A    
C54   H2    S    
C24   C68   A    
C9    C84   A    
C91   H48   S    
C79   C83   A    
C40   C44   A    
C39   C41   A    
C1    C24   S    
C2    C8    A    
C18   H1    S    
C15   C63   A    
O12   Zn3   S    
C2    C56   A    
C58   H11   S    
C16   C64   A    
C66   H20   S    
C21   H34   S    
C81   C85   A    
C43   N4    A    
C34   O15   A    
C36   O3    A    
C91   H49   S    
C7    C89   A    
