data_mof_unit_15316.cif
_audit_creation_date              2012-12-10T20:47:09-0500
_audit_creation_method            fapswitch 2.2
_symmetry_space_group_name_H-M    P1
_symmetry_Int_Tables_number       1
_space_group_crystal_system       triclinic
_cell_length_a                    10.751968
_cell_length_b                    8.913786
_cell_length_c                    8.259695
_cell_angle_alpha                 89.999583
_cell_angle_beta                  90.000949
_cell_angle_gamma                 89.98681
_cell_volume                      791.615274991

loop_
_atom_site_label
_atom_site_type_symbol
_atom_type_description
_atom_site_fract_x
_atom_site_fract_y
_atom_site_fract_z
_atom_type_partial_charge
C1    C     C_R   0.500007 0.218669 0.499969 0.929387
C2    C     C_R   0.060496 0.473353 0.646741 0.040404
C3    C     C_R   0.127188 0.483129 0.501929 -0.147080
C4    C     C_R   0.872812 0.516869 0.501934 -0.147088
C5    C     C_R   0.063818 0.506008 0.358304 -0.091957
C6    C     C_R   0.936180 0.494051 0.358299 -0.092055
C7    C     C_1   0.499996 0.065379 0.499954 -0.196625
C8    C     C_1   0.500003 0.934621 0.499953 -0.196621
C9    C     C_3   0.165747 0.265686 0.079256 -0.308823
C10   C     C_3   0.834373 0.734385 0.079233 -0.308959
C11   C     C_R   0.499993 0.781331 0.499969 0.929393
C12   C     C_R   0.260099 0.491715 0.500467 0.867851
C13   C     C_R   0.739901 0.508283 0.500468 0.867871
C14   C     C_R   0.106581 0.411441 0.789504 -0.321037
C15   C     C_R   0.893437 0.588515 0.789518 -0.321039
C16   C     C_R   0.045260 0.441903 0.936163 0.486743
C17   C     C_R   0.954795 0.558091 0.936163 0.486710
C18   C     C_R   0.939506 0.526602 0.646749 0.040416
H1    H     H_    0.113758 0.529498 0.248355 0.233363
H2    H     H_    0.826061 0.782102 0.202815 0.199435
H3    H     H_    0.886240 0.470611 0.248337 0.233313
H4    H     H_    0.183566 0.333777 0.782814 0.170491
H5    H     H_    0.816450 0.666178 0.782836 0.170503
H6    H     H_    0.248322 0.338797 0.059691 0.174475
H7    H     H_    0.164376 0.169787 0.993337 0.178661
H8    H     H_    0.174105 0.218020 0.202858 0.199423
H9    H     H_    0.751782 0.661282 0.059748 0.174466
H10   H     H_    0.835728 0.830248 0.993266 0.178692
N1    N     N_1   0.500000 0.500000 0.073640 -0.057954
N2    N     N_1   0.500000 0.500000 0.926360 -0.053935
O1    O     O_R   0.500000 0.285350 0.636850 -0.615686
O2    O     O_3   0.946661 0.652423 0.070187 -0.644178
O3    O     O_R   0.500000 0.714650 0.636850 -0.615681
O4    O     O_R   0.500000 0.285360 0.363100 -0.615400
O5    O     O_R   0.500000 0.714640 0.363100 -0.615390
O6    O     O_R   0.316770 0.500000 0.636900 -0.618003
O7    O     O_R   0.683230 0.500000 0.636900 -0.618006
O8    O     O_R   0.316780 0.500000 0.363150 -0.633025
O9    O     O_R   0.683220 0.500000 0.363150 -0.633028
O10   O     O_3   0.053447 0.347623 0.070225 -0.644184
Zn1   Zn    Zn3+2 0.500000 0.500000 0.682780 0.970527
Zn2   Zn    Zn3+2 0.500000 0.500000 0.317220 0.963628

loop_
_geom_bond_atom_site_label_1
_geom_bond_atom_site_label_2
_ccdc_geom_bond_type
C10   H9    S    
C1    O4    A    
C15   C18   A    
N2    Zn1   S    
N1    N2    T    
C5    H1    S    
N1    Zn2   S    
C12   O6    A    
C13   O7    A    
O4    Zn2   S    
C1    O1    A    
C4    C18   A    
C14   H4    S    
C11   O5    A    
C2    C3    A    
O3    Zn1   S    
C7    C8    T    
C9    H6    S    
O7    Zn1   S    
O6    Zn1   S    
C16   O10   S    
C8    C11   S    
C15   H5    S    
O5    Zn2   S    
C9    H8    S    
O8    Zn2   S    
O9    Zn2   S    
C12   O8    A    
C5    C6    A    
C2    C14   A    
C14   C16   A    
C13   O9    A    
C2    C18   A    
C9    H7    S    
C10   O2    S    
C11   O3    A    
C4    C6    A    
C10   H10   S    
C4    C13   S    
C15   C17   A    
C17   O2    S    
C3    C12   S    
O1    Zn1   S    
C1    C7    S    
C6    H3    S    
C9    O10   S    
C10   H2    S    
C16   C17   A    
C3    C5    A    
