data_mof_unit_9682.cif
_audit_creation_date              2013-03-05T16:17:52-0500
_audit_creation_method            fapswitch 2.2
_symmetry_space_group_name_H-M    P1
_symmetry_Int_Tables_number       1
_space_group_crystal_system       triclinic
_cell_length_a                    15.60475
_cell_length_b                    17.169143
_cell_length_c                    10.068402
_cell_angle_alpha                 90.862631
_cell_angle_beta                  87.752571
_cell_angle_gamma                 89.824101
_cell_volume                      2695.12959329

loop_
_atom_site_label
_atom_site_type_symbol
_atom_site_description
_atom_site_fract_x
_atom_site_fract_y
_atom_site_fract_z
_atom_type_partial_charge
O1    O     O_R   0.092530 0.407440 0.616040 -0.596091
O2    O     O_R   0.092530 0.407440 0.383960 -0.581654
O3    O     O_R   0.092530 0.592560 0.383960 -0.572721
O4    O     O_R   0.092530 0.592560 0.616040 -0.640392
O5    O     O_R   0.592530 0.907440 0.616040 -0.596170
O6    O     O_R   0.592530 0.907440 0.383960 -0.581751
O7    O     O_R   0.592530 0.092560 0.383960 -0.573010
O8    O     O_R   0.592530 0.092560 0.616040 -0.640096
C1    C     C_R   0.124797 0.382420 0.498895 0.961267
C2    C     C_R   0.118981 0.622843 0.498359 0.977474
C3    C     C_R   0.624779 0.882402 0.498895 0.961066
C4    C     C_R   0.618999 0.122828 0.498378 0.977561
O9    O     O_R   0.907330 0.407420 0.616040 -0.577055
O10   O     O_R   0.907330 0.407420 0.383960 -0.561096
O11   O     O_R   0.907330 0.592580 0.383960 -0.592203
O12   O     O_R   0.907330 0.592580 0.616040 -0.528817
O13   O     O_R   0.407330 0.907420 0.616040 -0.576865
O14   O     O_R   0.407330 0.907420 0.383960 -0.561219
O15   O     O_R   0.407330 0.092580 0.383960 -0.592218
O16   O     O_R   0.407330 0.092580 0.616040 -0.528778
C5    C     C_R   0.882459 0.375576 0.499212 0.996311
C6    C     C_R   0.880020 0.622950 0.502102 1.021715
C7    C     C_R   0.382434 0.875597 0.499216 0.996542
C8    C     C_R   0.380038 0.122966 0.502110 1.021601
Zn1   Zn    Zn3+2 0.999890 0.500000 0.654960 1.091677
Zn2   Zn    Zn3+2 0.999890 0.500000 0.345040 1.088902
Zn3   Zn    Zn3+2 0.499890 0.000000 0.654960 1.091758
Zn4   Zn    Zn3+2 0.499890 0.000000 0.345040 1.088790
C9    C     C_3   0.806669 0.258958 0.637265 0.307827
C10   C     C_3   0.837451 0.237313 0.372733 0.320400
C11   C     C_3   0.857819 0.773424 0.425192 0.338755
C12   C     C_3   0.785503 0.726321 0.657564 0.285455
C13   C     C_3   0.306592 0.759046 0.637252 0.307719
C14   C     C_3   0.337478 0.737320 0.372879 0.320419
C15   C     C_3   0.357903 0.273475 0.425365 0.338501
C16   C     C_3   0.285446 0.226300 0.657596 0.285438
C17   C     C_3   0.231583 0.693591 0.638833 -0.051702
C18   C     C_3   0.262953 0.670102 0.377269 -0.001348
C19   C     C_3   0.286959 0.344589 0.418965 -0.045469
C20   C     C_3   0.224772 0.302733 0.654319 -0.006598
C21   C     C_3   0.731822 0.193335 0.638827 -0.051498
C22   C     C_3   0.762896 0.170114 0.377162 -0.001951
C23   C     C_3   0.786876 0.844533 0.418813 -0.045595
C24   C     C_3   0.724826 0.802756 0.654287 -0.006793
H1    H     H_    0.709520 0.389428 0.515207 0.258752
H2    H     H_    0.733304 0.365680 0.361179 0.275668
H3    H     H_    0.753161 0.665761 0.320826 0.286998
H4    H     H_    0.712933 0.617931 0.449026 0.257980
H5    H     H_    0.209336 0.889330 0.515393 0.259011
H6    H     H_    0.233337 0.865833 0.361221 0.275676
H7    H     H_    0.253273 0.165857 0.320763 0.287027
H8    H     H_    0.212981 0.117987 0.448887 0.258018
H9    H     H_    0.112385 0.799590 0.532542 0.294660
H10   H     H_    0.123995 0.780439 0.371019 0.286035
H11   H     H_    0.137020 0.245978 0.346053 0.281950
H12   H     H_    0.116819 0.213744 0.503322 0.295413
H13   H     H_    0.612631 0.299629 0.533411 0.294751
H14   H     H_    0.623801 0.280517 0.371717 0.286094
H15   H     H_    0.636901 0.745883 0.346199 0.281968
H16   H     H_    0.616809 0.713695 0.503520 0.295440
C25   C     C_3   0.730027 0.336983 0.458042 -0.450854
C26   C     C_3   0.737969 0.676562 0.426341 -0.411940
C27   C     C_3   0.229973 0.837016 0.457991 -0.450575
C28   C     C_3   0.238032 0.176622 0.426272 -0.411787
C29   C     C_3   0.817842 0.302636 0.493351 -0.275931
C30   C     C_3   0.818017 0.698456 0.504866 -0.294923
C31   C     C_3   0.317799 0.802681 0.493371 -0.276062
C32   C     C_3   0.318046 0.198484 0.504908 -0.294952
C33   C     C_3   0.191300 0.688689 0.494124 -0.300381
C34   C     C_3   0.199971 0.319849 0.502614 -0.282805
C35   C     C_3   0.691352 0.188635 0.494225 -0.300086
C36   C     C_3   0.699942 0.819820 0.502599 -0.282842
C37   C     C_3   0.159285 0.774950 0.462279 -0.172116
C38   C     C_3   0.168009 0.239857 0.441812 -0.217849
C39   C     C_3   0.659309 0.274963 0.462759 -0.171731
C40   C     C_3   0.667952 0.739801 0.441914 -0.217607
C41   C     C_3   0.030291 0.425007 0.075312 -0.259658
C42   C     C_3   0.043109 0.430558 0.916091 -0.243159
C43   C     C_3   0.050952 0.563674 0.919912 -0.233839
C44   C     C_3   0.062030 0.555238 0.077323 -0.255843
C45   C     C_3   0.530258 0.924996 0.075310 -0.259702
C46   C     C_3   0.543078 0.930539 0.916082 -0.243233
C47   C     C_3   0.550988 0.063658 0.919897 -0.233700
C48   C     C_3   0.562072 0.055207 0.077307 -0.255789
H17   H     H_    0.991907 0.375197 0.108417 0.285290
H18   H     H_    0.028437 0.377357 0.859534 0.287191
H19   H     H_    0.027226 0.621480 0.892671 0.295750
H20   H     H_    0.059503 0.610151 0.131074 0.292661
H21   H     H_    0.491851 0.875207 0.108431 0.285311
H22   H     H_    0.528374 0.877340 0.859535 0.287198
H23   H     H_    0.527348 0.121497 0.892629 0.295649
H24   H     H_    0.559634 0.110120 0.131063 0.292628
H25   H     H_    0.093190 0.410469 0.115141 0.245957
H26   H     H_    0.112644 0.434078 0.897073 0.249464
H27   H     H_    0.115782 0.559874 0.871149 0.234346
H28   H     H_    0.129085 0.536320 0.094753 0.228670
H29   H     H_    0.593151 0.910435 0.115133 0.246014
H30   H     H_    0.612617 0.934033 0.897026 0.249477
H31   H     H_    0.615799 0.059797 0.871110 0.234280
H32   H     H_    0.629116 0.036241 0.094707 0.228620
C49   C     C_3   0.911406 0.522068 0.087088 0.375667
C50   C     C_3   0.908616 0.498754 0.929496 0.358284
C51   C     C_3   0.411420 0.022102 0.087114 0.375653
C52   C     C_3   0.408617 0.998770 0.929535 0.358275
N1    N     N_3   0.998760 0.500000 0.138610 -0.216223
N2    N     N_3   0.998760 0.500000 0.861390 -0.209187
N3    N     N_3   0.498760 1.000000 0.138610 -0.216239
N4    N     N_3   0.498760 0.000000 0.861390 -0.209166
N5    N     N_R   0.780885 0.314793 0.744661 0.268139
O17   O     O_R   0.773892 0.288991 0.865563 -0.114831
O18   O     O_R   0.743976 0.380675 0.721512 -0.291216
N6    N     N_R   0.838213 0.271085 0.237407 0.278412
O19   O     O_R   0.905218 0.260724 0.157551 -0.199212
O20   O     O_R   0.768009 0.293263 0.182298 -0.213346
N7    N     N_R   0.886510 0.755201 0.285662 0.258406
O21   O     O_R   0.963308 0.775661 0.243902 -0.199031
O22   O     O_R   0.831159 0.745445 0.194552 -0.217574
N8    N     N_R   0.734576 0.663014 0.724919 0.286407
O23   O     O_R   0.726026 0.662657 0.854101 -0.125230
O24   O     O_R   0.678786 0.621323 0.663631 -0.304384
N9    N     N_R   0.280974 0.814898 0.744661 0.268390
O25   O     O_R   0.273788 0.789026 0.865516 -0.114918
O26   O     O_R   0.244414 0.880941 0.721497 -0.291062
N10   N     N_R   0.338283 0.771089 0.237560 0.278342
O27   O     O_R   0.405322 0.760754 0.157768 -0.199515
O28   O     O_R   0.268080 0.793231 0.182411 -0.213571
N11   N     N_R   0.386664 0.255266 0.285854 0.258323
O29   O     O_R   0.463521 0.275623 0.244223 -0.199159
O30   O     O_R   0.331368 0.245565 0.194646 -0.217586
N12   N     N_R   0.234501 0.162965 0.724834 0.286361
O31   O     O_R   0.225945 0.162534 0.854014 -0.125307
O32   O     O_R   0.178702 0.121327 0.663465 -0.304354
N13   N     N_R   0.890749 0.224742 0.674185 0.228700
O33   O     O_R   0.923357 0.162721 0.616327 -0.329906
O34   O     O_R   0.923966 0.244402 0.785788 -0.157176
N14   N     N_R   0.924912 0.205541 0.384149 0.209126
O35   O     O_R   0.984143 0.253399 0.419953 -0.420534
O36   O     O_R   0.950281 0.145508 0.311920 -0.248104
N15   N     N_R   0.938052 0.790644 0.491912 0.208140
O37   O     O_R   0.951803 0.848103 0.573891 -0.332858
O38   O     O_R   0.994776 0.735613 0.482200 -0.432282
N16   N     N_R   0.857843 0.745799 0.745743 0.209008
O39   O     O_R   0.937158 0.727306 0.716954 -0.232016
O40   O     O_R   0.840997 0.770252 0.867516 -0.192400
N17   N     N_R   0.390620 0.724712 0.674150 0.228631
O41   O     O_R   0.423022 0.662519 0.616585 -0.330562
O42   O     O_R   0.424019 0.744556 0.785521 -0.157523
N18   N     N_R   0.424921 0.705545 0.384422 0.209136
O43   O     O_R   0.484129 0.753371 0.420413 -0.420737
O44   O     O_R   0.450317 0.645502 0.312242 -0.248109
N19   N     N_R   0.438102 0.290697 0.492214 0.208258
O45   O     O_R   0.451793 0.348143 0.574246 -0.332810
O46   O     O_R   0.494843 0.235678 0.482611 -0.431954
N20   N     N_R   0.357722 0.245766 0.745885 0.208922
O47   O     O_R   0.437049 0.227314 0.717155 -0.231476
O48   O     O_R   0.340813 0.270169 0.867671 -0.192482
C53   C     C_2   0.264636 0.613193 0.680202 0.500499
H33   H     H_    0.243796 0.561277 0.631041 0.028514
O49   O     O_2   0.304717 0.604743 0.781036 -0.359266
C54   C     C_2   0.297577 0.590242 0.397166 0.398468
H34   H     H_    0.349424 0.579635 0.462147 0.147815
O50   O     O_2   0.265518 0.535563 0.338369 -0.514745
C55   C     C_2   0.325312 0.419390 0.467946 0.514551
H35   H     H_    0.287358 0.458396 0.529253 0.012392
O51   O     O_2   0.394141 0.442985 0.421962 -0.400828
C56   C     C_2   0.267775 0.375305 0.715249 0.434222
H36   H     H_    0.336234 0.380913 0.720871 0.174966
O52   O     O_2   0.226697 0.432318 0.752749 -0.576633
C57   C     C_2   0.765022 0.112894 0.679637 0.499570
H37   H     H_    0.743829 0.061074 0.630602 0.028384
O53   O     O_2   0.805418 0.104272 0.780115 -0.358966
C58   C     C_2   0.797600 0.090239 0.396772 0.398686
H38   H     H_    0.849498 0.079621 0.461678 0.147598
O54   O     O_2   0.765612 0.035582 0.337822 -0.514196
C59   C     C_2   0.825244 0.919348 0.467659 0.514686
H39   H     H_    0.787284 0.958366 0.528901 0.011732
O55   O     O_2   0.894068 0.942921 0.421623 -0.400813
C60   C     C_2   0.767858 0.875344 0.715096 0.434529
H40   H     H_    0.836325 0.880970 0.720556 0.174910
O56   O     O_2   0.726777 0.932328 0.752740 -0.576250
N21   N     N_R   0.162453 0.711767 0.744551 0.263937
O57   O     O_R   0.168177 0.683311 0.863040 -0.281235
O58   O     O_R   0.109130 0.769489 0.737303 -0.226756
N22   N     N_R   0.224510 0.662300 0.243315 0.290146
O59   O     O_R   0.270626 0.633599 0.142974 -0.186544
O60   O     O_R   0.151437 0.693221 0.216506 -0.324493
N23   N     N_R   0.266244 0.365385 0.279578 0.282162
O61   O     O_R   0.322379 0.401556 0.203463 -0.160548
O62   O     O_R   0.199502 0.338284 0.221751 -0.338815
N24   N     N_R   0.148707 0.289665 0.744581 0.263990
O63   O     O_R   0.156102 0.295111 0.872978 -0.273063
O64   O     O_R   0.077079 0.263457 0.701333 -0.285706
N25   N     N_R   0.662867 0.211127 0.744975 0.263226
O65   O     O_R   0.669167 0.182835 0.863501 -0.280659
O66   O     O_R   0.608635 0.268149 0.737631 -0.227292
N26   N     N_R   0.724255 0.162427 0.243336 0.289975
O67   O     O_R   0.770206 0.133754 0.142792 -0.186687
O68   O     O_R   0.651193 0.193486 0.216820 -0.324172
N27   N     N_R   0.766074 0.865283 0.279440 0.282023
O69   O     O_R   0.822158 0.901448 0.203223 -0.160540
O70   O     O_R   0.699328 0.838118 0.221707 -0.338750
N28   N     N_R   0.648802 0.789723 0.744650 0.263975
O71   O     O_R   0.656251 0.795237 0.873030 -0.273003
O72   O     O_R   0.577179 0.763435 0.701523 -0.285572
N29   N     N_R   0.846567 0.480964 0.168190 0.242260
O73   O     O_R   0.792074 0.514937 0.251832 -0.341436
O74   O     O_R   0.850156 0.407267 0.169464 -0.307494
N30   N     N_R   0.861875 0.424267 0.920175 0.229758
O75   O     O_R   0.779542 0.427977 0.949894 -0.158130
O76   O     O_R   0.898282 0.357903 0.939033 -0.297950
N31   N     N_R   0.856936 0.552072 0.858708 0.235277
O77   O     O_R   0.881897 0.622620 0.854895 -0.293272
O78   O     O_R   0.802472 0.527294 0.772818 -0.253845
N32   N     N_R   0.887090 0.605241 0.103492 0.221092
O79   O     O_R   0.939617 0.661602 0.075626 -0.281301
O80   O     O_R   0.805848 0.620570 0.090151 -0.214607
N33   N     N_R   0.346560 0.981026 0.168243 0.242183
O81   O     O_R   0.350087 0.907322 0.169536 -0.307439
O82   O     O_R   0.292039 0.015034 0.251796 -0.341429
N34   N     N_R   0.361844 0.924291 0.920266 0.229836
O83   O     O_R   0.398220 0.857908 0.939105 -0.297859
O84   O     O_R   0.279515 0.928030 0.950025 -0.158031
N35   N     N_R   0.356945 0.052090 0.858767 0.235275
O85   O     O_R   0.302493 0.027327 0.772853 -0.253701
O86   O     O_R   0.381932 0.122624 0.854964 -0.293207
N36   N     N_R   0.387165 0.105294 0.103520 0.221204
O87   O     O_R   0.305937 0.120689 0.090194 -0.214638
O88   O     O_R   0.439741 0.161626 0.075697 -0.281183

loop_
_geom_bond_atom_site_label_1
_geom_bond_atom_site_label_2
_geom_bond_distance
_ccdc_geom_bond_type
C11   C30   1.637956 S    
C9    N13   1.498280 S    
C45   N3    1.500981 S    
Zn3   N4    2.077804 S    
C23   C36   1.629895 S    
H5    C27   1.101121 S    
C17   C33   1.610444 S    
N27   O70   1.297137 A    
C57   O53   1.223389 D    
C57   H37   1.070557 S    
N12   O32   1.297592 A    
C55   H35   1.066178 S    
C36   C40   1.585205 S    
O9    Zn1   2.192278 S    
H3    C26   1.092365 S    
N34   O84   1.308857 A    
C45   C46   1.612084 S    
C16   N20   1.498647 S    
C59   O55   1.225300 D    
N29   O73   1.303266 A    
C25   C39   1.535756 S    
C51   N36   1.481683 S    
C53   H33   1.070688 S    
C11   C23   1.649194 S    
C28   C32   1.548626 S    
O10   C5    1.334609 A    
C9    N5    1.477295 S    
C55   O51   1.225312 D    
N18   O44   1.303946 A    
O5    C3    1.328923 A    
N5    O18   1.296145 A    
N17   O41   1.298796 A    
N32   O80   1.306473 A    
C50   N31   1.434065 S    
C23   N27   1.500513 S    
Zn4   N3    2.079187 S    
C7    C31   1.611910 S    
N7    O21   1.305319 A    
C48   N3    1.493659 S    
C18   N22   1.501779 S    
C47   N4    1.493156 S    
C13   N17   1.498307 S    
C17   C53   1.541010 S    
N8    O23   1.302373 A    
C6    C30   1.614507 S    
C21   N25   1.513702 S    
O5    Zn3   2.166007 S    
H11   C38   1.101709 S    
C14   N18   1.477448 S    
O11   C6    1.344848 A    
C52   N34   1.477870 S    
O16   C8    1.350682 A    
N30   O75   1.308829 A    
N25   O66   1.296976 A    
C34   C38   1.585114 S    
N24   O64   1.294896 A    
N19   O45   1.300469 A    
C33   C37   1.602553 S    
C46   N4    1.499440 S    
C44   H28   1.115912 S    
C52   N35   1.433905 S    
C12   N16   1.498782 S    
C41   C42   1.612006 S    
C21   C35   1.610560 S    
C19   N23   1.500488 S    
C42   H18   1.098576 S    
N21   O58   1.296824 A    
C18   C33   1.618522 S    
C41   H17   1.094213 S    
N27   O69   1.305888 A    
C53   O49   1.223377 D    
C47   H31   1.108228 S    
C43   H19   1.100548 S    
C24   N28   1.486048 S    
H6    C27   1.098871 S    
C46   H30   1.096513 S    
C26   C40   1.539925 S    
C15   N19   1.472757 S    
C10   C22   1.640854 S    
C49   N29   1.464750 S    
Zn2   N1    2.079187 S    
C11   N7    1.486108 S    
N34   O83   1.291575 A    
N17   O42   1.296337 A    
C58   O54   1.221223 D    
H14   C39   1.094760 S    
C60   H40   1.076530 S    
N29   O74   1.266661 A    
C49   N1    1.526114 S    
O7    C4    1.337309 A    
C27   C31   1.546719 S    
H12   C38   1.092884 S    
N28   O71   1.304378 A    
C26   C30   1.548581 S    
H2    C25   1.098726 S    
O9    C5    1.360482 A    
O14   C7    1.334583 A    
C48   H32   1.115911 S    
C49   C50   1.632823 S    
C16   C20   1.617329 S    
C56   O52   1.215589 D    
O1    C1    1.328920 A    
C1    C34   1.590128 S    
N35   O85   1.303767 A    
N26   O68   1.296116 A    
H8    C28   1.104733 S    
C24   C60   1.547053 S    
O6    C3    1.355178 A    
N32   O79   1.296916 A    
C14   C18   1.640739 S    
O11   Zn2   2.165433 S    
C27   C37   1.535901 S    
N7    O22   1.293824 A    
N33   O81   1.266750 A    
N21   O57   1.302129 A    
C21   C57   1.540799 S    
C44   N1    1.493509 S    
H16   C40   1.092837 S    
C13   C17   1.624927 S    
O7    Zn4   2.192864 S    
C43   C44   1.609641 S    
C43   N2    1.493109 S    
C10   N6    1.488406 S    
O13   Zn3   2.192278 S    
N20   O48   1.306595 A    
C13   N9    1.476939 S    
C15   C19   1.649296 S    
N11   O30   1.293844 A    
N24   O63   1.304374 A    
C43   H27   1.108340 S    
C16   N12   1.502670 S    
H10   C37   1.094708 S    
C12   C30   1.662881 S    
H4    C26   1.104730 S    
C47   C48   1.609675 S    
C49   N32   1.481585 S    
O8    C4    1.351134 A    
C17   N21   1.513907 S    
N35   O86   1.274036 A    
C12   C24   1.617380 S    
O14   Zn4   2.180553 S    
O2    Zn2   2.194983 S    
O13   C7    1.360425 A    
O10   Zn2   2.180553 S    
C15   N11   1.486171 S    
O15   Zn4   2.165433 S    
N20   O47   1.297356 A    
N9    O25   1.302467 A    
N28   O72   1.294865 A    
C51   N33   1.464873 S    
C9    C29   1.645008 S    
N6    O20   1.305562 A    
C22   N26   1.501793 S    
N14   O36   1.303953 A    
N31   O78   1.303816 A    
C4    C35   1.599579 S    
N36   O87   1.306464 A    
N36   O88   1.296933 A    
C56   H36   1.076540 S    
C24   C36   1.621244 S    
N16   O40   1.306578 A    
C19   C55   1.503167 S    
C23   C59   1.503031 S    
O4    Zn1   2.181123 S    
C52   N4    1.541045 S    
N9    O26   1.296160 A    
C14   N10   1.488305 S    
C58   H38   1.077188 S    
C13   C31   1.644405 S    
N10   O28   1.305554 A    
O12   Zn1   2.194400 S    
O12   C6    1.350739 A    
Zn1   N2    2.077804 S    
C9    C21   1.625108 S    
C3    C36   1.590121 S    
C20   C56   1.547117 S    
O3    Zn2   2.192864 S    
H9    C37   1.078673 S    
H7    C28   1.092350 S    
C22   C58   1.491634 S    
O4    C2    1.351334 A    
C12   N8    1.502691 S    
N26   O67   1.306598 A    
C14   C31   1.659226 S    
C60   O56   1.215620 D    
N15   O37   1.300464 A    
C16   C32   1.662923 S    
O16   Zn3   2.194400 S    
N33   O82   1.303258 A    
C47   H23   1.100691 S    
C20   C34   1.621216 S    
C10   N14   1.477533 S    
C46   H22   1.098608 S    
C42   N2    1.499446 S    
C51   N3    1.525960 S    
C5    C29   1.612036 S    
C54   H34   1.077034 S    
H13   C39   1.079042 S    
C41   N1    1.500967 S    
O15   C8    1.344936 A    
C18   C54   1.491390 S    
N23   O61   1.305887 A    
C44   H20   1.079839 S    
C59   H39   1.065999 S    
N5    O17   1.302332 A    
C35   C39   1.602878 S    
N15   O38   1.292704 A    
N13   O33   1.298813 A    
C45   H29   1.104006 S    
C15   C32   1.637936 S    
C42   H26   1.096433 S    
H1    C25   1.101196 S    
O3    C2    1.337145 A    
C41   H25   1.104034 S    
C22   C35   1.618659 S    
C19   C34   1.630040 S    
N22   O60   1.296028 A    
N12   O31   1.302381 A    
N6    O19   1.303838 A    
N18   O43   1.296607 A    
N19   O46   1.292689 A    
C45   H21   1.094157 S    
N8    O24   1.297585 A    
N23   O62   1.297128 A    
C10   C29   1.659534 S    
C8    C32   1.614556 S    
N31   O77   1.274133 A    
C2    C33   1.599670 S    
C25   C29   1.546449 S    
O6    Zn4   2.194983 S    
C20   N24   1.486048 S    
N30   O76   1.291542 A    
N25   O65   1.302345 A    
C50   N2    1.540894 S    
C51   C52   1.632782 S    
N13   O34   1.296367 A    
O8    Zn3   2.181123 S    
C28   C38   1.539922 S    
N16   O39   1.297453 A    
N14   O35   1.296644 A    
N22   O59   1.306584 A    
C48   H24   1.079855 S    
O2    C1    1.355190 A    
C50   N30   1.477786 S    
H15   C40   1.101697 S    
O1    Zn1   2.166007 S    
N11   O29   1.305301 A    
C11   N15   1.472573 S    
C54   O50   1.221231 D    
N10   O27   1.303817 A    
