data_mof_unit_26982.cif
_audit_creation_date              2012-12-11T15:41:24-0500
_audit_creation_method            fapswitch 2.2
_symmetry_space_group_name_H-M    P1
_symmetry_Int_Tables_number       1
_space_group_crystal_system       triclinic
_cell_length_a                    15.005369
_cell_length_b                    15.189143
_cell_length_c                    14.927921
_cell_angle_alpha                 108.982351
_cell_angle_beta                  109.464017
_cell_angle_gamma                 110.57156
_cell_volume                      2599.02220957

loop_
_atom_site_label
_atom_site_type_symbol
_atom_type_description
_atom_site_fract_x
_atom_site_fract_y
_atom_site_fract_z
_atom_type_partial_charge
C1    C     C_R   0.230321 0.044224 0.956059 -0.124501
C2    C     C_R   0.531221 0.788558 0.365137 -0.100046
C3    C     C_R   0.492327 0.351302 0.766738 -0.152048
C4    C     C_R   0.496113 0.703022 0.264087 -0.138764
C5    C     C_R   0.421172 0.344621 0.809153 0.162225
C6    C     C_R   0.571496 0.676289 0.245656 0.151417
C7    C     C_R   0.306891 0.273756 0.737938 -0.165367
C8    C     C_R   0.682178 0.735865 0.330106 -0.155092
C9    C     C_R   0.264231 0.211472 0.625408 -0.129846
C10   C     C_R   0.716827 0.820982 0.431282 -0.121126
C11   C     C_R   0.335128 0.221391 0.583152 -0.081342
C12   C     C_R   0.805070 0.009184 0.099127 -0.118343
C13   C     C_R   0.641505 0.847516 0.448672 -0.086335
C14   C     C_R   0.462824 0.523339 0.937157 -0.011490
C15   C     C_R   0.539418 0.496619 0.120966 -0.015647
C16   C     C_R   0.804764 0.210368 0.300358 -0.140541
C17   C     C_R   0.251390 0.778080 0.685513 -0.126495
C18   C     C_R   0.497202 0.601235 0.042864 -0.023102
C19   C     C_R   0.502769 0.417522 0.014408 -0.024274
C20   C     C_R   0.535701 0.590121 0.135512 -0.062916
C21   C     C_R   0.462942 0.428995 0.922097 -0.067149
C22   C     C_R   0.035817 0.479237 0.377848 -0.163186
C23   C     C_R   0.868110 0.303768 0.302551 0.048019
C24   C     C_R   0.129491 0.475268 0.571079 -0.155530
C25   C     C_R   0.127439 0.572876 0.471283 -0.167249
C26   C     C_R   0.037708 0.381637 0.477746 -0.173234
C27   C     C_R   0.166465 0.573941 0.571207 0.142911
C28   C     C_R   0.983798 0.386431 0.384169 0.139258
C29   C     C_R   0.604098 0.149683 0.621910 -0.200146
C30   C     C_R   0.405110 0.049452 0.429099 -0.209376
C31   C     C_R   0.604703 0.148676 0.529369 -0.181798
C32   C     C_R   0.404052 0.046723 0.519813 -0.177752
C33   C     C_R   0.504759 0.087780 0.429838 0.152497
C34   C     C_R   0.225681 0.676292 0.674446 0.043238
C35   C     C_R   0.503600 0.089411 0.613957 0.159551
C36   C     C_R   0.096886 0.026734 0.134956 0.091430
C37   C     C_R   0.045853 0.165300 0.071611 0.078469
C38   C     C_R   0.028446 0.058053 0.160034 -0.239720
C39   C     C_R   0.119074 0.138997 0.050344 -0.242346
C40   C     C_R   0.410104 0.966350 0.224878 -0.130889
C41   C     C_R   0.593313 0.090104 0.790033 -0.132420
C42   C     C_R   0.987330 0.109706 0.110931 0.051200
C43   C     C_R   0.134576 0.059012 0.068997 0.054772
C44   C     C_R   0.594534 0.313266 0.036188 -0.132871
C45   C     C_R   0.503202 0.045015 0.326968 0.044504
C46   C     C_R   0.407911 0.700165 0.000905 -0.149738
C47   C     C_R   0.594293 0.063540 0.314935 -0.117561
C48   C     C_R   0.409520 0.000975 0.698739 -0.137213
C49   C     C_R   0.408682 0.220061 0.940013 -0.123501
C50   C     C_R   0.592182 0.790200 0.088271 -0.111995
C51   C     C_R   0.803365 0.301139 0.209538 -0.121154
C52   C     C_R   0.251388 0.686936 0.777297 -0.117275
C53   C     C_R   0.224037 0.945163 0.038596 -0.139762
C54   C     C_R   0.805124 0.098113 0.006453 -0.130558
C55   C     C_R   0.191577 0.015656 0.021386 0.071296
C56   C     C_R   0.502186 0.059213 0.696117 0.050406
C57   C     C_R   0.871130 0.075449 0.074183 0.068528
C58   C     C_1   0.431031 0.541685 0.844301 0.074404
C59   C     C_1   0.574995 0.479050 0.213429 0.067218
C60   C     C_1   0.114653 0.954087 0.171206 -0.028375
C61   C     C_1   0.034332 0.249485 0.053775 0.000063
C62   C     C_R   0.502233 0.320746 0.998824 0.091943
C63   C     C_R   0.499622 0.697861 0.055201 0.086361
C64   C     C_R   0.449145 0.290437 0.653825 -0.087902
H1    H     H_    0.211145 0.088735 0.917305 0.086544
H2    H     H_    0.802304 0.866959 0.495937 0.109088
H3    H     H_    0.159200 0.646077 0.466651 0.108875
H4    H     H_    0.003953 0.309430 0.483528 0.105514
H5    H     H_    0.683469 0.186121 0.534337 0.112470
H6    H     H_    0.324789 0.005059 0.512463 0.115585
H7    H     H_    0.833437 0.178657 0.351509 0.083147
H8    H     H_    0.240977 0.799741 0.622337 0.093378
H9    H     H_    0.996269 0.028521 0.205830 0.122804
H10   H     H_    0.159699 0.178221 0.014979 0.127517
H11   H     H_    0.326794 0.924372 0.207069 0.098945
H12   H     H_    0.830120 0.985043 0.159118 0.083585
H13   H     H_    0.678785 0.147416 0.822250 0.087605
H14   H     H_    0.680129 0.376554 0.078593 0.097571
H15   H     H_    0.323014 0.642158 0.970370 0.093890
H16   H     H_    0.680284 0.116613 0.377288 0.091688
H17   H     H_    0.325664 0.977753 0.647227 0.088834
H18   H     H_    0.829925 0.352707 0.176996 0.084060
H19   H     H_    0.240642 0.624409 0.798972 0.094107
H20   H     H_    0.194279 0.890852 0.066361 0.112771
H21   H     H_    0.829554 0.154148 0.978038 0.106475
H22   H     H_    0.301631 0.175584 0.495549 0.116325
H23   H     H_    0.503901 0.298140 0.620819 0.129335
H24   H     H_    0.668620 0.913898 0.526752 0.108829
H25   H     H_    0.000686 0.483987 0.304807 0.109583
H26   H     H_    0.162952 0.471458 0.645057 0.112541
H27   H     H_    0.682604 0.189103 0.695455 0.113763
H28   H     H_    0.327154 0.011142 0.355952 0.133439
H29   H     H_    0.324877 0.198699 0.891967 0.089808
H30   H     H_    0.677525 0.815464 0.137350 0.095389
H31   H     H_    0.473065 0.809473 0.378524 0.117680
H32   H     H_    0.580313 0.407898 0.820217 0.110254
H33   H     H_    0.410568 0.658392 0.199733 0.109413
H34   H     H_    0.250794 0.270431 0.769069 0.102570
H35   H     H_    0.741740 0.717419 0.316947 0.109585
H36   H     H_    0.176017 0.158116 0.570581 0.107395
N1    N     N_R   0.293810 0.002730 0.945950 -0.041133
N2    N     N_R   0.443210 0.997250 0.791090 -0.038785
N3    N     N_R   0.443180 0.152110 0.945950 -0.040690
N4    N     N_R   0.556820 0.847890 0.054050 -0.042696
N5    N     N_R   0.706170 0.208950 0.152090 -0.037825
N6    N     N_R   0.293830 0.791050 0.847910 -0.043083
N7    N     N_R   0.293800 0.945910 0.002760 -0.042505
N8    N     N_R   0.706200 0.054090 0.997240 -0.042431
N9    N     N_1   0.406000 0.556124 0.770583 -0.084069
N10   N     N_1   0.603328 0.464966 0.287037 -0.079850
N11   N     N_1   0.125851 0.894884 0.200452 -0.116921
N12   N     N_R   0.706190 0.997270 0.054050 -0.041397
N13   N     N_1   0.025951 0.317508 0.039864 -0.104514
N14   N     N_R   0.706160 0.152130 0.208910 -0.038047
N15   N     N_R   0.293840 0.847870 0.791090 -0.042441
N16   N     N_R   0.443140 0.945920 0.152090 -0.039953
N17   N     N_R   0.556860 0.054080 0.847910 -0.038650
N18   N     N_R   0.556830 0.208940 0.002760 -0.041721
N19   N     N_R   0.443170 0.791060 0.997240 -0.039745
N20   N     N_R   0.556790 0.002750 0.208910 -0.039795
Ni1   Ni    Ni4+2 0.369690 0.999990 0.869700 0.215169
Ni2   Ni    Ni4+2 0.630310 0.000010 0.130300 0.211772
Ni3   Ni    Ni4+2 0.369670 0.869670 0.000000 0.214018
Ni4   Ni    Ni4+2 0.630330 0.130330 0.000000 0.211192

loop_
_geom_bond_atom_site_label_1
_geom_bond_atom_site_label_2
_ccdc_geom_bond_type
N1    N7    A    
C50   N4    A    
N15   Ni1   S    
N16   Ni3   S    
C58   N9    T    
C33   C45   S    
C14   C18   A    
C53   C55   A    
C25   H3    S    
C24   C27   A    
N7    Ni3   S    
C9    H36   S    
C3    C64   A    
C15   C19   A    
C53   H20   S    
C14   C21   A    
C2    H31   S    
C7    H34   S    
C8    H35   S    
C24   C26   A    
C38   C42   A    
C41   H13   S    
C46   H15   S    
C38   H9    S    
C18   C63   S    
N4    Ni2   S    
C19   C62   S    
C59   N10   T    
C48   H17   S    
C48   C56   A    
C39   H10   S    
C37   C42   A    
C2    C13   A    
C34   C52   A    
C22   C25   A    
N6    Ni3   S    
C1    H1    S    
C31   C33   A    
C3    H32   S    
N2    Ni1   S    
C64   H23   S    
N4    N19   A    
C45   C47   A    
C52   N6    A    
C22   C28   A    
C4    H33   S    
C50   C63   A    
C15   C20   A    
C16   H7    S    
C47   H16   S    
N8    Ni4   S    
C42   C57   S    
N20   Ni2   S    
C10   H2    S    
C27   C34   S    
C39   C43   A    
C40   C45   A    
C14   C58   S    
C32   C35   A    
N5    N14   A    
C4    C6    A    
C11   C64   A    
C5    C7    A    
C50   H30   S    
C32   H6    S    
C44   C62   A    
N1    Ni1   S    
N8    N12   A    
N5    Ni4   S    
C24   H26   S    
C52   H19   S    
C2    C4    A    
C41   C56   A    
N12   Ni2   S    
C53   N7    A    
C23   C51   A    
C44   N18   A    
C51   N5    A    
C48   N2    A    
N18   Ni4   S    
C23   C28   S    
C9    C11   A    
C51   H18   S    
N2    N17   A    
C12   C57   A    
C30   H28   S    
C47   N20   A    
C16   C23   A    
C12   H12   S    
C61   N13   T    
N3    N18   A    
C17   C34   A    
N3    Ni1   S    
C1    N1    A    
C12   N12   A    
C37   C61   S    
C17   N15   A    
C43   C55   S    
C7    C9    A    
C49   C62   A    
C30   C33   A    
C19   C21   A    
C35   C56   S    
C15   C59   S    
N17   Ni4   S    
C8    C10   A    
C3    C5    A    
C10   C13   A    
C16   N14   A    
C49   N3    A    
C54   H21   S    
C6    C8    A    
N19   Ni3   S    
C25   C27   A    
C6    C20   S    
C29   C35   A    
C26   C28   A    
C40   H11   S    
C54   N8    A    
N6    N15   A    
C26   H4    S    
C44   H14   S    
C1    C55   A    
C29   C31   A    
C60   N11   T    
C30   C32   A    
C40   N16   A    
C46   C63   A    
C13   H24   S    
C36   C38   A    
C22   H25   S    
C46   N19   A    
C18   C20   A    
N14   Ni2   S    
N16   N20   A    
C31   H5    S    
C5    C21   S    
C17   H8    S    
C37   C39   A    
C36   C60   S    
C36   C43   A    
C11   H22   S    
C49   H29   S    
C54   C57   A    
C41   N17   A    
C29   H27   S    
