data_mof_unit_65623.cif
_audit_creation_date              2012-12-10T19:30:23-0500
_audit_creation_method            fapswitch 2.2
_symmetry_space_group_name_H-M    P1
_symmetry_Int_Tables_number       1
_space_group_crystal_system       triclinic
_cell_length_a                    17.723172
_cell_length_b                    16.512483
_cell_length_c                    19.453177
_cell_angle_alpha                 90.023581
_cell_angle_beta                  92.632189
_cell_angle_gamma                 89.99705
_cell_volume                      5687.03476133

loop_
_atom_site_label
_atom_site_type_symbol
_atom_type_description
_atom_site_fract_x
_atom_site_fract_y
_atom_site_fract_z
_atom_type_partial_charge
C1    C     C_R   0.355297 0.500001 0.499997 0.821757
C2    C     C_R   0.644702 0.499998 0.500003 0.821757
C3    C     C_R   0.727667 0.499997 0.499791 -0.055011
C4    C     C_R   0.272333 0.500003 0.500209 -0.055011
C5    C     C_R   0.885569 0.499997 0.499787 0.114042
C6    C     C_R   0.114431 0.500003 0.500213 0.114042
C7    C     C_1   0.966167 0.499999 0.499933 -0.003881
C8    C     C_1   0.033833 0.500001 0.500067 -0.003881
C9    C     C_R   0.550972 0.829829 0.543041 0.250566
C10   C     C_R   0.449028 0.170171 0.456959 0.250566
C11   C     C_R   0.449027 0.829798 0.456970 0.250546
C12   C     C_R   0.550973 0.170202 0.543030 0.250546
C13   C     C_R   0.550341 0.743917 0.542370 0.458150
C14   C     C_R   0.449659 0.256083 0.457630 0.458150
C15   C     C_R   0.449644 0.743888 0.457647 0.458227
C16   C     C_R   0.550356 0.256112 0.542353 0.458227
C17   C     C_R   0.500004 0.873598 0.500002 -0.211381
C18   C     C_R   0.499995 0.126402 0.499998 -0.211381
C19   C     C_1   0.500003 0.962939 0.500001 0.248929
C20   C     C_1   0.499997 0.037061 0.499999 0.248929
C21   C     C_R   0.503830 0.499977 0.367025 0.927189
C22   C     C_R   0.496170 0.500023 0.632975 0.927189
C23   C     C_R   0.513373 0.573932 0.252973 0.321372
C24   C     C_R   0.486626 0.426068 0.747027 0.321371
C25   C     C_R   0.486202 0.574285 0.746870 0.320884
C26   C     C_R   0.513798 0.425715 0.253130 0.320884
C27   C     C_R   0.510583 0.573260 0.180754 0.324436
C28   C     C_R   0.489415 0.426740 0.819246 0.324435
C29   C     C_R   0.489281 0.573938 0.819082 0.324561
C30   C     C_R   0.510718 0.426061 0.180918 0.324561
C31   C     C_R   0.507628 0.499590 0.144892 -0.271105
C32   C     C_R   0.492371 0.500409 0.855108 -0.271105
C33   C     C_R   0.510264 0.499885 0.290452 -0.362673
C34   C     C_R   0.489736 0.500115 0.709548 -0.362672
C35   C     C_R   0.496411 0.500404 0.930517 0.548901
C36   C     C_R   0.503588 0.499595 0.069483 0.548900
C37   C     C_R   0.846349 0.573406 0.499731 -0.113387
C38   C     C_R   0.153651 0.426594 0.500268 -0.113387
C39   C     C_R   0.153646 0.573412 0.500323 -0.113358
C40   C     C_R   0.846354 0.426588 0.499677 -0.113358
C41   C     C_R   0.767698 0.573504 0.499686 -0.120743
C42   C     C_R   0.232301 0.426496 0.500314 -0.120743
C43   C     C_R   0.232297 0.573510 0.500369 -0.120592
C44   C     C_R   0.767703 0.426489 0.499631 -0.120592
Cu1   Cu    Cu3+1 0.500000 0.580420 0.500000 1.103259
Cu2   Cu    Cu3+1 0.500000 0.419580 0.500000 1.103259
H1    H     H_    0.876539 0.630472 0.499723 0.164455
H2    H     H_    0.123461 0.369527 0.500277 0.164455
H3    H     H_    0.123452 0.630478 0.500374 0.164463
H4    H     H_    0.876547 0.369522 0.499626 0.164463
H5    H     H_    0.738378 0.631034 0.499527 0.198899
H6    H     H_    0.261622 0.368966 0.500473 0.198899
H7    H     H_    0.261615 0.631040 0.500572 0.198943
H8    H     H_    0.738385 0.368960 0.499428 0.198943
N1    N     N_R   0.559055 0.464594 0.033990 -0.139556
N2    N     N_R   0.440943 0.535406 0.966010 -0.139556
N3    N     N_R   0.555487 0.464931 0.965560 -0.136871
N4    N     N_R   0.444511 0.535068 0.034440 -0.136870
N5    N     N_R   0.500000 0.701220 0.500000 -0.291439
N6    N     N_R   0.500000 0.298780 0.500000 -0.291439
O1    O     O_R   0.391260 0.567930 0.500000 -0.559078
O2    O     O_R   0.608740 0.432070 0.500000 -0.559078
O3    O     O_R   0.608740 0.567930 0.500000 -0.559248
O4    O     O_R   0.391260 0.432070 0.500000 -0.559248
O5    O     O_R   0.499990 0.567930 0.400140 -0.513962
O6    O     O_R   0.500010 0.432070 0.599860 -0.513962
O7    O     O_R   0.500010 0.567930 0.599860 -0.513855
O8    O     O_R   0.499990 0.432070 0.400140 -0.513855
Cl1   Cl    Cl    0.526707 0.669302 0.293556 -0.404852
Cl2   Cl    Cl    0.473293 0.330698 0.706443 -0.404852
Cl3   Cl    Cl    0.472537 0.669488 0.706139 -0.405622
Cl4   Cl    Cl    0.527463 0.330512 0.293861 -0.405621
Cl5   Cl    Cl    0.513886 0.665760 0.134708 -0.356795
Cl6   Cl    Cl    0.486112 0.334239 0.865292 -0.356795
Cl7   Cl    Cl    0.491904 0.666886 0.864808 -0.354248
Cl8   Cl    Cl    0.508095 0.333114 0.135192 -0.354248
Cl9   Cl    Cl    0.616018 0.882734 0.598166 -0.362159
Cl10  Cl    Cl    0.383982 0.117266 0.401833 -0.362159
Cl11  Cl    Cl    0.383972 0.882664 0.401857 -0.362118
Cl12  Cl    Cl    0.616027 0.117336 0.598143 -0.362118
Cl13  Cl    Cl    0.616202 0.693325 0.597742 -0.433837
Cl14  Cl    Cl    0.383798 0.306675 0.402258 -0.433837
Cl15  Cl    Cl    0.383701 0.693266 0.402346 -0.433810
Cl16  Cl    Cl    0.616299 0.306734 0.597654 -0.433810

loop_
_geom_bond_atom_site_label_1
_geom_bond_atom_site_label_2
_ccdc_geom_bond_type
C5    C37   A    
C26   Cl4   S    
C23   Cl1   S    
C19   C20   T    
C28   Cl6   S    
C10   Cl10  S    
C24   Cl2   S    
C7    C8    T    
Cu1   Cu2   S    
Cu2   O2    S    
C6    C8    S    
Cu2   O6    S    
C29   C32   A    
C36   N4    A    
C30   C31   A    
C21   C33   S    
C13   Cl13  S    
C16   Cl16  S    
C16   N6    A    
C9    C13   A    
C22   O6    A    
C11   C15   A    
C43   H7    S    
C11   C17   A    
C12   C16   A    
C23   C33   A    
Cu1   O7    S    
C6    C38   A    
C25   Cl3   S    
C23   C27   A    
C37   H1    S    
C38   H2    S    
C25   C34   A    
C21   O5    A    
C25   C29   A    
C22   C34   S    
C3    C44   A    
C27   C31   A    
C32   C35   S    
C28   C32   A    
C10   C14   A    
C5    C7    S    
C39   C43   A    
Cu1   O3    S    
C24   C34   A    
Cu2   O4    S    
Cu2   O8    S    
C30   Cl8   S    
C26   C33   A    
C9    Cl9   S    
C11   Cl11  S    
C29   Cl7   S    
C9    C17   A    
C39   H3    S    
C26   C30   A    
N1    N3    A    
C21   O8    A    
Cu1   O5    S    
C14   Cl14  S    
C1    O4    A    
C2    O3    A    
C3    C41   A    
Cu2   N6    S    
C35   N2    A    
C6    C39   A    
C15   N5    A    
C24   C28   A    
C1    O1    A    
C15   Cl15  S    
C38   C42   A    
C13   N5    A    
C4    C43   A    
C14   N6    A    
C35   N3    A    
C1    C4    S    
C2    C3    S    
C36   N1    A    
C4    C42   A    
C10   C18   A    
C40   H4    S    
C12   Cl12  S    
Cu1   O1    S    
C17   C19   S    
N2    N4    A    
C18   C20   S    
C37   C41   A    
C22   O7    A    
C44   H8    S    
C40   C44   A    
Cu1   N5    S    
C5    C40   A    
C12   C18   A    
C31   C36   S    
C27   Cl5   S    
C41   H5    S    
C2    O2    A    
C42   H6    S    
