data_mof_unit_18255.cif
_audit_creation_date              2012-12-11T14:32:58-0500
_audit_creation_method            fapswitch 2.2
_symmetry_space_group_name_H-M    P1
_symmetry_Int_Tables_number       1
_space_group_crystal_system       triclinic
_cell_length_a                    6.963063
_cell_length_b                    13.875908
_cell_length_c                    17.939565
_cell_angle_alpha                 112.459237
_cell_angle_beta                  95.55874
_cell_angle_gamma                 90.420869
_cell_volume                      1592.44439641

loop_
_atom_site_label
_atom_site_type_symbol
_atom_type_description
_atom_site_fract_x
_atom_site_fract_y
_atom_site_fract_z
_atom_type_partial_charge
O1    O     O_R   0.484560 0.544530 0.414330 -0.537140
O2    O     O_R   0.197040 0.638810 0.585080 -0.526917
O3    O     O_R   0.026800 0.455470 0.585670 -0.540646
C1    C     C_R   0.375354 0.680725 0.607376 0.696794
O4    O     O_R   0.155000 0.556150 0.414940 -0.543390
O5    O     O_R   0.984450 0.372220 0.414320 -0.542052
C2    C     C_R   0.317801 0.565059 0.386651 0.753243
O6    O     O_R   0.526900 0.627780 0.585680 -0.527315
O7    O     O_3   0.339170 0.439750 0.499990 -0.387038
V1    V     V_3+5 0.064350 0.511180 0.500000 1.428180
O8    O     O_R   0.654880 0.361190 0.414920 -0.548503
C3    C     C_R   0.816940 0.324543 0.386472 0.737467
O9    O     O_R   0.696930 0.443850 0.585060 -0.541227
C4    C     C_R   0.871831 0.425518 0.607557 0.728695
V2    V     V_3+5 0.564340 0.488820 0.500000 1.410734
O10   O     O_3   0.839390 0.560250 0.500010 -0.359604
C5    C     C_R   0.045900 0.860605 0.822976 -0.142978
C6    C     C_R   0.899684 0.384090 0.672487 -0.062407
C7    C     C_R   0.934472 0.815726 0.681299 -0.139936
C8    C     C_R   0.990392 0.784487 0.745001 0.419894
C9    C     C_R   0.054137 0.966234 0.834588 -0.268716
C10   C     C_R   0.002331 0.999214 0.769575 0.042485
C11   C     C_R   0.940859 0.921437 0.691991 0.010373
C12   C     C_R   0.006004 0.106545 0.779516 0.080487
C13   C     C_R   0.953548 0.134318 0.711229 0.022562
C14   C     C_R   0.892566 0.054286 0.635774 -0.266653
C15   C     C_R   0.885302 0.949093 0.625680 0.327520
C16   C     C_R   0.058443 0.187275 0.855926 -0.162279
C17   C     C_R   0.052191 0.291023 0.866296 -0.226367
C18   C     C_R   0.998893 0.318958 0.800890 0.136635
C19   C     C_R   0.956533 0.241967 0.721447 0.126298
C20   C     C_R   0.979797 0.424204 0.815448 -0.160897
C21   C     C_R   0.915037 0.454250 0.752486 -0.163977
C22   C     C_R   0.918912 0.277197 0.656390 -0.221170
H1    H     H_    0.904993 0.224436 0.593592 0.090634
H2    H     H_    0.868903 0.532317 0.766364 0.162579
H3    H     H_    0.087663 0.350321 0.926700 0.118339
H4    H     H_    0.885210 0.755733 0.622796 0.199043
H5    H     H_    0.097493 0.020124 0.895641 0.112572
H6    H     H_    0.844188 0.071755 0.583676 0.117906
H7    H     H_    0.101591 0.173714 0.910122 0.121399
H8    H     H_    0.003436 0.482693 0.876585 0.138405
H9    H     H_    0.113784 0.223692 0.308820 0.153690
H10   H     H_    0.834697 0.034669 0.193729 0.155331
C23   C     C_2   0.135461 0.037356 0.184019 -0.350135
C24   C     C_2   0.972860 0.077814 0.217083 -0.129943
H11   H     H_    0.675083 0.177794 0.294660 0.125250
C25   C     C_2   0.812986 0.221060 0.318467 -0.347218
C26   C     C_2   0.975609 0.180564 0.285446 -0.130872
H12   H     H_    0.273348 0.080646 0.207800 0.125211
C27   C     C_R   0.419495 0.788120 0.672904 -0.067722
C28   C     C_R   0.534566 0.472551 0.827250 -0.055304
C29   C     C_R   0.565667 0.889578 0.809760 -0.146538
C30   C     C_R   0.525101 0.794487 0.745200 -0.167149
C31   C     C_R   0.389681 0.883168 0.661243 -0.191009
C32   C     C_R   0.451953 0.983137 0.724397 0.085632
C33   C     C_R   0.529680 0.983406 0.800420 0.130307
C34   C     C_R   0.442301 0.082541 0.715778 0.057369
C35   C     C_R   0.496706 0.178997 0.784514 0.067226
C36   C     C_R   0.560798 0.172678 0.859205 -0.180415
C37   C     C_R   0.578935 0.077073 0.866495 -0.207491
C38   C     C_R   0.386198 0.088601 0.640353 -0.182568
C39   C     C_R   0.381246 0.184079 0.631796 -0.213389
C40   C     C_R   0.430731 0.278009 0.697901 0.125868
C41   C     C_R   0.488746 0.278359 0.775909 0.099390
C42   C     C_R   0.424109 0.371828 0.685618 -0.129757
C43   C     C_R   0.478603 0.466968 0.748886 -0.164991
C44   C     C_R   0.536827 0.378285 0.841087 -0.203784
H13   H     H_    0.636164 0.076421 0.924697 0.117391
H14   H     H_    0.576650 0.385517 0.902599 0.089086
H15   H     H_    0.484497 0.536895 0.736097 0.088838
H16   H     H_    0.337651 0.184378 0.572213 0.116517
H17   H     H_    0.632799 0.889865 0.866828 0.141560
H18   H     H_    0.571110 0.724248 0.753118 0.124366
H19   H     H_    0.320414 0.877045 0.603082 0.110784
H20   H     H_    0.604496 0.240701 0.913075 0.122430
H21   H     H_    0.347938 0.019949 0.586175 0.128897
H22   H     H_    0.380253 0.371362 0.625919 0.138580
H23   H     H_    0.334678 0.667490 0.194775 0.154614
H24   H     H_    0.614666 0.591263 0.308186 0.157046
C45   C     C_2   0.314654 0.602355 0.319054 -0.340441
C46   C     C_2   0.476580 0.611230 0.285496 -0.122719
H25   H     H_    0.772335 0.636380 0.206820 0.127085
C47   C     C_2   0.634573 0.656161 0.183715 -0.347342
C48   C     C_2   0.472768 0.647457 0.217407 -0.131061
H26   H     H_    0.176922 0.622095 0.295891 0.126703
O11   O     O_R   0.421600 0.630430 0.917010 -0.542050
O12   O     O_R   0.793840 0.702190 0.087630 -0.543730
O13   O     O_R   0.964010 0.886170 0.088190 -0.537666
C49   C     C_R   0.631171 0.693308 0.116024 0.755047
O14   O     O_R   0.751460 0.619510 0.917500 -0.542826
O15   O     O_R   0.921330 0.802900 0.916840 -0.537033
C50   C     C_R   0.573745 0.578682 0.893744 0.677228
O16   O     O_R   0.464290 0.713700 0.088350 -0.537033
O17   O     O_3   0.609200 0.818520 0.002630 -0.372962
V3    V     V_3+5 0.884140 0.747190 0.002530 1.376460
O18   O     O_R   0.251150 0.814630 0.917340 -0.546779
C51   C     C_R   0.075498 0.830177 0.893376 0.717080
O19   O     O_R   0.293530 0.897310 0.087470 -0.543409
C52   C     C_R   0.131500 0.933890 0.115991 0.754779
V4    V     V_3+5 0.384070 0.769710 0.002370 1.372185
O20   O     O_3   0.109180 0.698190 0.002460 -0.376935
O21   O     O_3   0.822753 0.871676 0.551111 -0.659597
H27   H     H_    0.787987 0.903603 0.511035 0.282028
O22   O     O_3   0.972800 0.678955 0.729722 -0.571837
C53   C     C_3   0.145154 0.643707 0.757107 -0.233277
H28   H     H_    0.128525 0.630998 0.813395 0.157639
H29   H     H_    0.271213 0.696532 0.770658 0.111380
H30   H     H_    0.179584 0.569775 0.710368 0.168956

loop_
_geom_bond_atom_site_label_1
_geom_bond_atom_site_label_2
_ccdc_geom_bond_type
C34   C38   A    
C31   C32   A    
O12   V3    S    
C13   C19   A    
V4    O20   S    
V3    O20   S    
C4    C6    S    
C38   H21   S    
O2    C1    A    
O17   V3    S    
C1    O6    A    
C5    C8    A    
C45   C46   D    
O15   C51   A    
C23   C24   D    
C24   C26   S    
C14   C15   A    
C38   C39   A    
C16   C17   A    
O5    C3    A    
C18   C19   A    
C53   H28   S    
V2    O10   S    
O18   C51   A    
C16   H7    S    
O15   V3    S    
C21   H2    S    
C32   C33   A    
C22   H1    S    
O14   V3    S    
C30   H18   S    
O8    V2    S    
H11   C25   S    
O16   V4    S    
O1    V2    S    
C11   C15   A    
O7    V1    S    
C27   C31   A    
C45   H26   S    
C28   C44   A    
C3    C25   S    
C31   H19   S    
C42   C43   A    
C35   C36   A    
O11   V4    S    
O9    C4    A    
C47   C49   S    
H10   C24   S    
C49   O16   A    
C42   H22   S    
C1    C27   S    
C12   C13   A    
H24   C46   S    
O4    C2    A    
C29   C33   A    
H9    C26   S    
O13   C52   A    
C13   C14   A    
C29   C30   A    
C36   H20   S    
C5    C9    A    
C36   C37   A    
C40   C42   A    
C7    C11   A    
C17   C18   A    
C7    H4    S    
O14   C50   A    
H25   C47   S    
C9    H5    S    
C41   C44   A    
C19   C22   A    
C28   C50   S    
C47   C48   D    
C6    C22   A    
O3    C4    A    
C25   C26   D    
O19   V4    S    
O12   C49   A    
O6    V2    S    
O9    V2    S    
C10   C12   A    
O2    V1    S    
H23   C48   S    
C8    O22   S    
C5    C51   S    
C37   H13   S    
C2    C45   S    
O1    C2    A    
C29   H17   S    
C12   C16   A    
C28   C43   A    
C23   C52   S    
O5    V1    S    
O8    C3    A    
C33   C37   A    
C46   C48   S    
O22   C53   S    
O19   C52   A    
C27   C30   A    
C20   C21   A    
C7    C8    A    
C34   C35   A    
O4    V1    S    
O3    V1    S    
V1    O10   S    
C35   C41   A    
C18   C20   A    
C14   H6    S    
C53   H29   S    
C23   H12   S    
O13   V3    S    
O11   C50   A    
C40   C41   A    
C15   O21   S    
C32   C34   A    
C43   H15   S    
O7    V2    S    
C6    C21   A    
C39   C40   A    
C39   H16   S    
C44   H14   S    
C17   H3    S    
O21   H27   S    
C20   H8    S    
C10   C11   A    
C9    C10   A    
O18   V4    S    
O17   V4    S    
C53   H30   S    
