data_mof_unit_35129.cif
_audit_creation_date              2012-12-11T15:54:39-0500
_audit_creation_method            fapswitch 2.2
_symmetry_space_group_name_H-M    P1
_symmetry_Int_Tables_number       1
_space_group_crystal_system       triclinic
_cell_length_a                    6.927801
_cell_length_b                    14.523599
_cell_length_c                    16.060732
_cell_angle_alpha                 89.966649
_cell_angle_beta                  89.917956
_cell_angle_gamma                 90.043164
_cell_volume                      1615.9739163

loop_
_atom_site_label
_atom_site_type_symbol
_atom_type_description
_atom_site_fract_x
_atom_site_fract_y
_atom_site_fract_z
_atom_type_partial_charge
O1    O     O_R   0.638180 0.333920 0.163320 -0.539809
O2    O     O_R   0.361820 0.666080 0.836680 -0.539811
O3    O     O_R   0.308470 0.344960 0.336080 -0.545075
O4    O     O_R   0.691530 0.655040 0.663920 -0.545076
O5    O     O_R   0.138140 0.166110 0.336680 -0.533902
O6    O     O_R   0.861860 0.833890 0.663320 -0.533901
C1    C     C_R   0.477475 0.367149 0.365080 0.693603
C2    C     C_R   0.522525 0.632852 0.634919 0.693600
O7    O     O_R   0.308460 0.344950 0.163930 -0.545234
O8    O     O_R   0.691540 0.655050 0.836070 -0.545228
O9    O     O_R   0.138140 0.166100 0.163310 -0.541778
O10   O     O_R   0.861860 0.833900 0.836690 -0.541773
C3    C     C_R   0.477633 0.367289 0.135065 0.676088
C4    C     C_R   0.522366 0.632707 0.864933 0.676082
O11   O     O_R   0.638180 0.333930 0.336700 -0.540409
O12   O     O_R   0.361820 0.666070 0.663300 -0.540409
O13   O     O_3   0.471670 0.191340 0.250000 -0.365616
O14   O     O_3   0.528330 0.808660 0.750000 -0.365613
V1    V     V_3+5 0.196830 0.260900 0.250000 1.394764
V2    V     V_3+5 0.803170 0.739100 0.750000 1.394776
O15   O     O_R   0.808420 0.155070 0.163920 -0.545985
O16   O     O_R   0.191580 0.844930 0.836080 -0.545989
C5    C     C_R   0.977534 0.132590 0.135147 0.673626
C6    C     C_R   0.022466 0.867403 0.864858 0.673629
O17   O     O_R   0.808420 0.155080 0.336070 -0.537376
O18   O     O_R   0.191580 0.844920 0.663930 -0.537373
C7    C     C_R   0.977108 0.133556 0.365036 0.703200
C8    C     C_R   0.022892 0.866449 0.634968 0.703204
V3    V     V_3+5 0.696830 0.239130 0.250000 1.403124
V4    V     V_3+5 0.303170 0.760870 0.750000 1.403122
O19   O     O_3   0.971850 0.308690 0.250010 -0.372020
O20   O     O_3   0.028150 0.691310 0.749990 -0.372021
C9    C     C_R   0.066101 0.188723 0.533830 -0.159273
C10   C     C_R   0.933906 0.811284 0.466176 -0.159269
C11   C     C_R   0.110127 0.217835 0.614263 -0.157806
C12   C     C_R   0.889855 0.782173 0.385745 -0.157810
C13   C     C_R   0.124486 0.154261 0.679384 0.059215
C14   C     C_R   0.875464 0.845749 0.320629 0.059204
C15   C     C_R   0.092759 0.060688 0.662837 -0.177407
C16   C     C_R   0.907204 0.939322 0.337173 -0.177429
C17   C     C_R   0.047696 0.029339 0.581711 0.055091
C18   C     C_R   0.952296 0.970669 0.418296 0.055092
C19   C     C_R   0.034552 0.094609 0.515835 0.068280
C20   C     C_R   0.965452 0.905398 0.484171 0.068284
C21   C     C_R   0.012751 0.934680 0.565970 -0.171772
C22   C     C_R   0.987250 0.065328 0.434036 -0.171771
H1    H     H_    0.056264 0.241101 0.486071 0.106820
H2    H     H_    0.943759 0.758906 0.513935 0.106822
H3    H     H_    0.135114 0.290434 0.625402 0.117728
H4    H     H_    0.864865 0.709575 0.374606 0.117740
H5    H     H_    0.100247 0.012986 0.714514 0.099994
H6    H     H_    0.899690 0.987024 0.285497 0.100018
C23   C     C_R   0.178554 0.963629 0.976261 -0.150329
C24   C     C_R   0.821438 0.036349 0.023757 -0.150255
H7    H     H_    0.318485 0.936396 0.959112 0.104265
H8    H     H_    0.681507 0.063583 0.040904 0.104261
C25   C     C_R   0.167295 0.026705 0.041973 -0.146814
C26   C     C_R   0.832696 0.973269 0.958047 -0.146746
H9    H     H_    0.299192 0.046276 0.073470 0.110833
H10   H     H_    0.700798 0.953698 0.926551 0.110835
C27   C     C_R   0.988602 0.064072 0.066478 -0.030665
C28   C     C_R   0.011393 0.935911 0.933536 -0.030669
C29   C     C_R   0.320067 0.472300 0.469527 -0.162173
C30   C     C_R   0.679935 0.527704 0.530470 -0.162174
H11   H     H_    0.178999 0.451818 0.447244 0.112663
H12   H     H_    0.821002 0.548187 0.552752 0.112662
C31   C     C_R   0.331276 0.536026 0.534675 -0.152036
C32   C     C_R   0.668726 0.463978 0.465322 -0.152035
H13   H     H_    0.198244 0.562930 0.560402 0.115569
H14   H     H_    0.801757 0.437074 0.439595 0.115569
C33   C     C_R   0.511364 0.564531 0.566096 -0.042950
C34   C     C_R   0.488638 0.435472 0.433902 -0.042950
C35   C     C_R   0.320655 0.475970 0.033686 -0.168566
C36   C     C_R   0.679344 0.524019 0.966305 -0.168578
H15   H     H_    0.179982 0.458414 0.058536 0.111976
H16   H     H_    0.820017 0.541574 0.941455 0.111979
C37   C     C_R   0.331626 0.539469 0.968324 -0.148570
C38   C     C_R   0.668374 0.460521 0.031668 -0.148568
H17   H     H_    0.198922 0.569192 0.945063 0.114167
H18   H     H_    0.801077 0.430797 0.054928 0.114166
C39   C     C_R   0.511123 0.564342 0.933738 -0.039908
C40   C     C_R   0.488876 0.435649 0.066255 -0.039891
C41   C     C_R   0.827461 0.814641 0.235074 0.086533
C42   C     C_R   0.690236 0.862619 0.187277 -0.125821
C43   C     C_R   0.644598 0.833083 0.106849 -0.102831
C44   C     C_R   0.737081 0.756398 0.072824 -0.081156
C45   C     C_R   0.873670 0.708242 0.119601 -0.111672
C46   C     C_R   0.918338 0.736858 0.200487 -0.132856
H19   H     H_    0.616688 0.922203 0.212508 0.107075
H20   H     H_    0.538074 0.870020 0.070734 0.099875
H21   H     H_    0.703054 0.734451 0.010197 0.100508
H22   H     H_    0.945230 0.648796 0.093131 0.106906
H23   H     H_    0.025745 0.699122 0.235559 0.107808
C47   C     C_R   0.172419 0.185373 0.764947 0.086516
C48   C     C_R   0.309520 0.137368 0.812788 -0.125824
C49   C     C_R   0.355064 0.166898 0.893228 -0.102739
C50   C     C_R   0.262604 0.243604 0.927224 -0.081220
C51   C     C_R   0.126146 0.291791 0.880404 -0.111671
C52   C     C_R   0.081577 0.263181 0.799506 -0.132827
H24   H     H_    0.383041 0.077766 0.787581 0.107063
H25   H     H_    0.461488 0.129938 0.929379 0.099857
H26   H     H_    0.296548 0.265541 0.989863 0.100535
H27   H     H_    0.054604 0.351253 0.906853 0.106906
H28   H     H_    0.974268 0.300940 0.764399 0.107792

loop_
_geom_bond_atom_site_label_1
_geom_bond_atom_site_label_2
_ccdc_geom_bond_type
C26   C28   A    
C15   H5    S    
C45   C46   A    
C29   H11   S    
C14   C41   S    
O13   V3    S    
C23   H7    S    
C48   C49   A    
O4    C2    A    
V1    O19   S    
C50   C51   A    
C15   C17   A    
C43   C44   A    
O9    V1    S    
C36   H16   S    
C30   C32   A    
C11   C13   A    
O3    C1    A    
C44   H21   S    
C24   C26   A    
C38   H18   S    
C25   H9    S    
C26   H10   S    
C51   H27   S    
C18   C22   A    
C30   C33   A    
O7    C3    A    
C9    C11   A    
O5    C7    A    
O7    V1    S    
O6    C8    A    
O8    V2    S    
C11   H3    S    
O3    V1    S    
O14   V4    S    
C31   C33   A    
C50   H26   S    
C16   C18   A    
C41   C46   A    
C2    O12   A    
C14   C16   A    
C49   H25   S    
C17   C19   A    
C18   C20   A    
O11   V3    S    
C29   C31   A    
C37   H17   S    
O17   V3    S    
C13   C15   A    
C24   H8    S    
C8    C21   S    
C9    C19   A    
C10   C20   A    
C42   C43   A    
O8    C4    A    
C1    C34   S    
C23   C25   A    
C48   H24   S    
C1    O11   A    
C16   H6    S    
O15   V3    S    
C3    C40   S    
C31   H13   S    
C30   H12   S    
C23   C28   A    
C38   C40   A    
C41   C42   A    
C37   C39   A    
C32   C34   A    
C49   C50   A    
O10   V2    S    
O1    V3    S    
C7    C22   S    
O18   V4    S    
O15   C5    A    
C9    H1    S    
O16   C6    A    
O1    C3    A    
C42   H19   S    
C35   H15   S    
C36   C39   A    
C35   C40   A    
C12   H4    S    
C20   C21   A    
V2    O20   S    
C46   H23   S    
C2    C33   S    
C6    C28   S    
O16   V4    S    
C44   C45   A    
C43   H20   S    
C25   C27   A    
O5    V1    S    
C24   C27   A    
O17   C7    A    
O6    V2    S    
O10   C6    A    
O18   C8    A    
O2    V4    S    
C12   C14   A    
V3    O19   S    
V4    O20   S    
C47   C52   A    
O9    C5    A    
O13   V1    S    
C10   C12   A    
C13   C47   S    
C52   H28   S    
O14   V2    S    
C47   C48   A    
O2    C4    A    
C19   C22   A    
O4    V2    S    
C5    C27   S    
C10   H2    S    
C29   C34   A    
C35   C37   A    
C32   H14   S    
C51   C52   A    
C36   C38   A    
C17   C21   A    
C4    C39   S    
C45   H22   S    
O12   V4    S    
