data_mof_unit_59528.cif
_audit_creation_date              2012-10-26T18:41:25-0400
_audit_creation_method            fapswitch 2.2
_symmetry_space_group_name_H-M    P1
_symmetry_Int_Tables_number       1
_space_group_crystal_system       triclinic
_cell_length_a                    19.341171
_cell_length_b                    18.317169
_cell_length_c                    10.904303
_cell_angle_alpha                 91.86224
_cell_angle_beta                  91.10117
_cell_angle_gamma                 90.824062
_cell_volume                      3859.93867517

loop_
_atom_site_label
_atom_site_type_symbol
_atom_type_description
_atom_site_fract_x
_atom_site_fract_y
_atom_site_fract_z
_atom_type_partial_charge
C1    C     C_R   0.367774 0.499695 0.498872 0.560516
C2    C     C_R   0.927112 0.501465 0.455637 0.022632
C3    C     C_R   0.462666 0.720622 0.587479 0.249983
C4    C     C_R   0.542735 0.282843 0.583024 0.264472
C5    C     C_R   0.539407 0.723140 0.421683 0.257203
C6    C     C_R   0.455308 0.272975 0.427077 0.253147
C7    C     C_R   0.464909 0.797784 0.597029 -0.126408
C8    C     C_R   0.543084 0.205926 0.590750 -0.153712
C9    C     C_R   0.535350 0.799969 0.420118 -0.154614
C10   C     C_R   0.459687 0.196043 0.427271 -0.116991
C11   C     C_R   0.500392 0.839059 0.511585 -0.011534
C12   C     C_R   0.632168 0.500252 0.498148 0.598939
C13   C     C_R   0.502177 0.161442 0.511345 -0.042561
C14   C     C_R   0.564860 0.962423 0.506406 0.139967
C15   C     C_R   0.439845 0.039090 0.531864 0.134925
C16   C     C_R   0.439795 0.961455 0.533352 0.146172
C17   C     C_R   0.564999 0.040111 0.506304 0.147301
C18   C     C_R   0.502443 0.079086 0.516907 -0.021815
C19   C     C_R   0.501906 0.922101 0.518274 -0.008099
C20   C     C_R   0.502842 0.498091 0.261806 0.525142
C21   C     C_R   0.500447 0.501372 0.737199 0.547545
C22   C     C_R   0.608361 0.579066 0.133157 -0.100780
C23   C     C_R   0.707530 0.500329 0.487409 0.063080
C24   C     C_R   0.406390 0.410560 0.865975 -0.111417
C25   C     C_R   0.597211 0.595238 0.881490 -0.111525
C26   C     C_R   0.447363 0.373082 0.099449 -0.111685
C27   C     C_R   0.654096 0.625267 0.074860 -0.147809
C28   C     C_R   0.376388 0.349909 0.918595 -0.151731
C29   C     C_R   0.647730 0.634300 0.949611 -0.138154
C30   C     C_R   0.399458 0.329123 0.033302 -0.126161
C31   C     C_R   0.550003 0.547572 0.938600 -0.007810
C32   C     C_R   0.471184 0.440105 0.054564 -0.010838
C33   C     C_R   0.554682 0.541388 0.067466 0.011146
C34   C     C_R   0.292181 0.499446 0.485911 0.048998
C35   C     C_R   0.458417 0.452824 0.930011 -0.002620
C36   C     C_R   0.500376 0.503973 0.870802 -0.031600
C37   C     C_R   0.510355 0.492406 0.126759 -0.026980
C38   C     C_R   0.750233 0.519514 0.589870 0.083207
C39   C     C_R   0.252512 0.529660 0.581699 0.096956
C40   C     C_R   0.259242 0.473425 0.375020 0.100947
C41   C     C_R   0.737541 0.481345 0.373818 0.079766
C42   C     C_R   0.822050 0.520517 0.577760 -0.105315
C43   C     C_R   0.180736 0.533007 0.567353 -0.102315
C44   C     C_R   0.186526 0.469903 0.369647 -0.073917
C45   C     C_R   0.964033 0.562302 0.413655 0.115782
C46   C     C_R   0.809411 0.485780 0.362380 -0.101002
C47   C     C_R   0.851519 0.504015 0.464497 0.049085
C48   C     C_R   0.147748 0.500796 0.464106 0.042657
C49   C     C_3   0.720544 0.471377 0.783667 -0.313564
C50   C     C_3   0.267869 0.517451 0.800154 -0.328974
C51   C     C_3   0.269230 0.465131 0.149237 -0.326051
C52   C     C_3   0.684546 0.379823 0.259734 -0.297144
C53   C     C_3   0.911313 0.678042 0.466581 -0.320835
C54   C     C_3   0.089274 0.379167 0.669291 -0.318256
C55   C     C_3   0.092914 0.615367 0.238760 -0.317100
C56   C     C_R   0.034852 0.438786 0.497838 0.115391
C57   C     C_3   0.901765 0.325796 0.436095 -0.317380
C58   C     C_3   0.432416 0.693645 0.796915 -0.299727
C59   C     C_3   0.577843 0.315942 0.792496 -0.299006
C60   C     C_3   0.658980 0.695756 0.396909 -0.301584
C61   C     C_3   0.334090 0.274271 0.354750 -0.327277
C62   C     C_3   0.668691 0.931620 0.388928 -0.287916
C63   C     C_3   0.324400 0.072583 0.457226 -0.321188
C64   C     C_3   0.344414 0.928751 0.665889 -0.303647
C65   C     C_3   0.678122 0.079608 0.592873 -0.290210
C66   C     C_R   0.036934 0.560471 0.410404 0.116152
C67   C     C_R   0.961904 0.438838 0.494091 0.117077
C68   C     C_R   0.071837 0.499598 0.455749 0.019223
Cu1   Cu    Cu3+1 0.500000 0.573360 0.500000 0.993370
Cu2   Cu    Cu3+1 0.500000 0.426640 0.500000 0.951063
H1    H     H_    0.381113 0.278435 0.070370 0.125530
H2    H     H_    0.150250 0.557997 0.639287 0.104682
H3    H     H_    0.159430 0.445486 0.290557 0.106068
H4    H     H_    0.832618 0.472097 0.275078 0.103235
H5    H     H_    0.438889 0.824997 0.671585 0.130176
H6    H     H_    0.575252 0.180943 0.659227 0.118434
H7    H     H_    0.562622 0.828905 0.350646 0.116804
H8    H     H_    0.428810 0.162799 0.362744 0.124998
H9    H     H_    0.744090 0.579165 0.751753 0.239257
H10   H     H_    0.774163 0.454331 0.805797 0.131291
H11   H     H_    0.692173 0.425392 0.736251 0.167938
H12   H     H_    0.683537 0.669947 0.904235 0.101386
H13   H     H_    0.694259 0.484893 0.870803 0.151959
H14   H     H_    0.277031 0.612539 0.706052 0.241759
H15   H     H_    0.214321 0.529557 0.828918 0.116703
H16   H     H_    0.304142 0.534168 0.876418 0.143328
H17   H     H_    0.272128 0.457695 0.781888 0.149242
H18   H     H_    0.350740 0.466526 0.274893 0.255960
H19   H     H_    0.250054 0.521882 0.144188 0.137182
H20   H     H_    0.226830 0.425116 0.127384 0.139000
H21   H     H_    0.309175 0.457326 0.078543 0.158194
H22   H     H_    0.713046 0.478403 0.189434 0.242769
H23   H     H_    0.338130 0.316914 0.867593 0.105475
H24   H     H_    0.733989 0.351988 0.239942 0.115612
H25   H     H_    0.647073 0.367038 0.183322 0.138989
H26   H     H_    0.663028 0.358445 0.345301 0.180709
H27   H     H_    0.947012 0.647029 0.294895 0.249435
H28   H     H_    0.879547 0.721596 0.426351 0.131215
H29   H     H_    0.959525 0.703178 0.506796 0.124976
H30   H     H_    0.881388 0.653220 0.540605 0.152536
H31   H     H_    0.050687 0.327308 0.510060 0.249275
H32   H     H_    0.121036 0.331071 0.690922 0.133139
H33   H     H_    0.041936 0.377905 0.725154 0.121782
H34   H     H_    0.695229 0.653428 0.126664 0.107189
H35   H     H_    0.119802 0.429048 0.695387 0.154087
H36   H     H_    0.057308 0.671401 0.392657 0.250073
H37   H     H_    0.127142 0.661967 0.215956 0.136473
H38   H     H_    0.045310 0.616801 0.180398 0.122504
H39   H     H_    0.120573 0.564074 0.217500 0.148630
H40   H     H_    0.942975 0.352394 0.608873 0.249128
H41   H     H_    0.867674 0.283084 0.473832 0.132856
H42   H     H_    0.947615 0.299160 0.395601 0.122909
H43   H     H_    0.872529 0.353213 0.362750 0.153023
H44   H     H_    0.367888 0.686325 0.643197 0.235603
H45   H     H_    0.617308 0.570498 0.229439 0.179515
H46   H     H_    0.406557 0.649719 0.847745 0.156147
H47   H     H_    0.411260 0.746908 0.828534 0.095370
H48   H     H_    0.488738 0.692599 0.818431 0.160017
H49   H     H_    0.638560 0.320988 0.638298 0.219764
H50   H     H_    0.602219 0.362580 0.845390 0.138761
H51   H     H_    0.602330 0.264801 0.822205 0.095802
H52   H     H_    0.521966 0.314256 0.814132 0.180757
H53   H     H_    0.585878 0.704682 0.258507 0.229438
H54   H     H_    0.692967 0.656128 0.349413 0.137743
H55   H     H_    0.661077 0.685047 0.496663 0.170601
H56   H     H_    0.389591 0.422907 0.773963 0.152334
H57   H     H_    0.679417 0.751700 0.383044 0.101184
H58   H     H_    0.405493 0.358825 0.340355 0.309766
H59   H     H_    0.330804 0.220402 0.305680 0.122017
H60   H     H_    0.297662 0.310358 0.306629 0.175603
H61   H     H_    0.317702 0.269991 0.451420 0.152267
H62   H     H_    0.634043 0.877136 0.544875 0.242704
H63   H     H_    0.675175 0.876940 0.344564 0.101554
H64   H     H_    0.720864 0.954572 0.411999 0.149303
H65   H     H_    0.642831 0.967034 0.321583 0.161552
H66   H     H_    0.380815 0.126273 0.601184 0.252172
H67   H     H_    0.598139 0.601876 0.783854 0.166372
H68   H     H_    0.306646 0.128113 0.436715 0.118362
H69   H     H_    0.278912 0.041114 0.488120 0.142870
H70   H     H_    0.344025 0.046415 0.371499 0.136295
H71   H     H_    0.342299 0.924244 0.473457 0.249143
H72   H     H_    0.313827 0.878325 0.681775 0.123735
H73   H     H_    0.308909 0.975717 0.669542 0.161404
H74   H     H_    0.384024 0.935777 0.740780 0.141067
H75   H     H_    0.627602 0.125468 0.441391 0.243112
H76   H     H_    0.687158 0.136570 0.628068 0.105105
H77   H     H_    0.728181 0.057968 0.561104 0.147271
H78   H     H_    0.470947 0.349992 0.178365 0.163214
H79   H     H_    0.659827 0.046177 0.669523 0.157948
H80   H     H_    0.855060 0.533402 0.657220 0.103702
N1    N     N_R   0.500000 0.683620 0.500000 -0.184039
N2    N     N_2   0.922798 0.377514 0.533340 -0.516284
N3    N     N_2   0.419411 0.681314 0.666567 -0.439612
N4    N     N_2   0.587468 0.325435 0.662358 -0.450341
N5    N     N_2   0.588900 0.688049 0.347819 -0.468406
N6    N     N_2   0.403793 0.303876 0.350181 -0.528448
N7    N     N_2   0.629506 0.925720 0.500499 -0.507952
N8    N     N_2   0.376843 0.076587 0.554157 -0.512649
N9    N     N_2   0.376411 0.922095 0.546925 -0.507647
N10   N     N_2   0.628934 0.078419 0.490692 -0.506839
N11   N     N_R   0.500000 0.316380 0.500000 -0.205221
N12   N     N_2   0.721493 0.534238 0.706787 -0.534106
N13   N     N_2   0.284870 0.557380 0.692132 -0.510645
N14   N     N_2   0.298941 0.452860 0.269763 -0.529618
N15   N     N_2   0.695824 0.458018 0.270682 -0.535404
N16   N     N_2   0.927192 0.623987 0.371894 -0.520064
N17   N     N_2   0.071595 0.377008 0.539559 -0.516755
N18   N     N_2   0.075943 0.620828 0.367395 -0.515312
O1    O     O_R   0.400190 0.561980 0.499980 -0.470301
O2    O     O_R   0.599810 0.438020 0.500020 -0.486936
O3    O     O_R   0.599810 0.561980 0.500020 -0.491851
O4    O     O_R   0.400190 0.438020 0.499980 -0.526944
O5    O     O_R   0.500000 0.561950 0.319660 -0.480441
O6    O     O_R   0.500000 0.438050 0.680340 -0.475277
O7    O     O_R   0.500000 0.561950 0.680340 -0.486472
O8    O     O_R   0.500000 0.438050 0.319660 -0.542515

loop_
_geom_bond_atom_site_label_1
_geom_bond_atom_site_label_2
_ccdc_geom_bond_type
C25   C31   A    
C15   C18   A    
C66   C68   A    
Cu2   N11   S    
C26   C32   A    
C59   H50   S    
C5    N5    S    
C27   C29   A    
C63   H70   S    
C57   H41   S    
C4    N4    S    
C35   C36   A    
C8    H6    S    
C54   N17   S    
C4    C8    A    
C30   H1    S    
C10   H8    S    
C61   H61   S    
C21   C36   S    
H53   N5    S    
C53   H29   S    
C7    C11   A    
C12   C23   S    
C11   C19   S    
C43   H2    S    
C13   C18   S    
C34   C40   A    
C62   H63   S    
C60   H55   S    
C38   C42   A    
C3    C7    A    
H40   N2    S    
C51   H20   S    
C57   H42   S    
H27   N16   S    
C57   N2    S    
C27   H34   S    
C58   H48   S    
C64   N9    S    
C52   H25   S    
H31   N17   S    
Cu1   O3    S    
C49   H11   S    
C60   H54   S    
C17   N10   S    
Cu2   O4    S    
C50   H15   S    
C51   H21   S    
H22   N15   S    
H71   N9    S    
C21   O7    A    
C41   N15   S    
C41   C46   A    
C31   C33   A    
C52   H24   S    
C7    H5    S    
C65   H77   S    
C45   N16   S    
H44   N3    S    
C61   H59   S    
H66   N8    S    
C59   H52   S    
C50   N13   S    
C53   H30   S    
C55   H39   S    
C16   N9    S    
C58   H46   S    
C14   C17   A    
Cu1   Cu2   S    
Cu1   O5    S    
C55   N18   S    
C65   N10   S    
C59   N4    S    
C1    C34   S    
C12   O3    A    
C2    C45   A    
C25   C29   A    
C24   C35   A    
C14   N7    S    
C34   C39   A    
Cu1   N1    S    
C32   C35   A    
C54   H33   S    
C15   N8    S    
C2    C67   A    
H75   N10   S    
H58   N6    S    
C12   O2    A    
C64   H74   S    
H18   N14   S    
C58   H47   S    
C33   C37   A    
C55   H37   S    
C28   H23   S    
H36   N18   S    
C62   H65   S    
C25   H67   S    
C5    C9    A    
C58   N3    S    
C52   N15   S    
C9    C11   A    
C20   O5    A    
C6    N11   A    
C40   C44   A    
C17   C18   A    
C62   N7    S    
C51   N14   S    
Cu1   O1    S    
C32   C37   A    
C48   C68   S    
C26   H78   S    
Cu2   O6    S    
C49   N12   S    
H14   N13   S    
C61   H60   S    
C50   H17   S    
C22   H45   S    
C26   C30   A    
H49   N4    S    
C22   C27   A    
C2    C47   S    
C63   H68   S    
H9    N12   S    
C39   N13   S    
C23   C38   A    
C61   N6    S    
C46   H4    S    
C43   C48   A    
C24   H56   S    
C22   C33   A    
C46   C47   A    
C54   H35   S    
C67   N2    S    
C31   C36   A    
C63   H69   S    
C14   C19   A    
C54   H32   S    
C60   H57   S    
C24   C28   A    
C3    N3    S    
C10   C13   A    
C23   C41   A    
C6    C10   A    
C57   H43   S    
C40   N14   S    
C64   H73   S    
C53   H28   S    
C56   C67   A    
C1    O4    A    
C3    N1    A    
H62   N7    S    
C5    N1    A    
C49   H10   S    
C66   N18   S    
C55   H38   S    
C49   H13   S    
C28   C30   A    
C9    H7    S    
C60   N5    S    
C29   H12   S    
C56   C68   A    
C51   H19   S    
C20   C37   S    
C62   H64   S    
C20   O8    A    
C64   H72   S    
C16   C19   A    
C56   N17   S    
C1    O1    A    
C52   H26   S    
C42   C47   A    
Cu2   O2    S    
C44   H3    S    
C42   H80   S    
C50   H16   S    
C59   H51   S    
C8    C13   A    
C44   C48   A    
C53   N16   S    
C38   N12   S    
C39   C43   A    
C21   O6    A    
C45   C66   A    
C65   H79   S    
C4    N11   A    
Cu1   O7    S    
C63   N8    S    
C65   H76   S    
Cu2   O8    S    
C6    N6    S    
C15   C16   A    
