data_mof_unit_7295.cif
_audit_creation_date              2012-10-26T21:25:52-0400
_audit_creation_method            fapswitch 2.2
_symmetry_space_group_name_H-M    P1
_symmetry_Int_Tables_number       1
_space_group_crystal_system       triclinic
_cell_length_a                    10.8979
_cell_length_b                    10.897257
_cell_length_c                    12.70514
_cell_angle_alpha                 91.529678
_cell_angle_beta                  91.687859
_cell_angle_gamma                 90.150431
_cell_volume                      1507.62617153

loop_
_atom_site_label
_atom_site_type_symbol
_atom_type_description
_atom_site_fract_x
_atom_site_fract_y
_atom_site_fract_z
_atom_type_partial_charge
Br1   Br    Br    0.344701 0.124208 0.988027 -0.576732
Br2   Br    Br    0.655252 0.875790 0.011963 -0.576712
C1    C     C_R   0.261881 0.501937 0.501666 0.541165
C2    C     C_R   0.883347 0.553184 0.221295 -0.084958
C3    C     C_R   0.121956 0.538100 0.703011 0.055507
C4    C     C_R   0.878047 0.461878 0.296992 0.055511
C5    C     C_R   0.172653 0.653379 0.731063 -0.052272
C6    C     C_R   0.827266 0.346594 0.268997 -0.052206
C7    C     C_R   0.217531 0.676799 0.833824 -0.096876
C8    C     C_R   0.782325 0.323122 0.166254 -0.096835
C9    C     C_R   0.211144 0.585700 0.908954 -0.107938
C10   C     C_R   0.788739 0.414184 0.091086 -0.107868
C11   C     C_R   0.936250 0.512438 0.592762 -0.150936
C12   C     C_R   0.738119 0.498064 0.498334 0.541158
C13   C     C_R   0.063752 0.487572 0.407237 -0.150935
C14   C     C_R   0.871730 0.496600 0.496274 -0.006050
C15   C     C_R   0.128272 0.503404 0.503726 -0.006044
C16   C     C_R   0.502019 0.261885 0.501834 0.540653
C17   C     C_R   0.497977 0.738114 0.498166 0.540661
C18   C     C_R   0.936654 0.483255 0.402170 -0.036634
C19   C     C_R   0.063349 0.516749 0.597829 -0.036648
C20   C     C_2   0.465214 0.466207 0.031621 -0.187080
C21   C     C_2   0.534763 0.533805 0.968379 -0.187066
C22   C     C_1   0.525256 0.524967 0.852667 0.161441
C23   C     C_R   0.496316 0.871717 0.495894 -0.007683
C24   C     C_1   0.474733 0.475038 0.147333 0.161425
C25   C     C_R   0.667535 0.217119 0.837440 -0.119860
C26   C     C_R   0.332444 0.782866 0.162569 -0.119863
C27   C     C_R   0.645290 0.175455 0.733664 -0.055353
C28   C     C_R   0.354693 0.824534 0.266344 -0.055355
C29   C     C_R   0.532403 0.120244 0.704434 0.027928
C30   C     C_R   0.467575 0.879755 0.295566 0.027924
C31   C     C_R   0.442621 0.106424 0.780396 -0.057418
C32   C     C_R   0.557346 0.893580 0.219599 -0.057419
C33   C     C_R   0.465416 0.147552 0.884299 0.190826
C34   C     C_R   0.503673 0.128282 0.504106 -0.007685
C35   C     C_R   0.534546 0.852448 0.115697 0.190827
C36   C     C_R   0.577974 0.202585 0.912763 -0.050901
C37   C     C_R   0.421995 0.797406 0.087240 -0.050902
C38   C     C_R   0.509211 0.935741 0.592770 -0.146667
C39   C     C_R   0.490776 0.064258 0.407230 -0.146674
C40   C     C_R   0.486203 0.937174 0.401615 -0.035643
C41   C     C_R   0.513782 0.062825 0.598385 -0.035645
C42   C     C_R   0.161627 0.470570 0.881275 -0.108963
C43   C     C_R   0.838360 0.529332 0.118704 -0.108930
C44   C     C_R   0.116700 0.446762 0.778667 -0.084920
Cu1   Cu    Cu3+1 0.492140 0.492110 0.395880 0.996874
Cu2   Cu    Cu3+1 0.507860 0.507890 0.604120 0.996885
H1    H     H_    0.596136 0.232961 0.993371 0.135904
H2    H     H_    0.398566 0.402260 0.996325 0.167005
H3    H     H_    0.755067 0.258722 0.859640 0.106235
H4    H     H_    0.244918 0.741254 0.140374 0.106223
H5    H     H_    0.716477 0.184206 0.676565 0.110995
H6    H     H_    0.283515 0.815777 0.323448 0.110999
H7    H     H_    0.356302 0.061360 0.759268 0.128222
H8    H     H_    0.643661 0.938649 0.240720 0.128217
H9    H     H_    0.518137 0.886716 0.665789 0.161182
H10   H     H_    0.481849 0.113283 0.334212 0.161170
H11   H     H_    0.244305 0.604013 0.988735 0.106540
H12   H     H_    0.403830 0.767024 0.006635 0.135930
H13   H     H_    0.755523 0.395830 0.011320 0.106514
H14   H     H_    0.156863 0.400254 0.939635 0.141426
H15   H     H_    0.843142 0.599621 0.060315 0.141383
H16   H     H_    0.076287 0.357998 0.758443 0.113053
H17   H     H_    0.923821 0.641954 0.241476 0.113032
H18   H     H_    0.175656 0.725230 0.673864 0.103451
H19   H     H_    0.824229 0.274768 0.326227 0.103426
H20   H     H_    0.255767 0.766007 0.855400 0.125546
H21   H     H_    0.744003 0.233898 0.144727 0.125509
H22   H     H_    0.887684 0.523736 0.665683 0.147114
H23   H     H_    0.112317 0.476274 0.334315 0.147104
H24   H     H_    0.601410 0.597751 0.003675 0.167014
N1    N     N_1   0.480320 0.480250 0.239400 -0.180197
N2    N     N_1   0.519680 0.519750 0.760600 -0.180197
O1    O     O_R   0.313000 0.493330 0.412070 -0.510565
O2    O     O_R   0.687000 0.506670 0.587930 -0.510562
O3    O     O_R   0.326280 0.506660 0.587930 -0.488872
O4    O     O_R   0.673720 0.493340 0.412070 -0.488874
O5    O     O_R   0.493370 0.312980 0.412070 -0.505652
O6    O     O_R   0.506630 0.687020 0.587930 -0.505642
O7    O     O_R   0.506650 0.326310 0.587930 -0.493874
O8    O     O_R   0.493350 0.673690 0.412070 -0.493872

loop_
_geom_bond_atom_site_label_1
_geom_bond_atom_site_label_2
_ccdc_geom_bond_type
C31   H7    S    
C32   H8    S    
C25   C27   A    
C32   C35   A    
C39   C40   A    
Cu2   O2    S    
Cu1   O5    S    
C16   O7    A    
C36   H1    S    
C28   H6    S    
C29   C41   S    
C39   H10   S    
C23   C38   A    
C2    H17   S    
C11   H22   S    
C25   C36   A    
C24   N1    T    
Cu2   O7    S    
C5    C7    A    
Cu1   O8    S    
C38   C41   A    
C25   H3    S    
C16   O5    A    
C21   C22   S    
C29   C31   A    
C17   O8    A    
C1    O1    A    
C20   H2    S    
C34   C39   A    
C9    H11   S    
C42   C44   A    
C2    C43   A    
C13   C18   A    
C35   C37   A    
Cu2   N2    S    
C33   C36   A    
Cu1   N1    S    
C2    C4    A    
C3    C5    A    
C4    C6    A    
C26   C37   A    
C42   H14   S    
C43   H15   S    
C15   C19   A    
C44   H16   S    
C12   O2    A    
Cu2   O3    S    
Cu1   Cu2   S    
C14   C18   A    
C11   C19   A    
C9    C42   A    
C7    C9    A    
C8    C10   A    
C12   C14   S    
C1    O3    A    
C13   H23   S    
Br1   C33   S    
C13   C15   A    
C38   H9    S    
C21   H24   S    
C10   C43   A    
C23   C40   A    
C4    C18   S    
C3    C44   A    
Cu2   O6    S    
C26   C28   A    
C7    H20   S    
Cu1   O1    S    
C27   C29   A    
C5    H18   S    
C28   C30   A    
C10   H13   S    
C26   H4    S    
Br2   C35   S    
C22   N2    T    
C27   H5    S    
C37   H12   S    
C31   C33   A    
C1    C15   S    
C12   O4    A    
C17   O6    A    
C17   C23   S    
C8    H21   S    
C3    C19   S    
C6    H19   S    
C6    C8    A    
C20   C24   S    
C11   C14   A    
C30   C40   S    
C20   C21   D    
C34   C41   A    
Cu1   O4    S    
C16   C34   S    
C30   C32   A    
