data_mof_unit_17633.cif
_audit_creation_date              2012-12-10T19:12:18-0500
_audit_creation_method            fapswitch 2.2
_symmetry_space_group_name_H-M    P1
_symmetry_Int_Tables_number       1
_space_group_crystal_system       triclinic
_cell_length_a                    7.79317
_cell_length_b                    9.095834
_cell_length_c                    16.931648
_cell_angle_alpha                 89.597903
_cell_angle_beta                  91.145431
_cell_angle_gamma                 89.973339
_cell_volume                      1199.93671339

loop_
_atom_site_label
_atom_site_type_symbol
_atom_type_description
_atom_site_fract_x
_atom_site_fract_y
_atom_site_fract_z
_atom_type_partial_charge
C1    C     C_R   0.500001 0.220048 0.499991 0.848000
C2    C     C_R   0.499999 0.779952 0.500009 0.848000
C3    C     C_R   0.516408 0.488631 0.651472 0.863633
C4    C     C_R   0.483592 0.511369 0.348528 0.863633
C5    C     C_R   0.514622 0.464108 0.737630 -0.161215
C6    C     C_R   0.485378 0.535891 0.262370 -0.161215
C7    C     C_R   0.375704 0.391069 0.774059 0.284374
C8    C     C_R   0.624296 0.608931 0.225940 0.284374
C9    C     C_R   0.373273 0.377193 0.856557 0.324849
C10   C     C_R   0.626727 0.622806 0.143443 0.324849
C11   C     C_R   0.507608 0.434851 0.902881 0.260239
C12   C     C_R   0.492392 0.565149 0.097119 0.260238
C13   C     C_R   0.655636 0.490688 0.866009 -0.118979
C14   C     C_R   0.344364 0.509311 0.133991 -0.118979
C15   C     C_R   0.655439 0.509055 0.784002 -0.321252
C16   C     C_R   0.344561 0.490945 0.215997 -0.321252
C17   C     C_1   0.500023 0.065374 0.500000 -0.123289
C18   C     C_1   0.499977 0.934626 0.499999 -0.123290
Cu1   Cu    Cu3+1 0.669080 0.500010 0.500000 1.078674
Cu2   Cu    Cu3+1 0.330920 0.499990 0.500000 1.078674
H1    H     H_    0.766708 0.556603 0.756098 0.197550
H2    H     H_    0.233292 0.443396 0.243901 0.197550
N1    N     N_1   0.076820 0.499970 0.500010 -0.010416
N2    N     N_1   0.923180 0.500030 0.499990 -0.010416
N3    N     N_2   0.490009 0.437145 0.986056 -0.135489
N4    N     N_2   0.509991 0.562854 0.013944 -0.135490
O1    O     O_R   0.642760 0.288400 0.500000 -0.578332
O2    O     O_R   0.357240 0.711600 0.500000 -0.578332
O3    O     O_R   0.357190 0.288380 0.500000 -0.564150
O4    O     O_R   0.642810 0.711620 0.500000 -0.564149
O5    O     O_R   0.658410 0.498660 0.613920 -0.581870
O6    O     O_R   0.341590 0.501340 0.386080 -0.581870
O7    O     O_R   0.372840 0.498650 0.613930 -0.543795
O8    O     O_R   0.627160 0.501350 0.386070 -0.543795
Cl1   Cl    Cl    0.793322 0.690428 0.281788 -0.521833
Cl2   Cl    Cl    0.206678 0.309572 0.718212 -0.521833
Cl3   Cl    Cl    0.798641 0.713363 0.097211 -0.459012
Cl4   Cl    Cl    0.201359 0.286636 0.902788 -0.459011
C19   C     C_2   0.815957 0.520315 0.910822 0.620282
H3    H     H_    0.913444 0.591396 0.886195 0.093083
O9    O     O_2   0.844576 0.458923 0.973987 -0.451051
C20   C     C_2   0.184043 0.479684 0.089178 0.620282
H4    H     H_    0.086556 0.408603 0.113805 0.093083
O10   O     O_2   0.155424 0.541075 0.026013 -0.451052

loop_
_geom_bond_atom_site_label_1
_geom_bond_atom_site_label_2
_ccdc_geom_bond_type
C2    O2    A    
N1    N2    T    
C20   O10   D    
C2    C18   S    
C11   C13   A    
C7    Cl2   S    
C1    C17   S    
Cu1   Cu2   S    
Cu2   N1    S    
C14   C20   S    
C2    O4    A    
Cu1   O5    S    
C1    O3    A    
Cu1   N2    S    
C5    C7    A    
C19   O9    D    
C3    O5    A    
C9    C11   A    
C4    O6    A    
C10   C12   A    
C10   Cl3   S    
Cu2   O7    S    
C4    C6    S    
C9    Cl4   S    
C12   C14   A    
C17   C18   T    
C4    O8    A    
Cu2   O3    S    
C13   C15   A    
C14   C16   A    
C13   C19   S    
C5    C15   A    
C20   H4    S    
C11   N3    S    
C6    C16   A    
C7    C9    A    
C15   H1    S    
Cu1   O1    S    
C8    C10   A    
Cu2   O6    S    
C12   N4    S    
C19   H3    S    
C1    O1    A    
C3    O7    A    
C6    C8    A    
Cu2   O2    S    
N3    N4    D    
Cu1   O4    S    
Cu1   O8    S    
C16   H2    S    
C3    C5    S    
C8    Cl1   S    
