data_mof_unit_11490.cif
_audit_creation_date              2012-12-11T16:28:25-0500
_audit_creation_method            fapswitch 2.2
_symmetry_space_group_name_H-M    P1
_symmetry_Int_Tables_number       1
_space_group_crystal_system       triclinic
_cell_length_a                    16.733073
_cell_length_b                    7.255127
_cell_length_c                    15.060913
_cell_angle_alpha                 89.545983
_cell_angle_beta                  94.676053
_cell_angle_gamma                 89.571922
_cell_volume                      1822.20000896

loop_
_atom_site_label
_atom_site_type_symbol
_atom_type_description
_atom_site_fract_x
_atom_site_fract_y
_atom_site_fract_z
_atom_type_partial_charge
O1    O     O_R   0.663460 0.361760 0.165970 -0.542449
O2    O     O_R   0.336540 0.638240 0.834030 -0.542448
O3    O     O_R   0.836540 0.861760 0.334030 -0.520267
O4    O     O_R   0.163460 0.138240 0.665970 -0.520267
O5    O     O_R   0.827100 0.689870 0.163730 -0.525416
O6    O     O_R   0.172900 0.310130 0.836270 -0.525416
O7    O     O_R   0.672900 0.189870 0.336270 -0.534065
O8    O     O_R   0.327100 0.810130 0.663730 -0.534065
C1    C     C_R   0.853898 0.523012 0.144299 0.759303
C2    C     C_R   0.146102 0.476988 0.855701 0.759304
C3    C     C_R   0.645913 0.023244 0.355433 0.761438
C4    C     C_R   0.354086 0.976756 0.644567 0.761437
O9    O     O_R   0.663490 0.691370 0.155500 -0.516479
O10   O     O_R   0.336510 0.308630 0.844500 -0.516479
O11   O     O_R   0.836510 0.191370 0.344500 -0.539185
O12   O     O_R   0.163490 0.808630 0.655500 -0.539185
O13   O     O_R   0.671770 0.863320 0.325740 -0.519822
O14   O     O_R   0.328230 0.136680 0.674260 -0.519822
O15   O     O_R   0.828230 0.363320 0.174260 -0.528218
O16   O     O_R   0.171770 0.636680 0.825740 -0.528217
C5    C     C_R   0.636998 0.523984 0.132378 0.899822
C6    C     C_R   0.363002 0.476015 0.867622 0.899822
C7    C     C_R   0.862745 0.021548 0.367672 0.905242
C8    C     C_R   0.137255 0.978452 0.632328 0.905242
H1    H     H_    0.113698 0.072926 0.219045 0.136279
H2    H     H_    0.886301 0.927074 0.780955 0.136279
H3    H     H_    0.384895 0.532936 0.281308 0.135034
H4    H     H_    0.615104 0.467062 0.718692 0.135034
O17   O     O_3   0.752910 0.528800 0.305860 -0.379661
O18   O     O_3   0.247090 0.471200 0.694140 -0.379661
O19   O     O_3   0.747090 0.028800 0.194140 -0.379732
O20   O     O_3   0.252910 0.971200 0.805860 -0.379732
V1    V     V_3+5 0.749460 0.803010 0.239640 1.553173
V2    V     V_3+5 0.250540 0.196990 0.760360 1.553172
V3    V     V_3+5 0.750540 0.303010 0.260360 1.519754
V4    V     V_3+5 0.249460 0.696990 0.739640 1.519754
C9    C     C_1   0.469132 0.994557 0.530478 0.017312
C10   C     C_1   0.530868 0.005442 0.469522 0.017312
C11   C     C_1   0.030946 0.494739 0.969620 0.017018
C12   C     C_1   0.969054 0.505261 0.030380 0.017017
C13   C     C_R   0.026041 0.041199 0.314569 0.293371
C14   C     C_R   0.973958 0.958801 0.685431 0.293370
C15   C     C_R   0.472944 0.531556 0.185083 0.293812
C16   C     C_R   0.527056 0.468443 0.814917 0.293812
C17   C     C_R   0.103959 0.061446 0.289122 -0.303045
C18   C     C_R   0.896041 0.938554 0.710878 -0.303045
C19   C     C_R   0.395168 0.516226 0.211707 -0.300633
C20   C     C_R   0.604832 0.483772 0.788293 -0.300633
C21   C     C_R   0.169626 0.067678 0.351529 0.305855
C22   C     C_R   0.830374 0.932322 0.648471 0.305855
C23   C     C_R   0.330371 0.479016 0.151076 0.304336
C24   C     C_R   0.669629 0.520984 0.848924 0.304336
C25   C     C_R   0.158257 0.051659 0.442942 0.302286
C26   C     C_R   0.841743 0.948341 0.557058 0.302286
C27   C     C_R   0.342410 0.459339 0.060090 0.302909
C28   C     C_R   0.657590 0.540662 0.939910 0.302909
C29   C     C_R   0.079624 0.022118 0.472204 -0.094055
C30   C     C_R   0.920376 0.977882 0.527796 -0.094055
C31   C     C_R   0.420569 0.484228 0.028944 -0.093728
C32   C     C_R   0.579431 0.515772 0.971056 -0.093728
C33   C     C_R   0.012085 0.023984 0.407169 -0.033998
C34   C     C_R   0.987915 0.976016 0.592831 -0.033997
C35   C     C_R   0.487532 0.511501 0.093032 -0.033767
C36   C     C_R   0.512468 0.488498 0.906968 -0.033767
C37   C     C_R   0.067263 0.992673 0.564514 -0.111595
C38   C     C_R   0.932737 0.007327 0.435486 -0.111595
C39   C     C_R   0.433074 0.480172 0.935816 -0.107296
C40   C     C_R   0.566926 0.519828 0.064184 -0.107296
C41   C     C_1   0.416725 0.985735 0.582312 -0.170265
C42   C     C_1   0.583275 0.014265 0.417688 -0.170265
C43   C     C_1   0.083456 0.486125 0.917914 -0.168912
C44   C     C_1   0.916544 0.513875 0.082086 -0.168913
O21   O     O_3   0.223653 0.066920 0.504507 -0.667209
H5    H     H_    0.271114 0.112332 0.476142 0.321228
O22   O     O_3   0.776347 0.933079 0.495493 -0.667208
H6    H     H_    0.728886 0.887668 0.523858 0.321227
O23   O     O_3   0.278563 0.410942 0.001108 -0.666444
H7    H     H_    0.231239 0.377291 0.032897 0.320207
O24   O     O_3   0.721437 0.589062 0.998892 -0.666444
H8    H     H_    0.768761 0.622708 0.967103 0.320207
O25   O     O_3   0.753717 0.913022 0.675383 -0.651512
H9    H     H_    0.755963 0.905553 0.741327 0.311144
O26   O     O_3   0.246283 0.086979 0.324617 -0.651512
H10   H     H_    0.244037 0.094447 0.258673 0.311144
O27   O     O_3   0.746037 0.536590 0.820876 -0.654113
H11   H     H_    0.744244 0.519152 0.755490 0.307655
O28   O     O_3   0.253963 0.463412 0.179125 -0.654112
H12   H     H_    0.255756 0.480849 0.244510 0.307656
O29   O     O_3   0.963680 0.033704 0.248433 -0.650026
H13   H     H_    0.983956 0.049017 0.188760 0.287434
O30   O     O_3   0.036320 0.966297 0.751567 -0.650026
H14   H     H_    0.016044 0.950984 0.811240 0.287435
O31   O     O_3   0.534411 0.572103 0.248879 -0.650297
H15   H     H_    0.513762 0.581514 0.308582 0.287579
O32   O     O_3   0.465589 0.427894 0.751121 -0.650297
H16   H     H_    0.486238 0.418482 0.691418 0.287579

loop_
_geom_bond_atom_site_label_1
_geom_bond_atom_site_label_2
_ccdc_geom_bond_type
C30   C34   A    
C13   O29   S    
O28   H12   S    
C10   C42   T    
O1    C5    A    
O31   H15   S    
C27   C31   A    
O21   H5    S    
O3    C7    A    
O32   H16   S    
C1    C44   S    
C13   C33   A    
C4    C41   S    
O25   H9    S    
C3    C42   S    
C15   C35   A    
O23   H7    S    
C16   C36   A    
O7    C3    A    
C22   C26   A    
C28   O24   S    
C7    C38   S    
C24   O27   S    
C9    C41   T    
C14   C18   A    
O4    C8    A    
O3    V1    S    
O2    V4    S    
C14   O30   S    
O8    V4    S    
C31   C39   A    
C33   C38   A    
C1    O15   A    
C3    O13   A    
C2    O16   A    
O5    V1    S    
O2    C6    A    
O19   V1    S    
C14   C34   A    
C2    C43   S    
O11   C7    A    
O12   C8    A    
O13   V1    S    
O11   V3    S    
C30   C38   A    
O4    V2    S    
C36   C39   A    
C16   C20   A    
C23   O28   S    
C11   C12   S    
C25   C29   A    
C19   C23   A    
O27   H11   S    
O6    V2    S    
O20   V2    S    
O22   H6    S    
O5    C1    A    
C9    C10   S    
O26   H10   S    
C17   C21   A    
O8    C4    A    
O9    C5    A    
O14   V2    S    
C8    C37   S    
C5    C40   S    
H1    C17   S    
O30   H14   S    
O1    V3    S    
C26   C30   A    
H3    C19   S    
O17   V3    S    
C35   C40   A    
H4    C20   S    
C11   C43   T    
C12   C44   T    
C34   C37   A    
O7    V3    S    
C25   O21   S    
C29   C37   A    
O10   V2    S    
C29   C33   A    
C18   C22   A    
C31   C35   A    
O18   V4    S    
C32   C36   A    
C21   O26   S    
C16   O32   S    
O15   V3    S    
O12   V4    S    
O10   C6    A    
C21   C25   A    
C15   O31   S    
C23   C27   A    
C6    C39   S    
O6    C2    A    
H2    C18   S    
O24   H8    S    
O16   V4    S    
C28   C32   A    
C20   C24   A    
C32   C40   A    
O9    V1    S    
C4    O14   A    
C13   C17   A    
O29   H13   S    
C15   C19   A    
C27   O23   S    
C24   C28   A    
C22   O25   S    
C26   O22   S    
