data_mof_unit_19817.cif
_audit_creation_date              2012-12-10T16:47:50-0500
_audit_creation_method            fapswitch 2.2
_symmetry_space_group_name_H-M    P1
_symmetry_Int_Tables_number       1
_space_group_crystal_system       triclinic
_cell_length_a                    7.886301
_cell_length_b                    8.684125
_cell_length_c                    10.508438
_cell_angle_alpha                 94.325804
_cell_angle_beta                  81.589425
_cell_angle_gamma                 93.550414
_cell_volume                      708.963421624

loop_
_atom_site_label
_atom_site_type_symbol
_atom_type_description
_atom_site_fract_x
_atom_site_fract_y
_atom_site_fract_z
_atom_type_partial_charge
C1    C     C_R   0.544574 0.793450 0.492282 0.924442
C2    C     C_2   0.567738 0.952999 0.469343 -0.021315
C3    C     C_3   0.923617 0.436583 0.980456 -0.721097
C4    C     C_3   0.785898 0.962911 0.283899 -0.745480
C5    C     C_3   0.166000 0.988120 0.631920 -0.647432
C6    C     C_3   0.971831 0.327030 0.262109 -0.670362
C7    C     C_2   0.429489 0.043074 0.487847 -0.038609
C8    C     C_R   0.497752 0.519773 0.738447 0.925919
C9    C     C_R   0.455523 0.206051 0.494998 0.894602
C10   C     C_R   0.504289 0.497958 0.259678 0.905288
C11   C     C_2   0.653671 0.554241 0.042275 0.204003
C12   C     C_2   0.511562 0.511128 0.122586 -0.374192
C13   C     C_2   0.636230 0.613361 0.917778 0.124470
C14   C     C_2   0.490680 0.585164 0.869646 -0.110172
H1    H     H_    0.386040 0.507901 0.091884 0.160828
H2    H     H_    0.776645 0.835130 0.266648 0.244498
H3    H     H_    0.184296 0.024277 0.437746 0.228844
H4    H     H_    0.038653 0.926792 0.631999 0.237257
H5    H     H_    0.146470 0.109447 0.670027 0.243303
H6    H     H_    0.238965 0.930488 0.695813 0.271638
H7    H     H_    0.148151 0.328757 0.381152 0.280013
H8    H     H_    0.053028 0.245507 0.196908 0.189347
H9    H     H_    0.994142 0.443067 0.224596 0.257608
H10   H     H_    0.836730 0.283908 0.264928 0.287604
H11   H     H_    0.988017 0.627275 0.592529 0.196583
H12   H     H_    0.885337 0.645371 0.087616 0.261466
H13   H     H_    0.054306 0.431960 0.006672 0.239480
H14   H     H_    0.938778 0.477483 0.881583 0.267943
H15   H     H_    0.862112 0.317937 0.980236 0.250906
H16   H     H_    0.828494 0.984186 0.474361 0.248715
H17   H     H_    0.920987 0.002213 0.252841 0.244033
H18   H     H_    0.701691 0.015044 0.224636 0.248127
I1    I     I_    0.798298 0.804225 0.853122 -0.429907
I2    I     I_    0.292275 0.741177 0.935630 -0.412900
N1    N     N_2   0.950320 0.457950 0.466680 0.011042
N2    N     N_2   0.049680 0.542050 0.533320 -0.139270
N3    N     N_2   0.821668 0.539876 0.072208 -0.289294
N4    N     N_2   0.736895 0.008693 0.419140 -0.280352
N5    N     N_2   0.255289 0.982244 0.501346 -0.292187
N6    N     N_2   0.020221 0.336348 0.388628 -0.225332
O1    O     O_R   0.389250 0.738570 0.508180 -0.581675
O2    O     O_R   0.678390 0.711630 0.486820 -0.633781
O3    O     O_R   0.355470 0.513470 0.691600 -0.588238
O4    O     O_R   0.644610 0.486520 0.670240 -0.609473
O5    O     O_R   0.321610 0.288370 0.513180 -0.660575
O6    O     O_R   0.610750 0.261430 0.491820 -0.575713
O7    O     O_R   0.355390 0.513480 0.329760 -0.637266
O8    O     O_R   0.644530 0.486530 0.308400 -0.603615
Zn1   Zn    Zn3+2 0.306940 0.517990 0.514260 0.963437
Zn2   Zn    Zn3+2 0.693060 0.482010 0.485740 0.976840

loop_
_geom_bond_atom_site_label_1
_geom_bond_atom_site_label_2
_ccdc_geom_bond_type
C14   I2    S    
C8    C14   S    
C11   C12   D    
C8    O3    A    
H12   N3    S    
C13   I1    S    
C5    H5    S    
O6    Zn2   S    
C2    C7    D    
C12   H1    S    
O5    Zn1   S    
C6    H10   S    
N1    Zn2   S    
C3    H13   S    
N1    N6    S    
C9    O6    A    
O7    Zn1   S    
C5    H6    S    
C13   C14   D    
C9    O5    A    
O8    Zn2   S    
C11   C13   S    
C3    N3    S    
C4    H18   S    
H7    N6    S    
C10   C12   S    
O2    Zn2   S    
C6    H9    S    
C1    O1    A    
C3    H14   S    
C4    N4    S    
C5    N5    S    
C10   O8    A    
C6    N6    S    
C4    H17   S    
C4    H2    S    
H11   N2    S    
C6    H8    S    
C7    C9    S    
C1    O2    A    
H16   N4    S    
C3    H15   S    
C1    C2    S    
H3    N5    S    
O4    Zn2   S    
C10   O7    A    
C11   N3    S    
C2    N4    S    
O3    Zn1   S    
C7    N5    S    
C5    H4    S    
O1    Zn1   S    
N2    Zn1   S    
C8    O4    A    
N1    N2    D    
