data_mof_unit_40937.cif
_audit_creation_date              2012-12-10T18:11:46-0500
_audit_creation_method            fapswitch 2.2
_symmetry_space_group_name_H-M    P1
_symmetry_Int_Tables_number       1
_space_group_crystal_system       triclinic
_cell_length_a                    10.488553
_cell_length_b                    12.621752
_cell_length_c                    13.130714
_cell_angle_alpha                 82.209256
_cell_angle_beta                  90.643026
_cell_angle_gamma                 102.767557
_cell_volume                      1679.35144189

loop_
_atom_site_label
_atom_site_type_symbol
_atom_type_description
_atom_site_fract_x
_atom_site_fract_y
_atom_site_fract_z
_atom_type_partial_charge
C1    C     C_R   0.480290 0.438728 0.691160 0.846015
C2    C     C_R   0.467463 0.447061 0.973548 0.083950
C3    C     C_R   0.434276 0.466745 0.869609 0.085874
C4    C     C_R   0.742440 0.501000 0.500266 0.861223
C5    C     C_R   0.465529 0.529248 0.036279 0.077615
C6    C     C_R   0.410693 0.620351 0.000109 0.175829
C7    C     C_R   0.360787 0.629752 0.901415 -0.255496
C8    C     C_R   0.372438 0.553968 0.836742 -0.205278
C9    C     C_R   0.518908 0.524088 0.133718 -0.260544
C10   C     C_R   0.447745 0.686681 0.164909 -0.209889
C11   C     C_R   0.465829 0.399393 0.800854 -0.111801
C12   C     C_3   0.063218 0.579209 0.427379 -0.176477
C13   C     C_R   0.320634 0.088391 0.345465 -0.310686
C14   C     C_R   0.653068 0.799410 0.630681 0.021599
C15   C     C_R   0.684465 0.903670 0.659725 -0.253064
C16   C     C_R   0.512992 0.561094 0.308784 0.855646
C17   C     C_R   0.626331 0.985161 0.610425 -0.198837
C18   C     C_R   0.536145 0.962462 0.531139 0.016180
C19   C     C_R   0.507743 0.854719 0.504317 0.237483
C20   C     C_R   0.473240 0.041795 0.477667 -0.015988
C21   C     C_R   0.383590 0.011687 0.399016 0.198069
C22   C     C_R   0.357852 0.905477 0.374214 -0.299629
C23   C     C_3   0.987740 0.599028 0.520694 -0.131984
C24   C     C_R   0.419378 0.828414 0.426005 -0.213233
C25   C     C_R   0.495525 0.150574 0.498521 -0.051257
C26   C     C_R   0.347057 0.194359 0.369819 0.005328
C27   C     C_R   0.257611 0.499050 0.499716 0.842548
C28   C     C_3   0.937064 0.421135 0.572550 -0.178714
C29   C     C_3   0.049181 0.517570 0.592743 -0.176587
C30   C     C_3   0.121937 0.497774 0.499440 0.033909
C31   C     C_3   0.012493 0.401305 0.479227 -0.136235
C32   C     C_3   0.951084 0.482775 0.407175 -0.176795
C33   C     C_3   0.878266 0.502514 0.500485 0.024476
C34   C     C_R   0.404614 0.699671 0.064142 -0.203743
C35   C     C_R   0.501460 0.596576 0.200068 -0.047104
C36   C     C_R   0.501706 0.300879 0.838375 -0.197056
C37   C     C_R   0.514839 0.272857 0.943208 -0.151099
C38   C     C_R   0.501170 0.346037 0.010412 -0.194973
H1    H     H_    0.093838 0.531357 0.668249 0.127593
H2    H     H_    0.880966 0.357115 0.631740 0.129752
H3    H     H_    0.653831 0.064514 0.636020 0.132284
H4    H     H_    0.753473 0.921264 0.720402 0.148567
H5    H     H_    0.396128 0.748664 0.402871 0.207865
H6    H     H_    0.026582 0.320769 0.462317 0.144005
H7    H     H_    0.906438 0.469001 0.331665 0.133591
H8    H     H_    0.119492 0.643250 0.368269 0.126777
H9    H     H_    0.973700 0.679582 0.537595 0.144078
H10   H     H_    0.433067 0.743343 0.216237 0.146808
H11   H     H_    0.314773 0.696758 0.873518 0.148643
H12   H     H_    0.514240 0.320244 0.090850 0.134854
H13   H     H_    0.361776 0.768923 0.037680 0.134327
H14   H     H_    0.570317 0.461122 0.161920 0.146690
H15   H     H_    0.523817 0.247278 0.786467 0.149915
H16   H     H_    0.541256 0.196263 0.972143 0.141517
H17   H     H_    0.331084 0.563667 0.761098 0.166389
H18   H     H_    0.299731 0.255022 0.329014 0.135494
H19   H     H_    0.289936 0.881762 0.314160 0.147581
H20   H     H_    0.252107 0.066659 0.285302 0.143617
H21   H     H_    0.561903 0.181215 0.556300 0.123099
H22   H     H_    0.697640 0.735628 0.668898 0.139063
N1    N     N_R   0.432930 0.222190 0.444670 -0.101211
N2    N     N_R   0.566370 0.776980 0.554790 -0.130761
O1    O     O_R   0.467970 0.366730 0.627150 -0.615088
O2    O     O_R   0.510820 0.544830 0.662520 -0.615974
O3    O     O_R   0.664630 0.410960 0.482340 -0.619117
O4    O     O_R   0.707470 0.589060 0.517710 -0.624126
O5    O     O_R   0.489180 0.455170 0.337480 -0.614621
O6    O     O_R   0.532030 0.633270 0.372850 -0.633832
O7    O     O_R   0.292530 0.410940 0.482290 -0.620711
O8    O     O_R   0.335370 0.589040 0.517660 -0.641482
Zn1   Zn    Zn3+2 0.471390 0.381080 0.476380 0.932764
Zn2   Zn    Zn3+2 0.528610 0.618920 0.523620 0.922371

loop_
_geom_bond_atom_site_label_1
_geom_bond_atom_site_label_2
_ccdc_geom_bond_type
C32   H7    S    
C1    C11   S    
C22   H19   S    
C7    C8    A    
C12   C23   S    
C28   C29   S    
C34   H13   S    
C29   C30   S    
C23   C29   S    
C11   C36   A    
C26   N1    A    
C16   C35   S    
C5    C6    A    
C20   C25   A    
C28   H2    S    
C19   N2    A    
C14   N2    A    
C18   C19   A    
O7    Zn1   S    
C36   H15   S    
O4    Zn2   S    
C23   C33   S    
C10   C35   A    
C16   O6    A    
C18   C20   A    
C27   O7    A    
N1    Zn1   S    
C21   C22   A    
C12   C32   S    
C27   C30   S    
C9    H14   S    
C1    O1    A    
C8    H17   S    
C23   H9    S    
C31   H6    S    
N2    Zn2   S    
C7    H11   S    
C12   H8    S    
C3    C8    A    
C13   H20   S    
O3    Zn1   S    
C6    C34   A    
C5    C9    A    
C37   C38   A    
C2    C38   A    
C31   C32   S    
C30   C31   S    
O6    Zn2   S    
C29   H1    S    
C17   C18   A    
C13   C21   A    
C10   C34   A    
C16   O5    A    
C25   N1    A    
C27   O8    A    
C37   H16   S    
O1    Zn1   S    
C28   C33   S    
C10   H10   S    
C22   C24   A    
C13   C26   A    
C2    C5    A    
C1    O2    A    
C15   C17   A    
C4    C33   S    
C36   C37   A    
C12   C30   S    
C28   C31   S    
C15   H4    S    
C26   H18   S    
C6    C7    A    
C38   H12   S    
C14   H22   S    
C32   C33   S    
C2    C3    A    
C4    O4    A    
C4    O3    A    
C19   C24   A    
O5    Zn1   S    
O2    Zn2   S    
C17   H3    S    
C3    C11   A    
C20   C21   A    
C9    C35   A    
C24   H5    S    
C14   C15   A    
O8    Zn2   S    
C25   H21   S    
