data_mof_unit_13062.cif
_audit_creation_date              2012-12-10T20:00:04-0500
_audit_creation_method            fapswitch 2.2
_symmetry_space_group_name_H-M    P1
_symmetry_Int_Tables_number       1
_space_group_crystal_system       triclinic
_cell_length_a                    15.013099
_cell_length_b                    14.168942
_cell_length_c                    8.909401
_cell_angle_alpha                 90.000087
_cell_angle_beta                  90.056076
_cell_angle_gamma                 89.999788
_cell_volume                      1895.20445832

loop_
_atom_site_label
_atom_site_type_symbol
_atom_type_description
_atom_site_fract_x
_atom_site_fract_y
_atom_site_fract_z
_atom_type_partial_charge
C1    C     C_R   0.327757 0.500019 0.499942 0.856275
C2    C     C_R   0.431082 0.895207 0.429425 0.445946
C3    C     C_R   0.499984 0.499992 0.218529 0.942095
C4    C     C_R   0.500016 0.499992 0.781471 0.942093
C5    C     C_R   0.500004 0.053233 0.500007 -0.009413
C6    C     C_R   0.500002 0.946639 0.500006 -0.021010
C7    C     C_1   0.499994 0.499966 0.065355 -0.205010
C8    C     C_1   0.500006 0.499966 0.934645 -0.205011
C9    C     C_R   0.094209 0.579688 0.551886 -0.180005
C10   C     C_R   0.905988 0.420913 0.552373 -0.181358
C11   C     C_R   0.905792 0.579691 0.448137 -0.180013
C12   C     C_R   0.672243 0.500019 0.500058 0.856273
C13   C     C_R   0.094012 0.420916 0.447627 -0.181356
C14   C     C_R   0.186158 0.579843 0.550955 -0.196491
C15   C     C_R   0.814038 0.420574 0.551496 -0.194463
C16   C     C_R   0.813843 0.579846 0.449063 -0.196524
C17   C     C_R   0.185962 0.420576 0.448499 -0.194470
C18   C     C_R   0.232001 0.500129 0.499825 -0.022263
C19   C     C_R   0.767999 0.500129 0.500179 -0.022258
C20   C     C_R   0.048105 0.500321 0.499862 0.118139
C21   C     C_R   0.951895 0.500321 0.500150 0.118145
C22   C     C_3   0.586152 0.082328 0.146418 -0.283292
C23   C     C_R   0.504483 0.204273 0.367744 -0.165150
C24   C     C_3   0.711843 0.944131 0.548856 -0.338610
C25   C     C_3   0.413965 0.082473 0.853786 -0.283170
C26   C     C_3   0.288249 0.944355 0.451364 -0.338532
C27   C     C_R   0.566344 0.795510 0.571339 -0.142593
C28   C     C_R   0.495517 0.204276 0.632260 -0.165229
C29   C     C_R   0.433657 0.795514 0.428664 -0.142497
C30   C     C_R   0.506961 0.104212 0.364377 0.424376
C31   C     C_R   0.568923 0.895206 0.570581 0.445992
C32   C     C_R   0.493039 0.104212 0.635636 0.424340
H1    H     H_    0.059133 0.640906 0.594438 0.130166
H2    H     H_    0.618166 0.756383 0.628413 0.167458
H3    H     H_    0.494004 0.243479 0.736081 0.163985
H4    H     H_    0.381827 0.756392 0.371601 0.167495
H5    H     H_    0.647159 0.087446 0.217317 0.129389
H6    H     H_    0.573823 0.149854 0.086640 0.164449
H7    H     H_    0.598962 0.027793 0.059745 0.237384
H8    H     H_    0.696489 0.980245 0.440866 0.157942
H9    H     H_    0.737880 0.871812 0.527573 0.154758
H10   H     H_    0.765392 0.984890 0.605121 0.194151
H11   H     H_    0.352925 0.087858 0.783014 0.129291
H12   H     H_    0.941227 0.359765 0.594913 0.130937
H13   H     H_    0.426527 0.149896 0.913717 0.164603
H14   H     H_    0.401052 0.027890 0.940340 0.237381
H15   H     H_    0.303733 0.980665 0.559135 0.158025
H16   H     H_    0.262192 0.872093 0.473072 0.154745
H17   H     H_    0.234668 0.985042 0.395053 0.194130
H18   H     H_    0.940867 0.640912 0.405594 0.130167
H19   H     H_    0.058773 0.359770 0.405079 0.130936
H20   H     H_    0.221272 0.641493 0.591991 0.151230
H21   H     H_    0.779076 0.358897 0.592652 0.155770
H22   H     H_    0.778729 0.641498 0.408034 0.151219
H23   H     H_    0.220924 0.358902 0.407333 0.155761
H24   H     H_    0.505994 0.243468 0.263914 0.163979
N1    N     N_R   0.500000 0.252470 0.500000 -0.124975
N2    N     N_R   0.500000 0.747530 0.500000 -0.136135
O1    O     O_R   0.369060 0.579480 0.500010 -0.627993
O2    O     O_3   0.636910 0.942041 0.643958 -0.565178
O3    O     O_3   0.489390 0.054921 0.770089 -0.578177
O4    O     O_3   0.363086 0.942032 0.356061 -0.565204
O5    O     O_R   0.630940 0.420520 0.499990 -0.614356
O6    O     O_R   0.630940 0.579480 0.499990 -0.628000
O7    O     O_R   0.369060 0.420520 0.500010 -0.614364
O8    O     O_R   0.500000 0.579460 0.285340 -0.603203
O9    O     O_R   0.500000 0.420540 0.714660 -0.628102
O10   O     O_R   0.500000 0.579460 0.714660 -0.603203
O11   O     O_R   0.500000 0.420540 0.285340 -0.628100
O12   O     O_3   0.510600 0.054934 0.229917 -0.578194
Zn1   Zn    Zn3+2 0.500000 0.606140 0.500000 0.953033
Zn2   Zn    Zn3+2 0.500000 0.393860 0.500000 0.941843

loop_
_geom_bond_atom_site_label_1
_geom_bond_atom_site_label_2
_ccdc_geom_bond_type
C31   O2    S    
O11   Zn2   S    
C1    O7    A    
C9    C14   A    
C26   H16   S    
C4    O9    A    
O7    Zn2   S    
C24   H10   S    
C11   C16   A    
C14   C18   A    
C9    C20   A    
O8    Zn1   S    
C30   O12   S    
C13   C17   A    
C4    C8    S    
C5    C32   A    
C25   H11   S    
C17   C18   A    
C26   O4    S    
C7    C8    T    
C10   C21   A    
C11   H18   S    
C25   O3    S    
C28   N1    A    
C29   N2    A    
C9    H1    S    
C24   H9    S    
C28   C32   A    
C29   H4    S    
C1    C18   S    
C2    C6    A    
C26   H15   S    
O10   Zn1   S    
C22   H7    S    
C15   H21   S    
C12   C19   S    
C27   H2    S    
C3    O11   A    
C22   O12   S    
C32   O3    S    
C5    C30   A    
C3    C7    S    
C10   C15   A    
C1    O1    A    
N1    Zn2   S    
C16   C19   A    
C5    C6    S    
C12   O6    A    
C16   H22   S    
N2    Zn1   S    
O6    Zn1   S    
C3    O8    A    
C27   C31   A    
C22   H6    S    
C23   C30   A    
C25   H13   S    
C23   H24   S    
C2    C29   A    
O5    Zn2   S    
C23   N1    A    
O9    Zn2   S    
C13   H19   S    
C26   H17   S    
C4    O10   A    
C12   O5    A    
C17   H23   S    
C6    C31   A    
C24   O2    S    
C13   C20   A    
C24   H8    S    
C20   C21   S    
C15   C19   A    
C22   H5    S    
C10   H12   S    
C25   H14   S    
C11   C21   A    
C14   H20   S    
C2    O4    S    
C28   H3    S    
O1    Zn1   S    
C27   N2    A    
