data_mof_unit_49331.cif
_audit_creation_date              2012-12-10T16:49:27-0500
_audit_creation_method            fapswitch 2.2
_symmetry_space_group_name_H-M    P1
_symmetry_Int_Tables_number       1
_space_group_crystal_system       triclinic
_cell_length_a                    7.869574
_cell_length_b                    8.550448
_cell_length_c                    12.910423
_cell_angle_alpha                 88.495392
_cell_angle_beta                  89.624462
_cell_angle_gamma                 93.704584
_cell_volume                      866.577718268

loop_
_atom_site_label
_atom_site_type_symbol
_atom_type_description
_atom_site_fract_x
_atom_site_fract_y
_atom_site_fract_z
_atom_type_partial_charge
C1    C     C_R   0.454946 0.205665 0.497702 0.930680
C2    C     C_R   0.703630 0.457873 0.144493 -0.289774
C3    C     C_R   0.580257 0.440914 0.871723 0.444112
C4    C     C_R   0.396074 0.472403 0.128941 0.445989
C5    C     C_R   0.572150 0.459952 0.977392 0.011301
C6    C     C_R   0.414853 0.489871 0.022862 0.008419
C7    C     C_2   0.431378 0.041895 0.496443 -0.395665
C8    C     C_2   0.568154 0.958021 0.505224 -0.385506
C9    C     C_3   0.193750 0.288328 0.191581 0.115380
C10   C     C_3   0.145377 0.200395 0.092437 -0.399586
C11   C     C_3   0.079162 0.031994 0.116501 -0.968838
C12   C     C_R   0.544907 0.794305 0.502920 0.949366
C13   C     C_3   0.646082 0.195985 0.824454 0.076909
C14   C     C_3   0.755708 0.092378 0.891402 -0.374652
C15   C     C_3   0.707093 0.918489 0.876892 -0.934870
C16   C     C_3   0.091915 0.729375 0.332248 -0.722174
C17   C     C_3   0.016696 0.282095 0.663243 -0.611694
C18   C     C_R   0.467362 0.498690 0.699254 0.883831
C19   C     C_R   0.530275 0.490719 0.300794 0.872704
C20   C     C_R   0.543692 0.473030 0.190287 -0.168790
C21   C     C_R   0.447368 0.492060 0.810011 -0.175984
C22   C     C_R   0.276922 0.528119 0.961448 -0.201183
C23   C     C_R   0.716137 0.443612 0.038402 -0.200862
C24   C     C_R   0.296086 0.536442 0.855122 -0.301571
H1    H     H_    0.818039 0.454008 0.190437 0.199242
H2    H     H_    0.258407 0.197281 0.040773 0.220335
H3    H     H_    0.179411 0.967111 0.155664 0.270229
H4    H     H_    0.045279 0.972782 0.043246 0.272965
H5    H     H_    0.963598 0.029896 0.166498 0.264032
H6    H     H_    0.654263 0.161983 0.742262 0.170107
H7    H     H_    0.509683 0.171042 0.848127 0.110096
H8    H     H_    0.892349 0.116971 0.870964 0.229365
H9    H     H_    0.738227 0.119857 0.974282 0.231789
H10   H     H_    0.571676 0.890483 0.899100 0.269951
H11   H     H_    0.788095 0.846637 0.926750 0.267240
H12   H     H_    0.191427 0.573735 0.808476 0.196516
H13   H     H_    0.726566 0.887195 0.794865 0.264784
H14   H     H_    0.873296 0.660084 0.400719 0.283365
H15   H     H_    0.036356 0.837009 0.301727 0.193949
H16   H     H_    0.081998 0.640584 0.271334 0.271555
H17   H     H_    0.225917 0.761364 0.348958 0.279622
H18   H     H_    0.934029 0.224150 0.515395 0.211573
H19   H     H_    0.932700 0.178338 0.687064 0.190710
H20   H     H_    0.984835 0.384378 0.709313 0.259759
H21   H     H_    0.149361 0.253962 0.680362 0.212916
H22   H     H_    0.156635 0.555912 0.995444 0.188938
H23   H     H_    0.838935 0.427526 0.003581 0.179164
H24   H     H_    0.302090 0.990985 0.487917 0.190764
H25   H     H_    0.697328 0.008888 0.513985 0.173101
H26   H     H_    0.082785 0.278260 0.245552 0.167639
H27   H     H_    0.298974 0.231270 0.232279 0.125195
H28   H     H_    0.045735 0.261673 0.050466 0.227126
N1    N     N_2   0.054030 0.541640 0.471970 0.044949
N2    N     N_2   0.945970 0.458360 0.528030 0.005385
N3    N     N_2   0.996089 0.673231 0.422866 -0.231453
N4    N     N_2   0.000444 0.312970 0.553314 -0.197726
O1    O     O_R   0.609680 0.261530 0.506880 -0.630091
O2    O     O_3   0.707379 0.355601 0.830978 -0.651104
O3    O     O_R   0.390320 0.738470 0.493120 -0.613051
O4    O     O_R   0.323330 0.288220 0.488910 -0.615486
O5    O     O_R   0.676670 0.711780 0.511090 -0.652269
O6    O     O_R   0.619510 0.488830 0.661140 -0.570647
O7    O     O_R   0.380490 0.511170 0.338860 -0.583844
O8    O     O_R   0.333160 0.515520 0.643180 -0.620173
O9    O     O_R   0.666840 0.484480 0.356820 -0.668105
O10   O     O_3   0.233236 0.450542 0.170719 -0.668624
Zn1   Zn    Zn3+2 0.691200 0.482180 0.511990 0.947900
Zn2   Zn    Zn3+2 0.308800 0.517820 0.488010 0.974769

loop_
_geom_bond_atom_site_label_1
_geom_bond_atom_site_label_2
_ccdc_geom_bond_type
C17   H19   S    
N2    Zn1   S    
C1    O1    A    
O3    Zn2   S    
C18   C21   S    
C9    C10   S    
O5    Zn1   S    
C15   H10   S    
C19   C20   S    
C5    C23   A    
C11   H3    S    
C8    C12   S    
C10   H28   S    
C7    H24   S    
C10   H2    S    
C14   H9    S    
C14   C15   S    
C16   N3    S    
C7    C8    D    
C15   H13   S    
N1    N2    D    
C9    O10   S    
C11   H5    S    
C4    O10   S    
C12   O5    A    
C17   N4    S    
C18   O8    A    
C24   H12   S    
C11   H4    S    
O1    Zn1   S    
O8    Zn2   S    
C15   H11   S    
C22   H22   S    
C16   H16   S    
C19   O9    A    
C2    H1    S    
N2    N4    S    
N1    N3    S    
C5    C6    A    
C1    O4    A    
C22   C24   A    
C3    C21   A    
O6    Zn1   S    
C10   C11   S    
C9    H26   S    
C16   H15   S    
C2    C20   A    
C6    C22   A    
C3    O2    S    
C3    C5    A    
C13   H6    S    
C9    H27   S    
C23   H23   S    
O4    Zn2   S    
C4    C6    A    
C21   C24   A    
C14   H8    S    
C2    C23   A    
C16   H17   S    
N1    Zn2   S    
O7    Zn2   S    
C18   O6    A    
C13   O2    S    
C13   C14   S    
H18   N4    S    
C1    C7    S    
C12   O3    A    
C8    H25   S    
C13   H7    S    
C17   H20   S    
H14   N3    S    
C17   H21   S    
C19   O7    A    
O9    Zn1   S    
C4    C20   A    
