data_mof_unit_46080.cif
_audit_creation_date              2012-12-10T17:10:28-0500
_audit_creation_method            fapswitch 2.2
_symmetry_space_group_name_H-M    P1
_symmetry_Int_Tables_number       1
_space_group_crystal_system       triclinic
_cell_length_a                    11.035867
_cell_length_b                    13.178484
_cell_length_c                    11.740784
_cell_angle_alpha                 102.081049
_cell_angle_beta                  95.897742
_cell_angle_gamma                 93.13496
_cell_volume                      1655.77343032

loop_
_atom_site_label
_atom_site_type_symbol
_atom_type_description
_atom_site_fract_x
_atom_site_fract_y
_atom_site_fract_z
_atom_type_partial_charge
C1    C     C_R   0.502592 0.298220 0.476379 0.864619
C2    C     C_R   0.493706 0.701657 0.523686 0.880856
C3    C     C_R   0.484113 0.816930 0.539853 -0.180040
C4    C     C_R   0.503017 0.182816 0.460761 -0.186809
C5    C     C_R   0.448180 0.006473 0.345776 0.532769
C6    C     C_R   0.535644 0.993826 0.654211 0.512514
C7    C     C_R   0.478028 0.112555 0.350459 -0.104147
C8    C     C_R   0.506131 0.888098 0.650230 -0.090529
C9    C     C_R   0.526453 0.141324 0.560693 -0.258763
C10   C     C_R   0.456745 0.858251 0.440041 -0.262549
C11   C     C_R   0.513610 0.033749 0.553646 -0.034864
C12   C     C_R   0.468941 0.966112 0.446591 -0.041593
C13   C     C_R   0.405205 0.378897 0.012561 -0.179040
C14   C     C_R   0.583963 0.624921 0.988132 -0.194418
C15   C     C_R   0.410484 0.397211 0.137801 0.752613
C16   C     C_R   0.576448 0.608278 0.863280 0.816835
C17   C     C_R   0.544617 0.547077 0.161742 -0.075809
C18   C     C_R   0.459425 0.449567 0.837289 -0.112566
C19   C     C_R   0.532587 0.543556 0.038130 -0.077935
C20   C     C_R   0.465739 0.455694 0.961651 -0.073213
C21   C     C_R   0.263484 0.511033 0.499141 0.867915
C22   C     C_R   0.739547 0.504536 0.503810 0.905665
C23   C     C_R   0.164584 0.637981 0.697970 0.589508
C24   C     C_R   0.865963 0.387348 0.318528 0.603638
C25   C     C_R   0.128464 0.662323 0.808303 -0.356991
C26   C     C_R   0.906330 0.363406 0.208563 -0.376374
C27   C     C_R   0.007165 0.645509 0.824540 -0.096367
C28   C     C_R   0.007276 0.419842 0.181188 -0.109510
C29   C     C_R   0.920887 0.611116 0.724603 0.550665
C30   C     C_R   0.080884 0.485810 0.278584 0.595371
C31   C     C_R   0.957816 0.567308 0.612118 -0.125830
C32   C     C_R   0.049193 0.495267 0.394556 -0.121836
C33   C     C_R   0.085469 0.578346 0.602227 -0.126743
C34   C     C_R   0.928919 0.465304 0.408351 -0.129667
C35   C     C_R   0.876795 0.510522 0.511178 -0.115335
C36   C     C_R   0.132026 0.533895 0.496664 -0.074926
Cu1   Cu    Cu3+1 0.509250 0.507730 0.615930 1.060857
Cu2   Cu    Cu3+1 0.490750 0.492270 0.384070 1.059208
H1    H     H_    0.197634 0.692510 0.881471 0.194923
H2    H     H_    0.852731 0.303339 0.145155 0.179900
H3    H     H_    0.427555 0.805970 0.356561 0.223418
H4    H     H_    0.555514 0.193284 0.644507 0.213424
H5    H     H_    0.397731 0.393273 0.776034 0.164748
H6    H     H_    0.610699 0.601160 0.221276 0.148992
N1    N     N_R   0.523180 0.519350 0.790130 -0.214646
N2    N     N_R   0.476820 0.480650 0.209870 -0.202468
O1    O     O_R   0.506570 0.354460 0.582000 -0.628357
O2    O     O_R   0.493430 0.645540 0.418000 -0.621756
O3    O     O_R   0.490940 0.341410 0.386200 -0.495841
O4    O     O_R   0.509060 0.658590 0.613800 -0.456309
O5    O     O_R   0.327470 0.506520 0.597900 -0.566867
O6    O     O_R   0.672530 0.493480 0.402100 -0.570809
O7    O     O_R   0.311840 0.493460 0.402100 -0.512309
O8    O     O_R   0.688160 0.506540 0.597900 -0.514890
C37   C     C_R   0.028800 0.410406 0.053041 0.154227
C38   C     C_R   0.944567 0.349979 0.960137 -0.196285
C39   C     C_R   0.962551 0.341365 0.842493 -0.137609
C40   C     C_R   0.063756 0.392903 0.812878 -0.090720
C41   C     C_R   0.146533 0.454018 0.900922 -0.173179
C42   C     C_R   0.129978 0.463182 0.019001 -0.094187
H7    H     H_    0.861699 0.310092 0.974176 0.128796
H8    H     H_    0.896868 0.294984 0.773978 0.144231
H9    H     H_    0.077644 0.386230 0.721761 0.131571
H10   H     H_    0.224811 0.494512 0.877688 0.152847
H11   H     H_    0.200444 0.509860 0.080048 0.204330
C43   C     C_R   0.973979 0.658128 0.946553 0.159371
C44   C     C_R   0.884882 0.588517 0.972507 -0.091265
C45   C     C_R   0.863144 0.592194 0.088620 -0.176232
C46   C     C_R   0.929467 0.665160 0.180260 -0.051400
C47   C     C_R   0.017894 0.734872 0.156095 -0.051928
C48   C     C_R   0.039250 0.732292 0.040219 -0.194201
H12   H     H_    0.833844 0.529653 0.903508 0.160202
H13   H     H_    0.795869 0.537197 0.107577 0.145145
H14   H     H_    0.912326 0.667529 0.269877 0.125634
H15   H     H_    0.068984 0.791862 0.227066 0.143629
H16   H     H_    0.106247 0.788923 0.024286 0.123287
C49   C     C_R   0.333290 0.281635 0.938738 0.105306
C50   C     C_R   0.372230 0.227250 0.833830 -0.160339
C51   C     C_R   0.297448 0.146336 0.758596 -0.106934
C52   C     C_R   0.186671 0.112696 0.790387 -0.133610
C53   C     C_R   0.152193 0.157562 0.899053 -0.152604
C54   C     C_R   0.224542 0.240705 0.972539 -0.077723
H17   H     H_    0.461629 0.246333 0.810892 0.165154
H18   H     H_    0.325351 0.108662 0.675856 0.149604
H19   H     H_    0.129109 0.050004 0.732087 0.123111
H20   H     H_    0.067708 0.129568 0.925524 0.129316
H21   H     H_    0.191066 0.274170 0.053754 0.183293
C55   C     C_R   0.643517 0.728193 0.061808 0.098258
C56   C     C_R   0.739425 0.784252 0.023784 -0.095418
C57   C     C_R   0.801842 0.873372 0.096018 -0.169750
C58   C     C_R   0.773747 0.906881 0.209611 -0.133478
C59   C     C_R   0.675376 0.857662 0.246742 -0.100925
C60   C     C_R   0.606172 0.773366 0.171154 -0.138563
H22   H     H_    0.772294 0.758412 0.940432 0.222336
H23   H     H_    0.876333 0.913314 0.065606 0.131461
H24   H     H_    0.826909 0.972087 0.268207 0.120913
H25   H     H_    0.653328 0.885659 0.334368 0.146208
H26   H     H_    0.523878 0.743321 0.198714 0.163394
F1    F     F_    0.277834 0.675167 0.685995 -0.675729
F2    F     F_    0.769467 0.329066 0.339253 -0.693879
F3    F     F_    0.805531 0.632304 0.739630 -0.652069
F4    F     F_    0.169306 0.554874 0.262519 -0.686690
C61   C     C_R   0.446337 0.870989 0.751664 0.244189
C62   C     C_R   0.515098 0.878378 0.860416 -0.005616
C63   C     C_R   0.456981 0.886394 0.961759 -0.129418
C64   C     C_R   0.330820 0.891913 0.956529 -0.146487
C65   C     C_R   0.262257 0.890230 0.849664 -0.158348
C66   C     C_R   0.319744 0.880870 0.747851 -0.039226
H27   H     H_    0.613846 0.883687 0.867252 0.166493
H28   H     H_    0.510688 0.896923 0.045703 0.213289
H29   H     H_    0.286915 0.901571 0.035829 0.187410
H30   H     H_    0.164778 0.897390 0.845885 0.131524
H31   H     H_    0.265965 0.883604 0.666117 0.117887
C67   C     C_R   0.530732 0.134522 0.247450 0.189403
C68   C     C_R   0.658139 0.135580 0.249491 -0.018361
C69   C     C_R   0.712789 0.131870 0.146949 -0.142528
C70   C     C_R   0.640706 0.126460 0.041187 -0.143049
C71   C     C_R   0.513766 0.121953 0.037931 -0.135863
C72   C     C_R   0.458331 0.125986 0.140361 -0.023739
H32   H     H_    0.715045 0.134408 0.330059 0.138320
H33   H     H_    0.810819 0.129426 0.149017 0.124717
H34   H     H_    0.683190 0.121253 0.961429 0.195943
H35   H     H_    0.458098 0.106333 0.954805 0.206423
H36   H     H_    0.359689 0.116349 0.135177 0.160503
F5    F     F_    0.414745 0.940530 0.240387 -0.737163
F6    F     F_    0.568122 0.060232 0.759502 -0.745623
F7    F     F_    0.612116 0.686065 0.813546 -0.653416
F8    F     F_    0.354261 0.328272 0.189577 -0.702503

loop_
_geom_bond_atom_site_label_1
_geom_bond_atom_site_label_2
_ccdc_geom_bond_type
C23   F1    S    
C63   H28   S    
C27   C29   A    
C65   H30   S    
C19   C20   A    
C37   C38   A    
C67   C68   A    
C57   C58   A    
C39   H8    S    
C22   O8    A    
Cu2   O3    S    
C49   C50   A    
C38   C39   A    
C21   C36   S    
C22   C35   S    
C9    H4    S    
C52   H19   S    
C32   C36   A    
C7    C67   S    
C24   C26   A    
C44   H12   S    
C51   H18   S    
Cu1   O5    S    
Cu2   O6    S    
C64   C65   A    
C54   H21   S    
C33   C36   A    
C69   C70   A    
C18   C20   A    
C34   C35   A    
C56   H22   S    
C71   C72   A    
C2    O4    A    
C58   H24   S    
C50   H17   S    
C45   C46   A    
C23   C33   A    
C65   C66   A    
C31   C33   A    
C47   C48   A    
Cu1   O1    S    
C61   C62   A    
Cu2   O2    S    
C67   C72   A    
C58   C59   A    
C43   C44   A    
C41   C42   A    
C37   C42   A    
C62   H27   S    
C10   H3    S    
C4    C7    A    
C62   C63   A    
C16   F7    S    
C28   C37   S    
C59   H25   S    
C53   C54   A    
C64   H29   S    
C13   C49   S    
C69   H33   S    
C44   C45   A    
C57   H23   S    
C17   N2    A    
C6    F6    S    
C5    C12   A    
C3    C8    A    
C6    C11   A    
C5    C7    A    
C50   C51   A    
C1    O1    A    
C6    C8    A    
C2    O2    A    
C45   H13   S    
C72   H36   S    
C24   C34   A    
C32   C34   A    
C66   H31   S    
C70   H34   S    
Cu1   Cu2   S    
C21   O7    A    
C43   C48   A    
C30   F4    S    
C41   H10   S    
C29   F3    S    
C46   H14   S    
C9    C11   A    
C61   C66   A    
C10   C12   A    
Cu1   O8    S    
C42   H11   S    
C15   F8    S    
C13   C15   A    
C14   C16   A    
Cu1   N1    S    
C56   C57   A    
C18   N1    A    
C21   O5    A    
C22   O6    A    
C40   H9    S    
C55   C60   A    
C13   C20   A    
C24   F2    S    
C14   C19   A    
C53   H20   S    
C52   C53   A    
C16   N1    A    
C11   C12   A    
C25   C27   A    
C63   C64   A    
C26   C28   A    
C1    C4    S    
C28   C30   A    
C2    C3    S    
C40   C41   A    
C17   H6    S    
C14   C55   S    
C29   C31   A    
C27   C43   S    
C70   C71   A    
C25   H1    S    
C30   C32   A    
Cu1   O4    S    
C26   H2    S    
C39   C40   A    
C48   H16   S    
Cu2   O7    S    
C49   C54   A    
C59   C60   A    
C17   C19   A    
C31   C35   A    
C71   H35   S    
C23   C25   A    
C46   C47   A    
C8    C61   S    
Cu2   N2    S    
C51   C52   A    
C55   C56   A    
C68   H32   S    
C5    F5    S    
C47   H15   S    
C3    C10   A    
C38   H7    S    
C15   N2    A    
C4    C9    A    
C18   H5    S    
C1    O3    A    
C60   H26   S    
C68   C69   A    
