data_mof_unit_13235.cif
_audit_creation_date              2012-10-26T19:03:01-0400
_audit_creation_method            fapswitch 2.2
_symmetry_space_group_name_H-M    P1
_symmetry_Int_Tables_number       1
_space_group_crystal_system       triclinic
_cell_length_a                    15.071985
_cell_length_b                    11.040415
_cell_length_c                    9.854696
_cell_angle_alpha                 111.231011
_cell_angle_beta                  98.80436
_cell_angle_gamma                 90.991386
_cell_volume                      1505.80545694

loop_
_atom_site_label
_atom_site_type_symbol
_atom_type_description
_atom_site_fract_x
_atom_site_fract_y
_atom_site_fract_z
_atom_type_partial_charge
C1    C     C_R   0.493353 0.254052 0.440515 0.551519
C2    C     C_2   0.494735 0.486366 0.917438 0.107694
C3    C     C_R   0.328638 0.499843 0.500486 0.543053
C4    C     C_R   0.671367 0.500151 0.499474 0.543809
C5    C     C_R   0.801876 0.495408 0.372247 -0.139882
C6    C     C_R   0.198109 0.505108 0.627656 -0.136682
C7    C     C_R   0.768195 0.500142 0.498947 -0.011948
C8    C     C_R   0.231809 0.499921 0.500854 -0.017099
C9    C     C_R   0.827296 0.505058 0.625920 -0.140675
C10   C     C_R   0.172745 0.494609 0.373627 -0.139948
C11   C     C_R   0.919758 0.505123 0.627216 0.013080
C12   C     C_R   0.506541 0.745952 0.559488 0.553653
C13   C     C_R   0.080268 0.494976 0.372444 0.010376
C14   C     C_R   0.953498 0.500252 0.499675 0.061457
C15   C     C_R   0.046519 0.500111 0.500079 0.061603
C16   C     C_R   0.894309 0.495460 0.371736 0.012507
C17   C     C_R   0.105691 0.505031 0.628090 0.011350
C18   C     C_R   0.978944 0.509794 0.753812 -0.135902
C19   C     C_R   0.021063 0.490417 0.245895 -0.133761
C20   C     C_3   0.665907 0.685559 0.936468 0.050402
C21   C     C_3   0.721962 0.783714 0.076030 -0.414405
C22   C     C_3   0.363591 0.269097 0.053943 0.048916
C23   C     C_R   0.071470 0.509749 0.754240 -0.133663
C24   C     C_3   0.292184 0.192841 0.921515 -0.413728
C25   C     C_R   0.928534 0.490778 0.245592 -0.135095
C26   C     C_2   0.489733 0.114567 0.406972 -0.129841
C27   C     C_2   0.509873 0.885445 0.593041 -0.132315
C28   C     C_2   0.501085 0.069604 0.516479 -0.161661
C29   C     C_2   0.498127 0.930407 0.483545 -0.158187
C30   C     C_2   0.509643 0.506918 0.080850 0.108533
Cu1   Cu    Cu3+1 0.515770 0.521810 0.644910 0.965303
Cu2   Cu    Cu3+1 0.484230 0.478190 0.355090 0.962732
H1    H     H_    0.756342 0.492130 0.274229 0.117660
H2    H     H_    0.512799 0.135703 0.631523 0.149803
H3    H     H_    0.521834 0.951812 0.707899 0.100472
H4    H     H_    0.477902 0.048215 0.292109 0.105449
H5    H     H_    0.449231 0.404809 0.841139 0.126769
H6    H     H_    0.567989 0.568852 0.152193 0.126325
H7    H     H_    0.664592 0.724226 0.846853 0.179879
H8    H     H_    0.699416 0.592423 0.908645 0.124972
H9    H     H_    0.725070 0.747678 0.168185 0.147954
H10   H     H_    0.791465 0.797679 0.056786 0.098677
H11   H     H_    0.691585 0.878887 0.107130 0.162452
H12   H     H_    0.243625 0.508643 0.725798 0.140119
H13   H     H_    0.337702 0.274440 0.155222 0.179528
H14   H     H_    0.425494 0.214759 0.044525 0.136169
H15   H     H_    0.316001 0.184917 0.817574 0.151233
H16   H     H_    0.278498 0.093305 0.920435 0.106144
H17   H     H_    0.228779 0.242916 0.927690 0.155757
H18   H     H_    0.801512 0.508163 0.723814 0.109916
H19   H     H_    0.198610 0.490741 0.275442 0.142395
H20   H     H_    0.953673 0.513489 0.852362 0.100905
H21   H     H_    0.046320 0.486615 0.147302 0.105313
H22   H     H_    0.116222 0.513374 0.853066 0.114833
H23   H     H_    0.883779 0.487298 0.146827 0.099988
H24   H     H_    0.486261 0.864307 0.368503 0.170171
N1    N     N_2   0.460520 0.445420 0.137370 -0.077598
N2    N     N_2   0.539480 0.554580 0.862630 -0.077464
O1    O     O_R   0.508410 0.332340 0.577400 -0.517690
O2    O     O_3   0.379284 0.395017 0.053930 -0.501035
O3    O     O_R   0.491590 0.667660 0.422600 -0.500259
O4    O     O_R   0.481780 0.295500 0.332650 -0.525489
O5    O     O_R   0.518220 0.704500 0.667350 -0.479132
O6    O     O_R   0.383570 0.518390 0.622380 -0.504863
O7    O     O_R   0.616430 0.481610 0.377620 -0.522845
O8    O     O_R   0.356940 0.481550 0.377630 -0.490131
O9    O     O_R   0.643060 0.518450 0.622370 -0.531684
O10   O     O_3   0.578036 0.670046 0.962463 -0.495887

loop_
_geom_bond_atom_site_label_1
_geom_bond_atom_site_label_2
_ccdc_geom_bond_type
C4    O9    A    
C2    N2    D    
C11   C18   A    
C7    C9    A    
C29   H24   S    
C18   C23   A    
C27   C29   D    
C5    C7    A    
C1    C26   S    
C26   C28   D    
Cu1   Cu2   S    
C2    C30   S    
C1    O4    A    
C19   H21   S    
C13   C15   A    
C20   H7    S    
C18   H20   S    
C10   C13   A    
C6    H12   S    
C3    O6    A    
Cu1   O9    S    
C12   O3    A    
C9    C11   A    
C2    H5    S    
C17   C23   A    
Cu2   N1    S    
C4    C7    S    
C21   H9    S    
C10   H19   S    
Cu1   N2    S    
N2    O10   S    
C28   C29   S    
C22   H14   S    
Cu2   O3    S    
C22   C24   S    
C1    O1    A    
C22   O2    S    
C4    O7    A    
C20   H8    S    
C11   C14   A    
C14   C16   A    
C3    O8    A    
C13   C19   A    
C19   C25   A    
C28   H2    S    
C21   H10   S    
C24   H16   S    
C30   N1    D    
Cu1   O5    S    
Cu2   O4    S    
C24   H17   S    
C22   H13   S    
C20   C21   S    
C30   H6    S    
C23   H22   S    
Cu2   O8    S    
C3    C8    S    
C26   H4    S    
C16   C25   A    
C15   C17   A    
C6    C17   A    
C14   C15   A    
C5    C16   A    
C6    C8    A    
C12   C27   S    
C27   H3    S    
C12   O5    A    
C24   H15   S    
Cu1   O6    S    
C20   O10   S    
C8    C10   A    
C21   H11   S    
C9    H18   S    
C25   H23   S    
Cu2   O7    S    
N1    O2    S    
Cu1   O1    S    
C5    H1    S    
