data_mof_unit_26484.cif
_audit_creation_date              2012-12-11T15:39:18-0500
_audit_creation_method            fapswitch 2.2
_symmetry_space_group_name_H-M    P1
_symmetry_Int_Tables_number       1
_space_group_crystal_system       triclinic
_cell_length_a                    17.164065
_cell_length_b                    24.175802
_cell_length_c                    14.753444
_cell_angle_alpha                 89.922543
_cell_angle_beta                  124.984169
_cell_angle_gamma                 89.866645
_cell_volume                      5015.79132408

loop_
_atom_site_label
_atom_site_type_symbol
_atom_type_description
_atom_site_fract_x
_atom_site_fract_y
_atom_site_fract_z
_atom_type_partial_charge
C1    C     C_R   0.310258 0.374985 0.910753 -0.124980
C2    C     C_R   0.645238 0.346585 0.090511 -0.134314
C3    C     C_R   0.810254 0.874990 0.910751 -0.124978
C4    C     C_R   0.145244 0.846587 0.090510 -0.134318
C5    C     C_R   0.310588 0.636529 0.001789 0.052957
C6    C     C_R   0.608912 0.686760 0.997451 0.068837
C7    C     C_R   0.810594 0.136541 0.001788 0.052908
C8    C     C_R   0.108902 0.186763 0.997451 0.068841
C9    C     C_R   0.569613 0.500476 0.371114 0.044815
C10   C     C_R   0.555277 0.500659 0.728732 0.031491
C11   C     C_R   0.069615 0.000476 0.371114 0.044813
C12   C     C_R   0.055276 0.000658 0.728730 0.031498
C13   C     C_R   0.197896 0.500968 0.631363 0.080136
C14   C     C_R   0.826170 0.500987 0.276612 0.072820
C15   C     C_R   0.697896 0.000968 0.631362 0.080137
C16   C     C_R   0.326170 0.000987 0.276612 0.072821
C17   C     C_R   0.072391 0.552835 0.465170 0.167638
C18   C     C_R   0.978472 0.553040 0.375715 0.164227
C19   C     C_R   0.572391 0.052835 0.465170 0.167652
C20   C     C_R   0.478472 0.053041 0.375716 0.164246
C21   C     C_R   0.119017 0.502785 0.514437 0.031400
C22   C     C_R   0.929149 0.503085 0.332588 0.033296
C23   C     C_R   0.619018 0.002786 0.514437 0.031398
C24   C     C_R   0.429149 0.003085 0.332588 0.033293
C25   C     C_R   0.078025 0.453792 0.453802 -0.204834
C26   C     C_R   0.982892 0.454000 0.362344 -0.199071
C27   C     C_R   0.578025 0.953792 0.453801 -0.204841
C28   C     C_R   0.482893 0.954000 0.362343 -0.199072
C29   C     C_3   0.957096 0.603715 0.416579 -0.521186
C30   C     C_3   0.059873 0.603545 0.513800 -0.528549
C31   C     C_3   0.457095 0.103715 0.416582 -0.521212
C32   C     C_3   0.559872 0.103545 0.513803 -0.528561
C33   C     C_R   0.151573 0.680875 0.901265 -0.234666
C34   C     C_R   0.697157 0.769613 0.100162 -0.234444
C35   C     C_R   0.651574 0.180883 0.901262 -0.234639
C36   C     C_R   0.197139 0.269617 0.100161 -0.234456
C37   C     C_R   0.597036 0.224516 0.898598 0.030617
C38   C     C_R   0.253579 0.312712 0.107517 0.031247
C39   C     C_R   0.097049 0.724517 0.898597 0.030616
C40   C     C_R   0.753580 0.812716 0.107513 0.031205
C41   C     C_R   0.632876 0.254269 0.997756 0.053321
C42   C     C_R   0.238674 0.333629 0.008727 0.060608
C43   C     C_R   0.132893 0.754274 0.997754 0.053334
C44   C     C_R   0.738667 0.833638 0.008724 0.060624
C45   C     C_R   0.402292 0.625000 0.093259 -0.134539
C46   C     C_R   0.553574 0.652827 0.907173 -0.149785
C47   C     C_R   0.902299 0.125010 0.093259 -0.134554
C48   C     C_R   0.053567 0.152829 0.907174 -0.149780
C49   C     C_R   0.698989 0.227849 0.098723 -0.234449
C50   C     C_R   0.153047 0.320361 0.907592 -0.236659
C51   C     C_R   0.199012 0.727857 0.098723 -0.234460
C52   C     C_R   0.653042 0.820366 0.907590 -0.236667
C53   C     C_R   0.245697 0.679957 0.101134 0.030695
C54   C     C_R   0.595998 0.777208 0.901224 0.030694
C55   C     C_R   0.745684 0.179951 0.101133 0.030731
C56   C     C_R   0.095995 0.277208 0.901225 0.030697
C57   C     C_R   0.233493 0.663462 0.001965 0.054067
C58   C     C_R   0.628568 0.746247 0.998238 0.048818
C59   C     C_R   0.733496 0.163472 0.001964 0.054065
C60   C     C_R   0.128554 0.246250 0.998238 0.048814
C61   C     C_R   0.613671 0.551809 0.633219 -0.184341
C62   C     C_R   0.615193 0.551656 0.540419 -0.164079
C63   C     C_R   0.113676 0.051807 0.633223 -0.184350
C64   C     C_R   0.115199 0.051655 0.540424 -0.164094
C65   C     C_R   0.607998 0.501310 0.489013 0.135037
C66   C     C_R   0.604167 0.501617 0.673662 0.143072
C67   C     C_R   0.107999 0.001309 0.489013 0.135035
C68   C     C_R   0.104165 0.001615 0.673660 0.143062
C69   C     C_R   0.623353 0.451732 0.546560 -0.166150
C70   C     C_R   0.622441 0.452006 0.640054 -0.177596
C71   C     C_R   0.123345 0.951730 0.546554 -0.166113
C72   C     C_R   0.122431 0.952004 0.640047 -0.177594
C73   C     C_R   0.551635 0.454451 0.306277 -0.132410
C74   C     C_R   0.522239 0.454191 0.752568 -0.127149
C75   C     C_R   0.051637 0.954451 0.306278 -0.132438
C76   C     C_R   0.022237 0.954191 0.752566 -0.127160
C77   C     C_R   0.246930 0.546263 0.695456 -0.161438
C78   C     C_R   0.767468 0.546626 0.246399 -0.145904
C79   C     C_R   0.746930 0.046263 0.695456 -0.161437
C80   C     C_R   0.267468 0.046626 0.246398 -0.145905
C81   C     C_R   0.550897 0.546031 0.305096 -0.116759
C82   C     C_R   0.521760 0.546476 0.753012 -0.131394
C83   C     C_R   0.050897 0.046031 0.305096 -0.116749
C84   C     C_R   0.021760 0.046476 0.753012 -0.131390
C85   C     C_R   0.244807 0.454612 0.695248 -0.137112
C86   C     C_R   0.769802 0.454170 0.251030 -0.122861
C87   C     C_R   0.744807 0.954612 0.695248 -0.137116
C88   C     C_R   0.269802 0.954170 0.251030 -0.122858
C89   C     C_R   0.308939 0.623693 0.908647 -0.124207
C90   C     C_R   0.642383 0.653627 0.089913 -0.139703
C91   C     C_R   0.808942 0.123699 0.908646 -0.124191
C92   C     C_R   0.142380 0.153628 0.089912 -0.139701
C93   C     C_R   0.404730 0.374579 0.095339 -0.142360
C94   C     C_R   0.556180 0.347775 0.907587 -0.150087
C95   C     C_R   0.904720 0.874591 0.095337 -0.142372
C96   C     C_R   0.056185 0.847777 0.907586 -0.150089
C97   C     C_R   0.313774 0.361501 0.005640 0.056115
C98   C     C_R   0.613281 0.313845 0.998201 0.063685
C99   C     C_R   0.813765 0.861512 0.005638 0.056121
C100  C     C_R   0.113291 0.813848 0.998199 0.063688
H1    H     H_    0.251233 0.369980 0.825484 0.092829
H2    H     H_    0.681883 0.332694 0.175201 0.084713
H3    H     H_    0.751230 0.869984 0.825483 0.092830
H4    H     H_    0.181890 0.832696 0.175199 0.084713
H5    H     H_    0.130690 0.661270 0.824647 0.120939
H6    H     H_    0.713452 0.751615 0.176296 0.124224
H7    H     H_    0.630698 0.161282 0.824643 0.120925
H8    H     H_    0.213415 0.251625 0.176291 0.124215
H9    H     H_    0.714850 0.244427 0.175515 0.117640
H10   H     H_    0.132043 0.341921 0.832495 0.124406
H11   H     H_    0.214889 0.744438 0.175521 0.117664
H12   H     H_    0.632034 0.841927 0.832493 0.124408
H13   H     H_    0.607888 0.591283 0.663204 0.109175
H14   H     H_    0.610621 0.591058 0.503006 0.113080
H15   H     H_    0.107897 0.091281 0.663211 0.109190
H16   H     H_    0.110631 0.091057 0.503014 0.113096
H17   H     H_    0.626324 0.412316 0.514178 0.117137
H18   H     H_    0.625290 0.412923 0.677520 0.105342
H19   H     H_    0.126311 0.912314 0.514170 0.117126
H20   H     H_    0.125275 0.912921 0.677508 0.105339
H21   H     H_    0.431501 0.631441 0.179293 0.115900
H22   H     H_    0.508349 0.664606 0.821433 0.117124
H23   H     H_    0.931512 0.131456 0.179293 0.115899
H24   H     H_    0.008338 0.164609 0.821434 0.117118
H25   H     H_    0.570973 0.412210 0.334760 0.095508
H26   H     H_    0.533539 0.411480 0.742114 0.092766
H27   H     H_    0.070976 0.912210 0.334761 0.095514
H28   H     H_    0.033535 0.911480 0.742110 0.092766
H29   H     H_    0.241366 0.588195 0.666921 0.105072
H30   H     H_    0.785227 0.589476 0.248491 0.110841
H31   H     H_    0.741366 0.088195 0.666921 0.105073
H32   H     H_    0.285227 0.089476 0.248490 0.110839
H33   H     H_    0.569793 0.588398 0.331846 0.085243
H34   H     H_    0.532558 0.589413 0.743808 0.095148
H35   H     H_    0.069791 0.088398 0.331846 0.085244
H36   H     H_    0.032560 0.089413 0.743809 0.095145
H37   H     H_    0.250120 0.627930 0.823009 0.092591
H38   H     H_    0.677723 0.666929 0.174565 0.084408
H39   H     H_    0.750123 0.127935 0.823008 0.092589
H40   H     H_    0.177723 0.166929 0.174566 0.084403
H41   H     H_    0.436269 0.369684 0.181904 0.124653
H42   H     H_    0.512028 0.336401 0.821782 0.116948
H43   H     H_    0.936247 0.869709 0.181901 0.124665
H44   H     H_    0.012034 0.836404 0.821780 0.116958
N1    N     N_R   0.394180 0.396910 0.943210 -0.039237
N2    N     N_R   0.605820 0.396910 0.056790 -0.038688
N3    N     N_R   0.894180 0.896910 0.943210 -0.039238
N4    N     N_R   0.105820 0.896910 0.056790 -0.038686
N5    N     N_R   0.450950 0.603070 0.056740 -0.042120
N6    N     N_R   0.549050 0.603070 0.943260 -0.038663
N7    N     N_R   0.950950 0.103070 0.056740 -0.042114
N8    N     N_R   0.049050 0.103070 0.943260 -0.038664
N9    N     N_R   0.525650 0.471570 0.206150 -0.040763
N10   N     N_R   0.474350 0.471570 0.793850 -0.038533
N11   N     N_R   0.025650 0.971570 0.206150 -0.040766
N12   N     N_R   0.974350 0.971570 0.793850 -0.038532
N13   N     N_R   0.319480 0.528420 0.793810 -0.038241
N14   N     N_R   0.680520 0.528420 0.206190 -0.040738
N15   N     N_R   0.819480 0.028420 0.793810 -0.038242
N16   N     N_R   0.180520 0.028420 0.206190 -0.040737
N17   N     N_R   0.525640 0.528390 0.206120 -0.040282
N18   N     N_R   0.474360 0.528390 0.793880 -0.038387
N19   N     N_R   0.025640 0.028390 0.206120 -0.040283
N20   N     N_R   0.974360 0.028390 0.793880 -0.038387
N21   N     N_R   0.319490 0.471590 0.793840 -0.038423
N22   N     N_R   0.680510 0.471590 0.206160 -0.040779
N23   N     N_R   0.819490 0.971590 0.793840 -0.038423
N24   N     N_R   0.180510 0.971590 0.206160 -0.040778
N25   N     N_R   0.394130 0.603080 0.943110 -0.039283
N26   N     N_R   0.605870 0.603080 0.056890 -0.038511
N27   N     N_R   0.894130 0.103080 0.943110 -0.039281
N28   N     N_R   0.105870 0.103080 0.056890 -0.038510
N29   N     N_R   0.450990 0.396900 0.056840 -0.042183
N30   N     N_R   0.549010 0.396900 0.943160 -0.038966
N31   N     N_R   0.950990 0.896900 0.056840 -0.042183
N32   N     N_R   0.049010 0.896900 0.943160 -0.038965
Ni1   Ni    Ni4+2 0.434860 0.434850 0.869700 0.214999
Ni2   Ni    Ni4+2 0.565140 0.434850 0.130300 0.208924
Ni3   Ni    Ni4+2 0.934860 0.934850 0.869700 0.214996
Ni4   Ni    Ni4+2 0.065140 0.934850 0.130300 0.208923
Ni5   Ni    Ni4+2 0.565130 0.565140 0.130240 0.206904
Ni6   Ni    Ni4+2 0.434870 0.565140 0.869760 0.213215
Ni7   Ni    Ni4+2 0.065130 0.065140 0.130240 0.206901
Ni8   Ni    Ni4+2 0.934870 0.065140 0.869760 0.213213
H45   H     H_    0.938196 0.639966 0.361028 0.187572
H46   H     H_    0.068811 0.595702 0.593597 0.201752
H47   H     H_    0.438195 0.139966 0.361030 0.187560
H48   H     H_    0.568811 0.095701 0.593599 0.201752
H49   H     H_    0.908375 0.595842 0.442037 0.203895
H50   H     H_    0.100140 0.639470 0.513649 0.186149
H51   H     H_    0.408374 0.095841 0.442039 0.203896
H52   H     H_    0.600139 0.139471 0.513651 0.186152
C101  C     C_R   0.501626 0.234776 0.795075 0.113414
C102  C     C_R   0.421954 0.240360 0.799026 -0.141438
C103  C     C_R   0.331649 0.249657 0.702076 -0.123335
C104  C     C_R   0.319740 0.252688 0.600250 -0.099409
C105  C     C_R   0.398114 0.246493 0.595183 -0.103981
C106  C     C_R   0.488788 0.237674 0.691991 -0.179891
H53   H     H_    0.429915 0.237778 0.877251 0.116947
H54   H     H_    0.270845 0.254345 0.705888 0.103556
H55   H     H_    0.249724 0.259691 0.525205 0.098814
H56   H     H_    0.388478 0.248483 0.516099 0.121805
H57   H     H_    0.548836 0.233651 0.686533 0.105181
C107  C     C_R   0.327977 0.330809 0.221013 0.110866
C108  C     C_R   0.399125 0.293194 0.295580 -0.178966
C109  C     C_R   0.459963 0.306147 0.407700 -0.148321
C110  C     C_R   0.449256 0.356207 0.446402 -0.093249
C111  C     C_R   0.380773 0.394572 0.372555 -0.097183
C112  C     C_R   0.320119 0.382040 0.259813 -0.156927
H58   H     H_    0.405362 0.253207 0.267186 0.114649
H59   H     H_    0.513378 0.276633 0.465122 0.109009
H60   H     H_    0.493265 0.364846 0.533910 0.102862
H61   H     H_    0.373232 0.433283 0.403514 0.107086
H62   H     H_    0.264735 0.411034 0.203783 0.110693
C113  C     C_R   0.001649 0.734785 0.795066 0.113414
C114  C     C_R   0.921964 0.740362 0.798992 -0.141442
C115  C     C_R   0.831669 0.749669 0.702033 -0.123339
C116  C     C_R   0.819785 0.752719 0.600222 -0.099412
C117  C     C_R   0.898173 0.746531 0.595179 -0.104002
C118  C     C_R   0.988836 0.737700 0.691997 -0.179906
H63   H     H_    0.929907 0.737767 0.877206 0.116942
H64   H     H_    0.770854 0.754351 0.705826 0.103552
H65   H     H_    0.749777 0.759730 0.525170 0.098818
H66   H     H_    0.888557 0.748536 0.516106 0.121845
H67   H     H_    0.048897 0.733681 0.686560 0.105196
C119  C     C_R   0.827956 0.830824 0.221003 0.110912
C120  C     C_R   0.899196 0.793242 0.295542 -0.179031
C121  C     C_R   0.960029 0.806197 0.407659 -0.148374
C122  C     C_R   0.949220 0.856219 0.446387 -0.093201
C123  C     C_R   0.880630 0.894547 0.372568 -0.097249
C124  C     C_R   0.819988 0.882018 0.259829 -0.156916
H68   H     H_    0.905513 0.753281 0.267126 0.114678
H69   H     H_    0.013525 0.776711 0.465060 0.109014
H70   H     H_    0.993230 0.864856 0.533892 0.102863
H71   H     H_    0.872998 0.933225 0.403544 0.107061
H72   H     H_    0.764523 0.910979 0.203822 0.110686
C125  C     C_R   0.296782 0.645135 0.202671 0.115765
C126  C     C_R   0.281093 0.587689 0.193644 -0.137037
C127  C     C_R   0.323146 0.554637 0.288271 -0.103250
C128  C     C_R   0.381090 0.578409 0.392917 -0.080302
C129  C     C_R   0.398640 0.635259 0.403106 -0.124268
C130  C     C_R   0.356578 0.668644 0.308534 -0.184663
H73   H     H_    0.234761 0.568572 0.113292 0.115086
H74   H     H_    0.309653 0.510686 0.280168 0.104035
H75   H     H_    0.412280 0.552711 0.466010 0.116012
H76   H     H_    0.444443 0.653462 0.484383 0.106447
H77   H     H_    0.370752 0.712633 0.318028 0.103047
C131  C     C_R   0.502726 0.767315 0.795028 0.116544
C132  C     C_R   0.495225 0.763283 0.695165 -0.179248
C133  C     C_R   0.406890 0.753784 0.595689 -0.112433
C134  C     C_R   0.325480 0.748263 0.594921 -0.091913
C135  C     C_R   0.332084 0.752554 0.693555 -0.127012
C136  C     C_R   0.420134 0.762326 0.793176 -0.144093
H78   H     H_    0.557771 0.766750 0.694452 0.103764
H79   H     H_    0.401563 0.750617 0.519150 0.101341
H80   H     H_    0.257257 0.740734 0.517869 0.098842
H81   H     H_    0.268951 0.748327 0.692832 0.102705
H82   H     H_    0.424125 0.765617 0.868953 0.116666
C137  C     C_R   0.796786 0.145121 0.202672 0.115707
C138  C     C_R   0.781224 0.087666 0.193634 -0.137099
C139  C     C_R   0.823318 0.054601 0.288249 -0.103220
C140  C     C_R   0.881140 0.078369 0.392899 -0.080414
C141  C     C_R   0.898554 0.135229 0.403106 -0.124265
C142  C     C_R   0.856478 0.168626 0.308547 -0.184528
H83   H     H_    0.734979 0.068548 0.113280 0.115124
H84   H     H_    0.809954 0.010641 0.280134 0.104131
H85   H     H_    0.912348 0.052660 0.465981 0.116057
H86   H     H_    0.944265 0.153429 0.484389 0.106479
H87   H     H_    0.870564 0.212622 0.318061 0.103007
C143  C     C_R   0.002720 0.267319 0.795029 0.116538
C144  C     C_R   0.995217 0.263283 0.695164 -0.179231
C145  C     C_R   0.906878 0.253791 0.595688 -0.112455
C146  C     C_R   0.825466 0.248280 0.594923 -0.091914
C147  C     C_R   0.832072 0.252576 0.693559 -0.126990
C148  C     C_R   0.920127 0.262341 0.793180 -0.144090
H88   H     H_    0.057764 0.266741 0.694449 0.103763
H89   H     H_    0.901549 0.250619 0.519147 0.101316
H90   H     H_    0.757239 0.240756 0.517870 0.098846
H91   H     H_    0.768937 0.248359 0.692839 0.102706
H92   H     H_    0.924120 0.265636 0.868960 0.116665
H93   H     H_    0.234749 0.412368 0.666805 0.087414
H94   H     H_    0.791590 0.411354 0.262038 0.093375
H95   H     H_    0.734750 0.912369 0.666803 0.087411
H96   H     H_    0.291590 0.911354 0.262039 0.093372
H97   H     H_    0.114229 0.414418 0.483867 0.124737
H98   H     H_    0.949387 0.414813 0.325364 0.126403
H99   H     H_    0.614230 0.914418 0.483865 0.124732
H100  H     H_    0.449388 0.914813 0.325363 0.126401

loop_
_geom_bond_atom_site_label_1
_geom_bond_atom_site_label_2
_ccdc_geom_bond_type
C139  H84   S    
N23   Ni3   S    
C3    N3    A    
C111  H61   S    
C64   H16   S    
C55   C59   A    
C36   H8    S    
N21   Ni1   S    
C6    C58   S    
C1    N1    A    
C19   C20   A    
C86   N22   A    
C16   C88   A    
C29   H49   S    
C56   C143  S    
C38   C107  S    
C116  C117  A    
C134  C135  A    
N6    Ni6   S    
C74   H26   S    
C108  C109  A    
N11   Ni4   S    
C146  H90   S    
C95   H43   S    
C12   C68   S    
C32   H52   S    
C132  C133  A    
C145  H89   S    
C140  C141  A    
C125  C130  A    
C37   C41   A    
C34   C40   A    
C91   H39   S    
C30   H46   S    
C15   C87   A    
C35   C37   A    
C92   N28   A    
C26   H98   S    
C79   N15   A    
C139  C140  A    
N8    N28   A    
N12   Ni3   S    
C95   C99   A    
C104  C105  A    
C80   N16   A    
C89   N25   A    
C94   C98   A    
C119  C124  A    
C4    N4    A    
C3    C99   A    
C31   H51   S    
C50   H10   S    
C14   C78   A    
N7    N27   A    
N2    Ni2   S    
C27   H99   S    
C35   C59   A    
C129  C130  A    
C77   H29   S    
C41   C49   A    
C122  H70   S    
C120  C121  A    
C95   N31   A    
C114  H63   S    
C83   N19   A    
C41   C98   S    
C9    C81   A    
C117  H66   S    
N9    Ni2   S    
C109  H59   S    
C78   N14   A    
N32   Ni3   S    
C87   N23   A    
C127  C128  A    
C11   C67   S    
C111  C112  A    
C88   N24   A    
C107  C112  A    
C51   H11   S    
C129  H76   S    
C104  H55   S    
C39   C113  S    
C124  H72   S    
N22   Ni2   S    
C23   C27   A    
N15   Ni8   S    
N8    Ni8   S    
C147  C148  A    
C6    C46   A    
N16   Ni7   S    
C83   H35   S    
C61   C62   A    
C84   N20   A    
C27   C28   A    
C63   H15   S    
C44   C52   A    
C15   C23   S    
C120  H68   S    
C136  H82   S    
C79   H31   S    
C132  H78   S    
N4    Ni4   S    
C85   H93   S    
C125  C126  A    
C5    C57   S    
N5    Ni5   S    
C17   C30   S    
C90   N26   A    
C141  H86   S    
N3    N31   A    
C9    C73   A    
N15   N23   A    
C19   C32   S    
C88   H96   S    
C7    C59   S    
C121  C122  A    
C90   H38   S    
C15   C79   A    
C52   C54   A    
C135  H81   S    
C146  C147  A    
C9    C65   S    
C10   C66   S    
C34   H6    S    
C144  H88   S    
C13   C77   A    
C32   H48   S    
N19   Ni7   S    
C147  H91   S    
C94   H42   S    
C64   C67   A    
C20   C24   A    
N27   Ni8   S    
C116  H65   S    
C33   H5    S    
C114  C115  A    
C14   C86   A    
C45   N5    A    
C137  C142  A    
N1    N29   A    
C42   C97   S    
N13   N21   A    
C117  C118  A    
C62   H14   S    
C53   C57   A    
C131  C136  A    
C145  C146  A    
C39   C43   A    
C103  C104  A    
C82   N18   A    
C12   C84   A    
C45   H21   S    
C25   C26   A    
N24   Ni4   S    
C5    C45   A    
C126  H73   S    
C76   N12   A    
C17   C21   A    
C110  C111  A    
N9    N17   A    
C16   C80   A    
C74   N10   A    
C37   C101  S    
C82   H34   S    
C19   C23   A    
C113  C114  A    
C8    C48   A    
C122  C123  A    
N20   Ni8   S    
C75   N11   A    
C73   N9    A    
C96   H44   S    
C33   C39   A    
C93   C97   A    
C47   H23   S    
C31   C32   S    
C73   H25   S    
C28   H100  S    
C68   C72   A    
C7    C91   A    
C72   H20   S    
C17   C18   A    
C86   H94   S    
C13   C21   S    
C105  H56   S    
C2    H2    S    
C18   C29   S    
N4    N32   A    
C43   C100  S    
C81   H33   S    
N30   Ni1   S    
C80   H32   S    
C121  H69   S    
C127  H74   S    
C42   C50   A    
C8    C92   A    
C115  H64   S    
C108  H58   S    
C115  C116  A    
C55   C137  S    
C101  C106  A    
C119  C120  A    
C54   C131  S    
C48   N8    A    
N26   Ni5   S    
C61   H13   S    
C128  H75   S    
C76   H28   S    
N5    N25   A    
N13   Ni6   S    
N6    N26   A    
C53   C125  S    
C137  C138  A    
C92   H40   S    
C1    H1    S    
C12   C76   A    
C140  H85   S    
C93   H41   S    
C131  C132  A    
N14   N22   A    
C49   H9    S    
C103  H54   S    
C54   C58   A    
C3    H3    S    
C133  H79   S    
C62   C65   A    
C21   C25   A    
C126  C127  A    
C84   H36   S    
C33   C57   A    
C96   N32   A    
C61   C66   A    
C46   N6    A    
C109  C110  A    
C81   N17   A    
C143  C148  A    
C94   N30   A    
C142  H87   S    
C24   C28   A    
C1    C97   A    
C47   N7    A    
C138  C139  A    
C36   C60   A    
C49   C55   A    
C105  C106  A    
N10   N18   A    
C48   H24   S    
C123  H71   S    
C10   C82   A    
C110  H60   S    
C4    H4    S    
N7    Ni7   S    
N31   Ni4   S    
N1    Ni1   S    
C18   C22   A    
C91   N27   A    
C2    N2    A    
C7    C47   A    
C63   C68   A    
C89   H37   S    
C112  H62   S    
N18   Ni6   S    
C71   H19   S    
C130  H77   S    
N11   N19   A    
C71   C72   A    
C14   C22   S    
C141  C142  A    
C148  H92   S    
C78   H30   S    
C85   N21   A    
C123  C124  A    
C2    C98   A    
C6    C90   A    
C50   C56   A    
C8    C60   S    
C36   C38   A    
C10   C74   A    
N28   Ni7   S    
C11   C83   A    
C134  H80   S    
C66   C70   A    
N29   Ni2   S    
C70   H18   S    
C65   C69   A    
C43   C51   A    
N2    N30   A    
C30   H50   S    
C69   H17   S    
C128  C129  A    
C44   C99   S    
C29   H45   S    
C118  H67   S    
C102  C103  A    
C93   N29   A    
C67   C71   A    
N16   N24   A    
C40   C119  S    
C69   C70   A    
N14   Ni5   S    
C87   H95   S    
N25   Ni6   S    
C133  C134  A    
C35   H7    S    
C38   C42   A    
C51   C53   A    
C29   C30   S    
C63   C64   A    
C102  H53   S    
N3    Ni3   S    
C40   C44   A    
C96   C100  A    
C56   C60   A    
C107  C108  A    
N12   N20   A    
C16   C24   S    
C101  C102  A    
C22   C26   A    
N10   Ni1   S    
C13   C85   A    
C106  H57   S    
C34   C58   A    
C52   H12   S    
C143  C144  A    
C46   H22   S    
C11   C75   A    
C31   H47   S    
C138  H83   S    
C113  C118  A    
C20   C31   S    
N17   Ni5   S    
C5    C89   A    
C144  C145  A    
C77   N13   A    
C135  C136  A    
C4    C100  A    
C75   H27   S    
C25   H97   S    
