data_mof_unit_24515.cif
_audit_creation_date              2012-12-11T17:01:25-0500
_audit_creation_method            fapswitch 2.2
_symmetry_space_group_name_H-M    P1
_symmetry_Int_Tables_number       1
_space_group_crystal_system       triclinic
_cell_length_a                    15.080674
_cell_length_b                    14.928194
_cell_length_c                    14.872163
_cell_angle_alpha                 109.447669
_cell_angle_beta                  109.160726
_cell_angle_gamma                 109.635302
_cell_volume                      2582.74922151

loop_
_atom_site_label
_atom_site_type_symbol
_atom_type_description
_atom_site_fract_x
_atom_site_fract_y
_atom_site_fract_z
_atom_type_partial_charge
C1    C     C_R   0.005961 0.804408 0.098911 -0.155588
C2    C     C_R   0.210603 0.804761 0.300347 -0.158329
C3    C     C_R   0.962734 0.411985 0.228227 -0.126385
C4    C     C_R   0.779246 0.248449 0.685498 0.677659
C5    C     C_R   0.300434 0.591925 0.998188 -0.152328
C6    C     C_R   0.041608 0.504793 0.329762 0.076832
C7    C     C_R   0.300944 0.500583 0.935529 0.106627
C8    C     C_R   0.303192 0.864974 0.300016 0.143023
C9    C     C_R   0.036009 0.208563 0.036854 0.075433
C10   C     C_3   0.472912 0.394277 0.846093 -0.503093
C11   C     C_3   0.369733 0.387804 0.846673 0.631582
C12   C     C_R   0.676130 0.211328 0.670927 -0.041546
C13   C     C_3   0.571744 0.519469 0.052304 -0.414059
C14   C     C_3   0.565554 0.598243 0.921745 -0.162116
C15   C     C_3   0.574488 0.505204 0.945382 0.228238
C16   C     C_R   0.097565 0.593648 0.794530 -0.146702
C17   C     C_3   0.396811 0.501538 0.931873 0.172873
C18   C     C_3   0.473020 0.527579 0.048094 -0.560617
C19   C     C_3   0.456497 0.592617 0.909536 -0.162925
C20   C     C_R   0.579936 0.099092 0.469805 0.175732
C21   C     C_R   0.577775 0.152370 0.565620 -0.162470
C22   C     C_R   0.476962 0.135197 0.557677 0.746876
C23   C     C_R   0.072709 0.504772 0.702989 0.015836
C24   C     C_R   0.381412 0.046573 0.462848 -0.377669
C25   C     C_R   0.387990 0.977790 0.377045 -0.047341
C26   C     C_R   0.486072 0.013103 0.376666 0.122987
C27   C     C_3   0.540807 0.949701 0.347900 -0.599825
C28   C     C_R   0.685432 0.410388 0.946793 -0.103435
C29   C     C_3   0.643747 0.043665 0.449853 -0.328334
C30   C     C_R   0.151706 0.608525 0.533079 0.153031
C31   C     C_R   0.092658 0.509113 0.434113 0.033720
C32   C     C_R   0.072442 0.412295 0.439083 -0.209187
C33   C     C_R   0.082902 0.412613 0.536178 -0.140724
C34   C     C_R   0.675234 0.502801 0.960506 0.081742
C35   C     C_R   0.112792 0.509698 0.626894 0.043170
C36   C     C_R   0.161487 0.608907 0.628654 0.153411
C37   C     C_3   0.151284 0.709454 0.668159 -0.511328
C38   C     C_3   0.141069 0.709055 0.563855 -0.512063
C39   C     C_R   0.055136 0.032498 0.160777 0.178248
C40   C     C_R   0.011489 0.412154 0.703382 0.060786
C41   C     C_R   0.102561 0.984048 0.109225 0.027519
C42   C     C_R   0.167020 0.042777 0.076328 -0.197398
C43   C     C_R   0.156512 0.128567 0.065275 -0.197645
C44   C     C_R   0.081547 0.154358 0.087034 0.030239
C45   C     C_R   0.063033 0.594287 0.314851 -0.147088
C46   C     C_R   0.043725 0.116147 0.148719 0.172575
C47   C     C_3   0.934838 0.074450 0.141464 -0.535752
C48   C     C_3   0.947669 0.983727 0.155501 -0.526369
C49   C     C_R   0.778405 0.593692 0.031184 -0.150369
C50   C     C_R   0.685113 0.235045 0.773161 -0.202132
C51   C     C_R   0.093150 0.804113 0.003788 -0.117387
C52   C     C_R   0.066263 0.868050 0.069075 0.079155
C53   C     C_R   0.209092 0.408904 0.904980 -0.165224
C54   C     C_R   0.299007 0.800972 0.206233 -0.145898
C55   C     C_R   0.961262 0.236378 0.051967 -0.141420
C56   C     C_R   0.059569 0.242914 0.967253 -0.131274
F1    F     F_    0.290263 0.351435 0.742236 -0.712473
F2    F     F_    0.807879 0.249259 0.608803 -0.762076
F3    F     F_    0.470590 0.194856 0.644409 -0.727274
H1    H     H_    0.989514 0.832665 0.165190 0.102918
H2    H     H_    0.468829 0.387069 0.767728 0.235899
H3    H     H_    0.338636 0.326051 0.870897 0.010877
H4    H     H_    0.568309 0.447871 0.062366 0.167728
H5    H     H_    0.430204 0.469567 0.070804 0.181190
H6    H     H_    0.566897 0.582873 0.843719 0.129630
H7    H     H_    0.475279 0.672549 0.972588 0.121089
H8    H     H_    0.646229 0.593793 0.126036 0.177311
H9    H     H_    0.500123 0.611767 0.110888 0.195785
H10   H     H_    0.159756 0.677621 0.831552 0.105198
H11   H     H_    0.305045 0.025659 0.462057 0.174880
H12   H     H_    0.179398 0.324256 0.848693 0.128649
H13   H     H_    0.512549 0.873067 0.352440 0.212542
H14   H     H_    0.543072 0.940131 0.271399 0.193957
H15   H     H_    0.674691 0.021333 0.513054 0.174525
H16   H     H_    0.704343 0.086278 0.430111 0.231445
H17   H     H_    0.036064 0.334598 0.365905 0.127982
H18   H     H_    0.053192 0.334751 0.534024 0.142483
H19   H     H_    0.075679 0.694157 0.672327 0.206808
H20   H     H_    0.227050 0.781068 0.742735 0.187809
H21   H     H_    0.059887 0.693342 0.509605 0.201243
H22   H     H_    0.623207 0.328698 0.915317 0.100700
H23   H     H_    0.347005 0.827286 0.170266 0.102774
H24   H     H_    0.211172 0.780241 0.578342 0.195138
H25   H     H_    0.213149 0.014015 0.044784 0.125162
H26   H     H_    0.196163 0.163704 0.026969 0.126111
H27   H     H_    0.934933 0.131892 0.212044 0.192003
H28   H     H_    0.866786 0.042133 0.058971 0.198263
H29   H     H_    0.956152 0.989315 0.234611 0.197940
H30   H     H_    0.886091 0.902040 0.081320 0.202066
H31   H     H_    0.994864 0.330237 0.654808 0.134603
H32   H     H_    0.803327 0.679404 0.069941 0.118991
H33   H     H_    0.619576 0.206718 0.789314 0.179717
H34   H     H_    0.918914 0.214777 0.092913 0.099660
H35   H     H_    0.151680 0.831737 0.978478 0.082454
H36   H     H_    0.120761 0.679257 0.374849 0.112137
H37   H     H_    0.653964 0.731706 0.080024 0.117797
H38   H     H_    0.649776 0.764402 0.981101 0.104632
H39   H     H_    0.422309 0.648172 0.800578 0.086625
H40   H     H_    0.386208 0.515410 0.739529 0.186390
H41   H     H_    0.113326 0.233431 0.936493 0.093024
H42   H     H_    0.181368 0.835720 0.354070 0.095762
H43   H     H_    0.918503 0.330964 0.214528 0.087037
H44   H     H_    0.356914 0.677194 0.031232 0.084433
H45   H     H_    0.473726 0.321107 0.847895 0.167200
N1    N     N_R   0.995640 0.706130 0.053910 -0.036693
N2    N     N_R   0.054010 0.556790 0.847890 -0.047167
N3    N     N_R   0.789940 0.443190 0.997130 -0.042811
N4    N     N_R   0.997630 0.443170 0.791110 -0.045214
N5    N     N_R   0.846320 0.556810 0.053910 -0.044715
N6    N     N_R   0.791080 0.293860 0.847890 -0.083169
N7    N     N_R   0.052880 0.706130 0.997130 -0.038157
N8    N     N_R   0.002370 0.556830 0.208890 -0.041172
N9    N     N_3   0.656658 0.708636 0.006846 -0.226897
N10   N     N_3   0.387529 0.575518 0.802116 -0.186715
N11   N     N_R   0.153680 0.443190 0.946090 -0.046239
N12   N     N_R   0.208920 0.706140 0.152110 -0.041459
N13   N     N_R   0.947120 0.293870 0.002870 -0.041110
N14   N     N_R   0.004360 0.293870 0.946090 -0.046192
N15   N     N_R   0.151690 0.706140 0.208890 -0.039785
N16   N     N_R   0.945990 0.443210 0.152110 -0.039909
N17   N     N_R   0.210060 0.556810 0.002870 -0.037751
N18   N     N_R   0.848310 0.293860 0.791110 -0.111895
Ni1   Ni    Ni4+2 0.999010 0.630300 0.130220 0.206372
Ni2   Ni    Ni4+2 0.000990 0.369700 0.869780 0.232344
Ni3   Ni    Ni4+2 0.130280 0.630280 0.000000 0.203316
Ni4   Ni    Ni4+2 0.869720 0.369720 0.000000 0.203002

loop_
_geom_bond_atom_site_label_1
_geom_bond_atom_site_label_2
_ccdc_geom_bond_type
C5    H44   S    
N11   N17   A    
C6    C45   A    
C38   H24   S    
C27   C29   S    
C41   C42   A    
C35   C36   A    
C55   H34   S    
C11   H3    S    
C18   H5    S    
H40   N10   S    
C45   N8    A    
C24   H11   S    
C39   C41   A    
C37   H20   S    
N2    Ni3   S    
N1    Ni1   S    
C26   C27   S    
C20   C26   A    
C13   C18   S    
C49   N5    A    
C36   C37   S    
C49   H32   S    
C10   C15   S    
C13   H8    S    
C30   C31   A    
N16   Ni4   S    
H39   N10   S    
C28   N3    A    
C18   H9    S    
C23   C40   A    
C5    N17   A    
C50   N6    A    
C30   C38   S    
C19   H7    S    
C17   C19   S    
C31   C32   A    
C7    C17   S    
C54   N12   A    
N7    Ni3   S    
C48   H29   S    
C9    C55   A    
C4    C12   A    
N13   Ni4   S    
C15   C34   S    
C16   N2    A    
C40   N4    A    
C3    C6    A    
C6    C31   S    
N1    N7    A    
C28   C34   A    
C21   C22   A    
C8    C25   S    
N3    N5    A    
N4    Ni2   S    
C44   C46   A    
C20   C29   S    
C51   C52   A    
C43   H26   S    
C47   H27   S    
C42   H25   S    
C24   C25   A    
N8    Ni1   S    
C3    N16   A    
C1    H1    S    
C8    C54   A    
C22   F3    S    
C5    C7    A    
N5    Ni1   S    
C29   H15   S    
C2    H42   S    
C25   C26   A    
C12   C21   S    
C47   H28   S    
C43   C44   A    
N17   Ni3   S    
C37   C38   S    
C47   C48   S    
C13   H4    S    
C17   C18   S    
C4    N18   A    
C9    C56   A    
N14   Ni2   S    
C9    C44   S    
N6    Ni4   S    
C39   C46   A    
C3    H43   S    
C50   H33   S    
C16   C23   A    
C23   C35   S    
C48   H30   S    
C13   C15   S    
C22   C24   A    
H37   N9    S    
C10   H2    S    
C42   C43   A    
C7    C53   A    
N18   Ni2   S    
C45   H36   S    
C54   H23   S    
N8    N16   A    
C55   N13   A    
C46   C47   S    
C11   C17   S    
C34   C49   A    
C51   N7    A    
N11   Ni2   S    
C41   C52   S    
C28   H22   S    
C56   N14   A    
C14   C19   S    
C2    C8    A    
C16   H10   S    
N3    Ni4   S    
C32   H17   S    
C12   C50   A    
C2    N15   A    
C29   H16   S    
N15   Ni1   S    
C14   N9    S    
C37   H19   S    
C19   N10   S    
N12   N15   A    
C30   C36   A    
N12   Ni3   S    
C32   C33   A    
C10   H45   S    
C27   H14   S    
N13   N14   A    
N6    N18   A    
C33   H18   S    
N2    N4    A    
C33   C35   A    
C14   H6    S    
C1    C52   A    
C10   C11   S    
C51   H35   S    
C20   C21   A    
C38   H21   S    
C4    F2    S    
C56   H41   S    
C14   C15   S    
C40   H31   S    
C11   F1    S    
H38   N9    S    
C27   H13   S    
C53   N11   A    
C1    N1    A    
C39   C48   S    
C53   H12   S    
