data_mof_unit_20360.cif
_audit_creation_date              2013-03-05T15:44:37-0500
_audit_creation_method            fapswitch 2.2
_symmetry_space_group_name_H-M    P1
_symmetry_Int_Tables_number       1
_space_group_crystal_system       triclinic
_cell_length_a                    18.993958
_cell_length_b                    10.936968
_cell_length_c                    18.844576
_cell_angle_alpha                 90.127135
_cell_angle_beta                  89.993958
_cell_angle_gamma                 89.921817
_cell_volume                      3914.6893927

loop_
_atom_site_label
_atom_site_type_symbol
_atom_site_description
_atom_site_fract_x
_atom_site_fract_y
_atom_site_fract_z
_atom_type_partial_charge
O1    O     O_R   0.787540 0.042690 0.170470 -0.491238
O2    O     O_R   0.212460 0.042690 0.829530 -0.521847
O3    O     O_R   0.287540 0.542690 0.170470 -0.491373
O4    O     O_R   0.712460 0.542690 0.829530 -0.521598
O5    O     O_R   0.765660 0.292160 0.175050 -0.439829
O6    O     O_R   0.234340 0.292160 0.824950 -0.455965
O7    O     O_R   0.265660 0.792160 0.175050 -0.439835
O8    O     O_R   0.734340 0.792160 0.824950 -0.455763
C1    C     C_R   0.730792 0.377269 0.145938 0.575213
C2    C     C_R   0.271948 0.372705 0.856349 0.600894
C3    C     C_R   0.230788 0.877268 0.145935 0.575295
C4    C     C_R   0.771958 0.872670 0.856359 0.600831
O9    O     O_R   0.670190 0.408980 0.168550 -0.508307
O10   O     O_R   0.329810 0.408980 0.831450 -0.488541
O11   O     O_R   0.170190 0.908980 0.168550 -0.508312
O12   O     O_R   0.829810 0.908980 0.831450 -0.488497
O13   O     O_R   0.556580 0.251450 0.175160 -0.524890
O14   O     O_R   0.443420 0.251450 0.824840 -0.535458
O15   O     O_R   0.056580 0.751450 0.175160 -0.524945
O16   O     O_R   0.943420 0.751450 0.824840 -0.535461
C5    C     C_R   0.530583 0.156526 0.147320 0.538857
C6    C     C_R   0.467696 0.155218 0.853974 0.543339
C7    C     C_R   0.030572 0.656534 0.147328 0.538857
C8    C     C_R   0.967681 0.655212 0.853985 0.543241
O17   O     O_R   0.545920 0.049510 0.170320 -0.461792
O18   O     O_R   0.454080 0.049510 0.829680 -0.466802
O19   O     O_R   0.045920 0.549510 0.170320 -0.461579
O20   O     O_R   0.954080 0.549510 0.829680 -0.466790
O21   O     O_R   0.681390 0.957840 0.176710 -0.444506
O22   O     O_R   0.318610 0.957840 0.823290 -0.456853
O23   O     O_R   0.181390 0.457840 0.176710 -0.444456
O24   O     O_R   0.818610 0.457840 0.823290 -0.456925
C9    C     C_R   0.741665 0.965233 0.148574 0.555769
C10   C     C_R   0.258742 0.970022 0.853069 0.564617
C11   C     C_R   0.241672 0.465236 0.148576 0.555756
C12   C     C_R   0.758746 0.470042 0.853077 0.564630
O25   O     O_R   0.787500 0.044280 0.330990 -0.506560
O26   O     O_R   0.212500 0.044280 0.669010 -0.502691
O27   O     O_R   0.287500 0.544280 0.330990 -0.506554
O28   O     O_R   0.712500 0.544280 0.669010 -0.502676
O29   O     O_R   0.765610 0.293630 0.323860 -0.446574
O30   O     O_R   0.234390 0.293630 0.676140 -0.443125
O31   O     O_R   0.265610 0.793630 0.323860 -0.446561
O32   O     O_R   0.734390 0.793630 0.676140 -0.443138
C13   C     C_R   0.728908 0.376574 0.353882 0.585372
C14   C     C_R   0.271103 0.376373 0.646113 0.593553
C15   C     C_R   0.228908 0.876573 0.353882 0.585398
C16   C     C_R   0.771103 0.876373 0.646112 0.593526
O33   O     O_R   0.670140 0.410570 0.329080 -0.486290
O34   O     O_R   0.329860 0.410570 0.670920 -0.481554
O35   O     O_R   0.170140 0.910570 0.329080 -0.486277
O36   O     O_R   0.829860 0.910570 0.670920 -0.481557
O37   O     O_R   0.556540 0.252920 0.323970 -0.505067
O38   O     O_R   0.443460 0.252920 0.676030 -0.503070
O39   O     O_R   0.056540 0.752920 0.323970 -0.505075
O40   O     O_R   0.943460 0.752920 0.676030 -0.503069
C17   C     C_R   0.531495 0.157900 0.353493 0.535040
C18   C     C_R   0.468535 0.157694 0.646552 0.542202
C19   C     C_R   0.031495 0.657900 0.353493 0.535008
C20   C     C_R   0.968534 0.657694 0.646552 0.542214
O41   O     O_R   0.545870 0.051100 0.330840 -0.471960
O42   O     O_R   0.454130 0.051100 0.669160 -0.467959
O43   O     O_R   0.045870 0.551100 0.330840 -0.471997
O44   O     O_R   0.954130 0.551100 0.669160 -0.467946
O45   O     O_R   0.681340 0.959300 0.325510 -0.453316
O46   O     O_R   0.318660 0.959300 0.674490 -0.450607
O47   O     O_R   0.181340 0.459300 0.325510 -0.453329
O48   O     O_R   0.818660 0.459300 0.674490 -0.450606
C21   C     C_R   0.742242 0.967437 0.353251 0.551631
C22   C     C_R   0.257765 0.967194 0.646760 0.560680
C23   C     C_R   0.242242 0.467437 0.353251 0.551642
C24   C     C_R   0.757765 0.467194 0.646760 0.560682
Cr1   Cr    Cr6+3 0.772000 0.169640 0.250110 1.160482
Cr2   Cr    Cr6+3 0.228000 0.169640 0.749890 1.148004
Cr3   Cr    Cr6+3 0.272000 0.669640 0.250110 1.160469
Cr4   Cr    Cr6+3 0.728000 0.669640 0.749890 1.148201
Cr5   Cr    Cr6+3 0.614960 0.323350 0.249260 1.077667
Cr6   Cr    Cr6+3 0.385040 0.323350 0.750740 1.086852
Cr7   Cr    Cr6+3 0.114960 0.823350 0.249260 1.077658
Cr8   Cr    Cr6+3 0.885040 0.823350 0.750740 1.086818
Cr9   Cr    Cr6+3 0.616670 0.010620 0.250840 1.185573
Cr10  Cr    Cr6+3 0.383330 0.010620 0.749160 1.180876
Cr11  Cr    Cr6+3 0.116670 0.510620 0.250840 1.185616
Cr12  Cr    Cr6+3 0.883330 0.510620 0.749160 1.180847
O49   O     O_3   0.667880 0.167870 0.250070 -0.308849
O50   O     O_3   0.332120 0.167870 0.749930 -0.317285
O51   O     O_3   0.167880 0.667870 0.250070 -0.308859
O52   O     O_3   0.832120 0.667870 0.749930 -0.317332
H1    H     H_    0.476347 0.977631 0.070214 0.240306
H2    H     H_    0.469575 0.970363 0.944682 0.233421
H3    H     H_    0.976004 0.477806 0.070309 0.240188
H4    H     H_    0.969302 0.470431 0.944752 0.233188
C25   C     C_R   0.491588 0.162860 0.927923 0.017001
C26   C     C_R   0.498877 0.169859 0.076670 -0.017991
C27   C     C_R   0.991529 0.662845 0.927952 0.016777
C28   C     C_R   0.998813 0.669912 0.076701 -0.018033
C29   C     C_R   0.505293 0.275709 0.962349 0.008963
C30   C     C_R   0.502827 0.281093 0.037585 0.010480
C31   C     C_R   0.005281 0.775688 0.962362 0.008949
C32   C     C_R   0.002823 0.781117 0.037598 0.010480
C33   C     C_R   0.483283 0.061718 0.041404 -0.116507
C34   C     C_R   0.481207 0.057554 0.968759 -0.088643
C35   C     C_R   0.983077 0.561816 0.041463 -0.116459
C36   C     C_R   0.981030 0.557597 0.968811 -0.088877
C37   C     C_R   0.520136 0.383628 0.924151 -0.103432
C38   C     C_R   0.503540 0.397352 0.070772 -0.104047
C39   C     C_R   0.020125 0.883576 0.924144 -0.103589
C40   C     C_R   0.003564 0.897394 0.070766 -0.104064
C41   C     C_R   0.022039 0.996312 0.958292 -0.096815
C42   C     C_R   0.012663 0.003584 0.031215 -0.080190
C43   C     C_R   0.522104 0.496345 0.958332 -0.096771
C44   C     C_R   0.512687 0.503561 0.031253 -0.080250
H5    H     H_    0.530447 0.382553 0.867774 0.153761
H6    H     H_    0.492903 0.408805 0.126683 0.151892
H7    H     H_    0.030439 0.882477 0.867768 0.153744
H8    H     H_    0.992954 0.908879 0.126679 0.151926
H9    H     H_    0.029424 0.078306 0.927615 0.218997
H10   H     H_    0.012477 0.091775 0.057327 0.228456
H11   H     H_    0.529575 0.578378 0.927699 0.218846
H12   H     H_    0.512513 0.591725 0.057393 0.228513
C45   C     C_R   0.691562 0.866603 0.038986 0.173146
C46   C     C_R   0.300162 0.853997 0.960048 0.177226
C47   C     C_R   0.191595 0.366631 0.038989 0.173325
C48   C     C_R   0.800147 0.353983 0.960047 0.177194
C49   C     C_R   0.695333 0.873365 0.964219 0.177551
C50   C     C_R   0.303142 0.851116 0.034928 0.176930
C51   C     C_R   0.195325 0.373437 0.964218 0.177279
C52   C     C_R   0.803131 0.351056 0.034925 0.176886
C53   C     C_R   0.760722 0.895339 0.931909 -0.005718
C54   C     C_R   0.251238 0.915565 0.074599 -0.022434
C55   C     C_R   0.260698 0.395486 0.931889 -0.005794
C56   C     C_R   0.751269 0.415583 0.074613 -0.022489
C57   C     C_R   0.820859 0.913698 0.973905 -0.134487
C58   C     C_R   0.204700 0.994035 0.040278 -0.172018
C59   C     C_R   0.320836 0.413966 0.973870 -0.134443
C60   C     C_R   0.704786 0.494177 0.040314 -0.172166
H13   H     H_    0.872420 0.925200 0.950573 0.188752
H14   H     H_    0.165044 0.044888 0.069034 0.212241
H15   H     H_    0.372388 0.425556 0.950530 0.188876
H16   H     H_    0.665176 0.545109 0.069089 0.212184
C61   C     C_R   0.815843 0.918785 0.046631 -0.145627
C62   C     C_R   0.204291 0.001589 0.968003 -0.186678
C63   C     C_R   0.315844 0.419002 0.046596 -0.145742
C64   C     C_R   0.704371 0.501753 0.968038 -0.186714
H17   H     H_    0.862198 0.940644 0.077357 0.180444
H18   H     H_    0.167355 0.064733 0.944545 0.201809
H19   H     H_    0.362199 0.440914 0.077309 0.180554
H20   H     H_    0.667471 0.564975 0.944595 0.201853
C65   C     C_R   0.750853 0.905610 0.079376 -0.020014
C66   C     C_R   0.251236 0.932655 0.926920 -0.021616
C67   C     C_R   0.250876 0.405680 0.079363 -0.020092
C68   C     C_R   0.751257 0.432725 0.926937 -0.021609
C69   C     C_R   0.500032 0.058429 0.463607 -0.135196
C70   C     C_R   0.499628 0.058231 0.536068 -0.135640
C71   C     C_R   0.000034 0.558428 0.463607 -0.135195
C72   C     C_R   0.999629 0.558231 0.536068 -0.135640
H21   H     H_    0.500822 0.970972 0.437208 0.258774
H22   H     H_    0.498553 0.970695 0.562135 0.258173
H23   H     H_    0.000824 0.470972 0.437208 0.258773
H24   H     H_    0.998554 0.470695 0.562136 0.258173
C73   C     C_R   0.496104 0.167400 0.574224 -0.046170
C74   C     C_R   0.503957 0.167760 0.425874 -0.046586
C75   C     C_R   0.996105 0.667400 0.574224 -0.046172
C76   C     C_R   0.003958 0.667759 0.425874 -0.046582
C77   C     C_R   0.500068 0.280412 0.537464 0.262726
C78   C     C_R   0.500358 0.280614 0.463094 0.262778
C79   C     C_R   0.000068 0.780412 0.537463 0.262725
C80   C     C_R   0.000357 0.780613 0.463094 0.262780
C81   C     C_R   0.813591 0.950211 0.459687 -0.155809
C82   C     C_R   0.186271 0.949510 0.540489 -0.154752
C83   C     C_R   0.313591 0.450209 0.459687 -0.155807
C84   C     C_R   0.686271 0.449511 0.540489 -0.154755
H25   H     H_    0.858680 0.986692 0.431919 0.227232
H26   H     H_    0.141093 0.985709 0.568430 0.227879
H27   H     H_    0.358681 0.486689 0.431919 0.227231
H28   H     H_    0.641093 0.485710 0.568430 0.227881
C85   C     C_R   0.815089 0.948822 0.532328 -0.128729
C86   C     C_R   0.184784 0.948618 0.467854 -0.127617
C87   C     C_R   0.315090 0.448821 0.532328 -0.128733
C88   C     C_R   0.684784 0.448619 0.467854 -0.127617
H29   H     H_    0.862948 0.980275 0.557662 0.249720
H30   H     H_    0.136859 0.980069 0.442634 0.250360
H31   H     H_    0.362949 0.480272 0.557661 0.249719
H32   H     H_    0.636859 0.480070 0.442634 0.250362
C89   C     C_R   0.757653 0.904493 0.571341 -0.027343
C90   C     C_R   0.242336 0.904708 0.428680 -0.026583
C91   C     C_R   0.257653 0.404494 0.571341 -0.027344
C92   C     C_R   0.742336 0.404709 0.428680 -0.026580
C93   C     C_R   0.697623 0.859116 0.535354 0.168292
C94   C     C_R   0.302504 0.859310 0.464454 0.169139
C95   C     C_R   0.197623 0.359118 0.535354 0.168298
C96   C     C_R   0.802504 0.359310 0.464454 0.169143
C97   C     C_R   0.697847 0.855354 0.460339 0.172086
C98   C     C_R   0.302300 0.855135 0.539445 0.170300
C99   C     C_R   0.197846 0.355356 0.460339 0.172084
C100  C     C_R   0.802300 0.355135 0.539445 0.170301
C101  C     C_R   0.753470 0.913216 0.423333 -0.032846
C102  C     C_R   0.246545 0.912690 0.576658 -0.032843
C103  C     C_R   0.253469 0.413216 0.423333 -0.032842
C104  C     C_R   0.746545 0.412690 0.576658 -0.032845
N1    N     N_R   0.637159 0.819201 0.574772 0.109235
O53   O     O_R   0.612898 0.708965 0.566952 -0.256545
O54   O     O_R   0.610936 0.888833 0.624258 -0.317336
N2    N     N_R   0.363047 0.819751 0.424828 0.109589
O55   O     O_R   0.387454 0.709429 0.432034 -0.255879
O56   O     O_R   0.388871 0.889495 0.375420 -0.326827
N3    N     N_R   0.137159 0.319205 0.574773 0.109237
O57   O     O_R   0.112903 0.208965 0.566960 -0.256555
O58   O     O_R   0.110936 0.388840 0.624258 -0.317325
N4    N     N_R   0.863047 0.319752 0.424828 0.109592
O59   O     O_R   0.887454 0.209430 0.432033 -0.255879
O60   O     O_R   0.888871 0.389497 0.375420 -0.326862
N5    N     N_R   0.644611 0.789323 0.421687 0.103617
O61   O     O_R   0.578701 0.794943 0.439852 -0.246886
O62   O     O_R   0.662692 0.719449 0.368718 -0.311487
N6    N     N_R   0.355658 0.789012 0.577864 0.102417
O63   O     O_R   0.421514 0.794165 0.559503 -0.247186
O64   O     O_R   0.337731 0.719462 0.630814 -0.303108
N7    N     N_R   0.144609 0.289326 0.421688 0.103610
O65   O     O_R   0.078701 0.294935 0.439860 -0.246887
O66   O     O_R   0.162690 0.219450 0.368720 -0.311472
N8    N     N_R   0.855658 0.289012 0.577864 0.102416
O67   O     O_R   0.921514 0.294166 0.559504 -0.247192
O68   O     O_R   0.837731 0.219463 0.630814 -0.303104
N9    N     N_R   0.630282 0.816527 0.073601 0.084724
O69   O     O_R   0.568190 0.824995 0.045200 -0.303075
O70   O     O_R   0.637917 0.747226 0.129144 -0.337378
N10   N     N_R   0.344252 0.775169 0.917867 0.106191
O71   O     O_R   0.411853 0.770019 0.928408 -0.287038
O72   O     O_R   0.316583 0.709030 0.867637 -0.298952
N11   N     N_R   0.130353 0.316542 0.073642 0.085162
O73   O     O_R   0.068139 0.325896 0.045580 -0.302331
O74   O     O_R   0.138024 0.246972 0.129066 -0.337601
N12   N     N_R   0.844200 0.275120 0.917849 0.106205
O75   O     O_R   0.911796 0.269871 0.928386 -0.286933
O76   O     O_R   0.816499 0.209028 0.867618 -0.298861
N13   N     N_R   0.633354 0.864952 0.921128 0.115426
O77   O     O_R   0.616176 0.956277 0.880517 -0.314574
O78   O     O_R   0.603441 0.759736 0.910931 -0.324524
N14   N     N_R   0.357096 0.781754 0.070165 0.108738
O79   O     O_R   0.392389 0.829718 0.122413 -0.323256
O80   O     O_R   0.370523 0.669942 0.051220 -0.314566
N15   N     N_R   0.133340 0.364816 0.921141 0.115158
O81   O     O_R   0.116379 0.455577 0.879998 -0.314090
O82   O     O_R   0.102933 0.259759 0.911788 -0.324677
N16   N     N_R   0.857032 0.281528 0.070137 0.108740
O83   O     O_R   0.892377 0.329358 0.122389 -0.323229
O84   O     O_R   0.870367 0.169711 0.051152 -0.314530
O85   O     O_3   0.502182 0.391752 0.571900 -0.618481
H33   H     H_    0.526615 0.380075 0.617837 0.329256
O86   O     O_3   0.498561 0.392145 0.429128 -0.618671
H34   H     H_    0.474109 0.381022 0.383138 0.328245
O87   O     O_3   0.002181 0.891752 0.571900 -0.618484
H35   H     H_    0.026614 0.880076 0.617836 0.329250
O88   O     O_3   0.998560 0.892145 0.429128 -0.618671
H36   H     H_    0.974108 0.881021 0.383137 0.328242

loop_
_geom_bond_atom_site_label_1
_geom_bond_atom_site_label_2
_geom_bond_distance
_ccdc_geom_bond_type
C18   O42   1.272216 A    
C16   C89   1.465277 S    
Cr11  O51   1.977078 S    
O4    C12   1.265254 A    
C57   H13   1.081096 S    
C77   C78   1.401488 A    
C79   O87   1.379210 S    
O39   C19   1.272660 A    
O20   Cr12  2.070820 S    
O5    Cr1   1.954184 S    
C39   C41   1.390074 A    
N1    O53   1.299381 A    
C62   H18   1.079187 S    
C70   C73   1.393928 A    
C75   C79   1.420321 A    
C43   C44   1.387781 A    
C40   H8    1.079763 S    
C64   H20   1.079157 S    
C50   N14   1.437670 S    
O1    Cr1   2.063201 S    
C42   H10   1.081841 S    
Cr7   O51   1.974252 S    
C29   C30   1.419656 A    
C10   C66   1.458345 S    
C41   H9    1.077342 S    
O86   H34   0.990648 S    
C38   C44   1.392303 A    
N5    O61   1.299142 A    
O45   C21   1.272609 A    
C59   H15   1.081109 S    
O85   H33   0.990675 S    
C33   C34   1.370199 A    
C11   C67   1.466933 S    
C82   C86   1.369093 A    
C77   O85   1.379209 S    
C46   C66   1.411992 A    
C37   H5    1.080315 S    
N6    O64   1.301612 A    
C70   H22   1.077232 S    
O25   C21   1.274647 A    
O38   C18   1.271267 A    
O87   H35   0.990676 S    
C60   C64   1.364727 A    
C27   C31   1.417471 A    
C56   C60   1.391634 A    
C87   C91   1.403038 A    
C5    C26   1.468776 S    
C50   C54   1.422409 A    
C85   C89   1.403037 A    
N15   O81   1.301099 A    
O34   Cr6   2.067598 S    
O8    Cr4   1.950102 S    
C20   C75   1.464201 S    
O23   Cr11  1.946783 S    
C7    C28   1.468837 S    
C43   H11   1.077490 S    
O30   C14   1.276446 A    
C81   C85   1.369317 A    
O32   Cr4   1.947809 S    
C1    O9    1.274747 A    
C2    C55   1.460259 S    
H2    C34   1.078284 S    
C83   C103  1.391844 A    
C19   C76   1.464483 S    
C88   C92   1.402636 A    
C74   C78   1.419854 A    
C3    O11   1.274696 A    
N4    O59   1.299394 A    
O11   Cr7   2.073528 S    
C17   C74   1.464486 S    
C4    O12   1.259923 A    
C72   C75   1.393928 A    
O33   Cr5   2.065836 S    
N15   O82   1.298386 A    
C7    O19   1.282253 A    
C14   C91   1.465276 S    
O3    Cr3   2.063201 S    
Cr4   O52   1.977719 S    
C91   C95   1.416506 A    
O2    Cr2   2.068217 S    
C60   H16   1.080656 S    
C48   C52   1.412624 A    
C48   N12   1.439193 S    
C23   C103  1.464407 S    
Cr6   O50   1.976556 S    
C59   C63   1.374743 A    
O42   Cr10  2.069138 S    
C64   C68   1.399420 A    
Cr5   O49   1.974252 S    
O25   Cr1   2.073106 S    
C22   C102  1.463843 S    
N13   O77   1.300886 A    
C21   C101  1.464407 S    
N2    O55   1.299394 A    
N1    O54   1.301313 A    
C83   C87   1.369315 A    
C54   C58   1.391665 A    
C45   N9    1.443386 S    
N12   O76   1.301344 A    
C52   C56   1.422459 A    
C99   N7    1.440251 S    
N10   O71   1.300474 A    
C79   C80   1.401486 A    
C35   C36   1.370317 A    
C20   O44   1.272216 A    
O6    Cr2   1.950102 S    
C81   C101  1.391844 A    
C99   C103  1.416554 A    
C24   C104  1.463844 S    
N5    O62   1.301602 A    
O31   Cr3   1.943280 S    
O24   Cr12  1.949614 S    
N16   O84   1.298047 A    
C32   C40   1.415861 A    
O30   Cr2   1.947809 S    
C4    C53   1.460202 S    
O22   C10   1.274706 A    
C71   H23   1.077247 S    
N3    O57   1.299380 A    
O48   Cr12  1.950025 S    
C87   H31   1.082958 S    
C8    O20   1.269440 A    
C72   H24   1.077232 S    
C51   N15   1.433232 S    
N6    O63   1.299127 A    
C26   C33   1.387718 A    
C2    O10   1.259885 A    
C8    C27   1.467905 S    
C97   N5    1.440249 S    
C44   H12   1.081808 S    
O16   Cr8   1.949527 S    
C12   C68   1.458334 S    
O7    Cr3   1.954184 S    
O26   Cr2   2.069161 S    
C93   N1    1.436633 S    
Cr10  O50   1.974712 S    
C80   O88   1.379193 S    
C83   H27   1.080854 S    
O13   C5    1.263289 A    
O40   C20   1.271267 A    
O43   Cr11  2.066921 S    
O48   C24   1.272166 A    
O12   Cr8   2.069179 S    
C86   C90   1.402638 A    
C46   C50   1.412644 A    
O15   C7    1.263242 A    
C45   C49   1.412879 A    
C93   C97   1.414145 A    
C58   C62   1.364694 A    
O39   Cr7   1.952833 S    
O3    C11   1.283501 A    
C90   C94   1.416740 A    
C25   C29   1.417498 A    
O7    C3    1.267613 A    
C31   C32   1.419664 A    
C13   O33   1.265867 A    
O40   Cr8   1.949172 S    
O8    C4    1.278944 A    
C46   N10   1.439193 S    
N14   O80   1.298119 A    
N9    O69   1.298466 A    
C100  C104  1.416191 A    
N11   O74   1.301655 A    
C95   N3    1.436632 S    
O47   Cr11  1.950859 S    
Cr2   O50   1.977719 S    
C15   C90   1.464546 S    
O15   Cr7   1.948249 S    
O21   C9    1.264391 A    
O35   Cr7   2.065836 S    
C39   H7    1.080306 S    
C86   H30   1.082934 S    
C89   C93   1.416508 A    
C57   C61   1.374786 A    
C53   C57   1.404077 A    
C76   C80   1.419855 A    
Cr3   O51   1.977772 S    
O26   C22   1.273638 A    
N11   O73   1.298670 A    
C38   H6    1.079764 S    
O21   Cr9   1.946783 S    
C63   H19   1.080600 S    
O27   Cr3   2.073106 S    
N13   O78   1.297991 A    
O9    Cr5   2.073528 S    
C73   C77   1.420321 A    
N10   O72   1.301358 A    
C6    C25   1.467850 S    
O23   C11   1.264496 A    
C28   C35   1.387630 A    
N12   O75   1.300407 A    
C96   N4    1.436726 S    
O88   H36   0.990647 S    
C94   N2    1.436725 S    
C3    C54   1.461613 S    
C96   C100  1.414020 A    
C47   C51   1.412927 A    
C82   C102  1.391942 A    
C49   N13   1.433152 S    
C27   C36   1.400781 A    
O14   Cr6   1.949527 S    
Cr1   O49   1.977772 S    
C1    C56   1.461602 S    
N7    O65   1.299144 A    
C5    O17   1.282172 A    
N16   O83   1.301056 A    
N8    O68   1.301614 A    
O27   C23   1.274648 A    
O22   Cr10  1.949614 S    
O28   C24   1.273638 A    
H1    C33   1.077220 S    
O2    C10   1.265280 A    
O14   C6    1.273994 A    
H4    C36   1.078287 S    
C19   O43   1.272027 A    
C47   C67   1.424467 A    
C100  N8    1.440408 S    
Cr12  O52   1.974712 S    
H3    C35   1.077173 S    
O17   Cr9   2.071448 S    
O37   C17   1.272660 A    
C25   C34   1.400740 A    
C58   H14   1.080635 S    
C15   O35   1.265867 A    
N14   O79   1.301068 A    
O24   C12   1.274709 A    
C13   C92   1.464547 S    
C17   O41   1.272026 A    
C82   H26   1.080915 S    
C61   H17   1.080609 S    
C71   C76   1.394631 A    
C31   C39   1.412499 A    
C92   C96   1.416741 A    
C14   O34   1.266661 A    
C55   C59   1.404130 A    
C78   O86   1.379193 S    
C30   C38   1.415836 A    
O29   C13   1.274710 A    
O44   Cr12  2.069138 S    
C69   C74   1.394630 A    
C97   C101  1.416551 A    
C52   N16   1.437682 S    
C62   C66   1.399391 A    
C51   C55   1.404428 A    
O19   Cr11  2.071448 S    
C69   C70   1.365524 A    
C29   C37   1.412584 A    
C61   C65   1.387825 A    
Cr8   O52   1.976556 S    
O32   C16   1.276445 A    
O41   Cr9   2.066921 S    
C41   C42   1.387774 A    
O46   Cr10  1.950025 S    
N2    O56   1.301317 A    
O13   Cr5   1.948249 S    
C81   H25   1.080853 S    
C84   C88   1.369093 A    
C48   C68   1.411958 A    
C98   C102  1.416192 A    
C40   C42   1.392320 A    
C85   H29   1.082958 S    
C28   C32   1.425571 A    
C63   C67   1.387799 A    
C94   C98   1.414021 A    
N9    O70   1.301661 A    
C45   C65   1.424651 A    
C84   C104  1.391942 A    
O47   C23   1.272608 A    
N7    O66   1.301603 A    
O10   Cr6   2.069179 S    
C69   H21   1.077246 S    
N8    O67   1.299127 A    
C95   C99   1.414145 A    
O4    Cr4   2.068217 S    
O6    C2    1.279021 A    
O1    C9    1.283618 A    
O29   Cr1   1.943280 S    
C37   C43   1.390198 A    
C84   H28   1.080916 S    
C16   O36   1.266663 A    
C47   N11   1.443188 S    
O46   C22   1.272166 A    
O18   Cr10  2.070820 S    
C49   C53   1.404385 A    
C6    O18   1.269480 A    
O28   Cr4   2.069161 S    
C71   C72   1.365522 A    
N3    O58   1.301313 A    
C26   C30   1.425609 A    
O45   Cr9   1.950859 S    
C9    C65   1.466974 S    
O5    C1    1.267554 A    
N4    O60   1.301316 A    
O37   Cr5   1.952833 S    
O36   Cr8   2.067598 S    
C18   C73   1.464202 S    
O31   C15   1.274711 A    
O16   C8    1.274036 A    
Cr9   O49   1.977078 S    
C88   H32   1.082935 S    
C98   N6    1.440409 S    
O38   Cr6   1.949172 S    
