data_mof_unit_25812.cif
_audit_creation_date              2012-12-11T15:10:47-0500
_audit_creation_method            fapswitch 2.2
_symmetry_space_group_name_H-M    P1
_symmetry_Int_Tables_number       1
_space_group_crystal_system       triclinic
_cell_length_a                    21.132335
_cell_length_b                    7.23526
_cell_length_c                    18.248819
_cell_angle_alpha                 89.998651
_cell_angle_beta                  93.493028
_cell_angle_gamma                 89.998589
_cell_volume                      2785.02320546

loop_
_atom_site_label
_atom_site_type_symbol
_atom_type_description
_atom_site_fract_x
_atom_site_fract_y
_atom_site_fract_z
_atom_type_partial_charge
O1    O     O_R   0.448880 0.506250 0.415280 -0.526685
O2    O     O_R   0.551120 0.006250 0.584720 -0.526706
O3    O     O_R   0.434830 0.174000 0.557310 -0.517833
O4    O     O_R   0.565170 0.674000 0.442690 -0.517803
C1    C     C_R   0.416963 0.344579 0.579635 0.696603
C2    C     C_R   0.583037 0.844578 0.420365 0.696613
O5    O     O_R   0.441680 0.176440 0.414130 -0.527792
O6    O     O_R   0.558320 0.676440 0.585870 -0.527768
O7    O     O_R   0.558020 0.007570 0.440520 -0.515586
O8    O     O_R   0.441980 0.507570 0.559480 -0.515562
C3    C     C_R   0.428150 0.345104 0.388184 0.767783
C4    C     C_R   0.571851 0.845097 0.611816 0.767794
O9    O     O_3   0.538160 0.339670 0.508820 -0.368424
O10   O     O_3   0.461840 0.839670 0.491180 -0.368432
V1    V     V_3+5 0.492920 0.064260 0.498360 1.546411
V2    V     V_3+5 0.507080 0.564260 0.501640 1.546505
C5    C     C_R   0.874874 0.006411 0.687074 0.423715
C6    C     C_R   0.125101 0.505970 0.312947 0.423721
C7    C     C_R   0.887527 0.943765 0.818492 -0.234102
C8    C     C_R   0.112476 0.443716 0.181502 -0.234139
C9    C     C_R   0.580695 0.866415 0.747773 0.320247
C10   C     C_R   0.419317 0.366777 0.252237 0.320253
C11   C     C_R   0.615911 0.900080 0.813894 0.292374
C12   C     C_R   0.384101 0.400595 0.186128 0.292370
C13   C     C_R   0.681695 0.916704 0.815047 -0.174321
C14   C     C_R   0.318313 0.417062 0.184971 -0.174311
C15   C     C_R   0.715140 0.890371 0.751323 0.090119
C16   C     C_R   0.284865 0.390425 0.248673 0.090126
C17   C     C_R   0.678917 0.869791 0.683339 -0.043440
C18   C     C_R   0.321084 0.369681 0.316653 -0.043444
C19   C     C_R   0.783065 0.903802 0.752352 -0.037504
C20   C     C_R   0.216938 0.403731 0.247638 -0.037516
C21   C     C_R   0.811603 0.938255 0.684766 -0.136669
C22   C     C_R   0.188384 0.437901 0.315235 -0.136690
C23   C     C_R   0.775327 0.903191 0.617913 0.356754
C24   C     C_R   0.224656 0.402665 0.382075 0.356733
C25   C     C_R   0.710571 0.867529 0.618263 -0.186352
C26   C     C_R   0.289420 0.367127 0.381721 -0.186407
C27   C     C_R   0.823840 0.884413 0.817565 0.288934
C28   C     C_R   0.176177 0.384486 0.182409 0.288914
C29   C     C_R   0.911879 0.011131 0.753790 0.154655
C30   C     C_R   0.088104 0.510845 0.246228 0.154591
C31   C     C_R   0.611549 0.855443 0.681701 -0.205738
C32   C     C_R   0.388457 0.355490 0.318296 -0.205732
H1    H     H_    0.705468 0.961645 0.865871 0.211608
H2    H     H_    0.294534 0.462135 0.134169 0.211615
H3    H     H_    0.684738 0.841440 0.566206 0.113976
H4    H     H_    0.315253 0.340907 0.433768 0.114012
C33   C     C_1   0.864685 0.938880 0.132297 -0.105628
C34   C     C_1   0.135315 0.438876 0.867703 -0.105575
C35   C     C_1   0.821918 0.924772 0.176162 0.079186
C36   C     C_1   0.178082 0.424768 0.823838 0.079200
C37   C     C_1   0.771419 0.905634 0.228365 0.076475
C38   C     C_1   0.228581 0.405631 0.771635 0.076469
C39   C     C_1   0.728862 0.889017 0.272377 0.082767
C40   C     C_1   0.271138 0.389017 0.727624 0.082753
C41   C     C_1   0.678274 0.869933 0.324463 0.090482
C42   C     C_1   0.321726 0.369935 0.675537 0.090463
C43   C     C_1   0.635373 0.855914 0.368154 -0.113217
C44   C     C_1   0.364628 0.355918 0.631846 -0.113237
O11   O     O_R   0.058070 0.289240 0.940580 -0.510501
O12   O     O_R   0.941930 0.789240 0.059420 -0.510509
O13   O     O_R   0.058330 0.616740 0.085880 -0.529905
O14   O     O_R   0.941670 0.116740 0.914120 -0.529892
C45   C     C_R   0.071870 0.448784 0.112065 0.828112
C46   C     C_R   0.928131 0.948792 0.887933 0.828057
O15   O     O_R   0.065180 0.619040 0.942700 -0.530412
O16   O     O_R   0.934820 0.119040 0.057300 -0.530403
O17   O     O_R   0.948870 0.787780 0.915270 -0.513839
O18   O     O_R   0.051130 0.287780 0.084730 -0.513886
C47   C     C_R   0.083153 0.450313 0.920146 0.731923
C48   C     C_R   0.916846 0.950314 0.079854 0.731826
O19   O     O_3   0.961870 0.453310 0.991210 -0.364723
O20   O     O_3   0.038130 0.953310 0.008790 -0.364763
V3    V     V_3+5 0.007070 0.728770 0.001630 1.602813
V4    V     V_3+5 0.992930 0.228770 0.998370 1.602837
Br1   Br    Br    0.998259 0.101092 0.755803 -0.401901
Br2   Br    Br    0.001711 0.600698 0.244235 -0.401890
Br3   Br    Br    0.810078 0.866360 0.523814 -0.354264
Br4   Br    Br    0.189895 0.365449 0.476146 -0.354259
Cl1   Cl    Cl    0.906206 0.118348 0.611042 -0.386973
Cl2   Cl    Cl    0.093745 0.617632 0.389025 -0.386929
Cl3   Cl    Cl    0.800930 0.755696 0.894347 -0.633964
Cl4   Cl    Cl    0.199124 0.256068 0.105569 -0.633996
Cl5   Cl    Cl    0.497234 0.847351 0.747372 -0.553095
Cl6   Cl    Cl    0.502785 0.347929 0.252645 -0.553099
Br5   Br    Br    0.575520 0.932680 0.904372 -0.281993
Br6   Br    Br    0.424497 0.433654 0.095680 -0.281982

loop_
_geom_bond_atom_site_label_1
_geom_bond_atom_site_label_2
_ccdc_geom_bond_type
O13   C45   A    
C10   Cl6   S    
C15   C17   A    
C28   Cl4   S    
O1    C3    A    
O2    C4    A    
C2    O7    A    
O5    C3    A    
C23   C25   A    
C12   C14   A    
C4    C31   S    
C6    C30   A    
C29   Br1   S    
C8    C28   A    
C41   C43   T    
C46   O17   A    
C42   C44   T    
C45   O18   A    
C18   C26   A    
C7    C46   S    
C21   C23   A    
C9    C31   A    
C9    C11   A    
C10   C32   A    
C40   C42   S    
C16   C18   A    
C33   C35   T    
C33   C48   S    
C34   C36   T    
C19   C21   A    
C25   H3    S    
C5    Cl1   S    
C26   H4    S    
O6    C4    A    
O11   C47   A    
O5    V1    S    
O6    V2    S    
C11   Br5   S    
C17   C31   A    
C18   C32   A    
C5    C21   A    
C36   C38   S    
C9    Cl5   S    
C37   C39   T    
O11   V4    S    
C38   C40   T    
O20   V3    S    
C15   C19   A    
C8    C45   S    
C16   C20   A    
O4    C2    A    
C24   Br4   S    
C35   C37   S    
C20   C22   A    
O4    V2    S    
C34   C47   S    
C12   Br6   S    
O16   C48   A    
O14   V4    S    
O12   C48   A    
C3    C32   S    
O1    V2    S    
O2    V1    S    
C6    C22   A    
C7    C27   A    
C30   Br2   S    
C39   C41   S    
O18   V4    S    
O19   V4    S    
C10   C12   A    
O12   V3    S    
C13   C15   A    
C13   H1    S    
O3    V1    S    
C1    C44   S    
C2    C43   S    
O3    C1    A    
C8    C30   A    
O16   V4    S    
C14   C16   A    
C24   C26   A    
O7    V1    S    
C27   Cl3   S    
C1    O8    A    
O8    V2    S    
O13   V3    S    
C23   Br3   S    
C6    Cl2   S    
C22   C24   A    
C19   C27   A    
O17   V3    S    
O15   C47   A    
C20   C28   A    
C5    C29   A    
C14   H2    S    
C11   C13   A    
O15   V3    S    
O9    V2    S    
C17   C25   A    
O10   V1    S    
C7    C29   A    
O14   C46   A    
