data_mof_unit_34292.cif
_audit_creation_date              2012-12-10T16:56:32-0500
_audit_creation_method            fapswitch 2.2
_symmetry_space_group_name_H-M    P1
_symmetry_Int_Tables_number       1
_space_group_crystal_system       triclinic
_cell_length_a                    7.972939
_cell_length_b                    8.594307
_cell_length_c                    15.732603
_cell_angle_alpha                 94.277047
_cell_angle_beta                  86.161213
_cell_angle_gamma                 92.221908
_cell_volume                      1071.99522695

loop_
_atom_site_label
_atom_site_type_symbol
_atom_type_description
_atom_site_fract_x
_atom_site_fract_y
_atom_site_fract_z
_atom_type_partial_charge
C1    C     C_R   0.543871 0.793523 0.498247 0.954348
C2    C     C_R   0.456130 0.206494 0.501898 0.952327
C3    C     C_R   0.502547 0.502731 0.661439 0.884430
C4    C     C_R   0.497431 0.496845 0.338449 0.887702
C5    C     C_2   0.567243 0.956428 0.497217 -0.382760
C6    C     C_2   0.432759 0.043623 0.503193 -0.383204
C7    C     C_3   0.409125 0.603309 0.035308 0.028291
C8    C     C_3   0.580171 0.359615 0.961959 -0.009774
C9    C     C_3   0.573434 0.617310 0.978487 -0.304768
C10   C     C_3   0.415042 0.345314 0.020027 -0.410882
C11   C     C_1   0.508155 0.503508 0.750198 -0.197917
C12   C     C_1   0.490313 0.486874 0.249330 -0.182318
C13   C     C_3   0.340891 0.474780 0.972151 0.543788
C14   C     C_3   0.649734 0.488205 0.025265 0.545108
C15   C     C_3   0.503550 0.489479 0.915969 -0.009118
C16   C     C_3   0.486970 0.476246 0.082476 -0.019951
C17   C     C_1   0.509302 0.500239 0.825307 -0.030885
C18   C     C_1   0.485543 0.479150 0.173895 -0.038457
H1    H     H_    0.633076 0.727625 0.959834 0.177096
H2    H     H_    0.348940 0.235982 0.038156 0.172044
H3    H     H_    0.695572 0.004201 0.491384 0.179899
H4    H     H_    0.304434 0.995844 0.509085 0.180307
N1    N     N_2   0.950320 0.457950 0.477300 -0.068989
N2    N     N_2   0.049680 0.542050 0.522700 -0.068573
O1    O     O_R   0.389250 0.738570 0.505570 -0.625431
O2    O     O_R   0.610750 0.261430 0.494430 -0.627114
O3    O     O_R   0.678390 0.711630 0.491020 -0.656201
O4    O     O_R   0.321610 0.288370 0.508980 -0.656318
O5    O     O_R   0.355460 0.513480 0.630490 -0.634806
O6    O     O_R   0.644540 0.486520 0.369510 -0.625032
O7    O     O_R   0.644600 0.486540 0.615950 -0.631333
O8    O     O_R   0.355400 0.513460 0.384050 -0.634048
Zn1   Zn    Zn3+2 0.306940 0.517990 0.509710 0.912744
Zn2   Zn    Zn3+2 0.693060 0.482010 0.490290 0.915610
C19   C     C_3   0.321188 0.743924 0.081990 -0.392981
C20   C     C_3   0.218527 0.831455 0.023217 -0.286470
C21   C     C_3   0.127576 0.965621 0.073468 -0.950037
H5    H     H_    0.022817 0.918697 0.115307 0.282024
H6    H     H_    0.215028 0.036969 0.113773 0.262092
H7    H     H_    0.075140 0.041965 0.028769 0.247877
H8    H     H_    0.302693 0.878046 0.971344 0.202388
H9    H     H_    0.122791 0.751396 0.993679 0.285061
H10   H     H_    0.237919 0.704854 0.136141 0.216112
H11   H     H_    0.419154 0.824616 0.109414 0.197382
C22   C     C_3   0.668658 0.226578 0.908933 -0.399996
C23   C     C_3   0.683942 0.078894 0.956256 -0.358081
C24   C     C_3   0.809464 0.969455 0.907103 -0.909324
H12   H     H_    0.748849 0.904641 0.852978 0.264759
H13   H     H_    0.922316 0.033855 0.881474 0.253588
H14   H     H_    0.854117 0.885599 0.950081 0.268474
H15   H     H_    0.724032 0.106414 0.021687 0.206274
H16   H     H_    0.559141 0.017924 0.962682 0.219926
H17   H     H_    0.598599 0.194367 0.851075 0.202399
H18   H     H_    0.793804 0.272275 0.887584 0.220732
O9    O     O_3   0.812890 0.512089 0.054619 -0.593859
C25   C     C_3   0.863944 0.377685 0.090516 0.138828
H19   H     H_    0.913605 0.294437 0.039107 0.159147
H20   H     H_    0.761661 0.319714 0.129546 0.124004
C26   C     C_3   0.006312 0.422191 0.147461 -0.831960
H21   H     H_    0.965133 0.510150 0.199153 0.255467
H22   H     H_    0.050069 0.316903 0.174710 0.215978
H23   H     H_    0.112631 0.471567 0.109032 0.280967
O10   O     O_3   0.179844 0.472745 0.940155 -0.608333
C27   C     C_3   0.154897 0.338184 0.884350 0.109987
H24   H     H_    0.072933 0.253659 0.918269 0.137063
H25   H     H_    0.271185 0.275486 0.861738 0.128167
C28   C     C_3   0.071336 0.383767 0.806098 -0.840672
H26   H     H_    0.162632 0.450609 0.765899 0.264709
H27   H     H_    0.028341 0.277415 0.768001 0.213069
H28   H     H_    0.962504 0.458387 0.825191 0.266002
C29   C     C_3   0.015223 0.314221 0.435476 -0.150885
C30   C     C_3   0.919633 0.255985 0.357437 -0.380530
C31   C     C_3   0.002118 0.113910 0.310258 -0.982925
H29   H     H_    0.133449 0.143808 0.287374 0.266928
H30   H     H_    0.002784 0.016838 0.353087 0.275044
H31   H     H_    0.929874 0.074050 0.254266 0.266769
H32   H     H_    0.788709 0.220746 0.374983 0.268486
H33   H     H_    0.918386 0.350878 0.313782 0.239555
H34   H     H_    0.143461 0.334613 0.409017 0.234726
H35   H     H_    0.010167 0.222647 0.481991 0.166447
C32   C     C_3   0.984904 0.685435 0.565092 -0.154237
C33   C     C_3   0.077681 0.741063 0.644592 -0.369898
C34   C     C_3   0.006162 0.892586 0.686360 -0.974263
H36   H     H_    0.023362 0.986944 0.641666 0.267595
H37   H     H_    0.870115 0.875879 0.704688 0.269137
H38   H     H_    0.073308 0.928876 0.744569 0.266084
H39   H     H_    0.063365 0.650461 0.691425 0.232649
H40   H     H_    0.212510 0.764044 0.629173 0.272097
H41   H     H_    0.992588 0.778015 0.519113 0.168214
H42   H     H_    0.855849 0.666009 0.590479 0.232430

loop_
_geom_bond_atom_site_label_1
_geom_bond_atom_site_label_2
_ccdc_geom_bond_type
O9    C25   S    
C23   H16   S    
C31   H29   S    
C20   H9    S    
C19   C20   S    
C9    C14   S    
C29   H34   S    
C32   C33   S    
C24   H13   S    
C22   C23   S    
C30   H32   S    
C1    C5    S    
C20   C21   S    
C21   H7    S    
C5    C6    D    
C33   H39   S    
C6    H4    S    
O5    Zn1   S    
C25   H19   S    
C7    C9    S    
C3    O5    A    
C8    C22   S    
C30   H33   S    
C9    H1    S    
C34   H36   S    
C10   H2    S    
N1    N2    D    
C4    C12   S    
C19   H10   S    
C32   H41   S    
C14   O9    S    
C22   H17   S    
C26   H21   S    
C1    O1    A    
C31   H30   S    
C20   H8    S    
C2    C6    S    
C29   H35   S    
O2    Zn2   S    
C24   H14   S    
O3    Zn2   S    
C26   H22   S    
O6    Zn2   S    
C28   H26   S    
C27   C28   S    
N1    C29   S    
C23   H15   S    
C28   H27   S    
C27   H25   S    
N2    C32   S    
C21   H5    S    
C24   H12   S    
C13   O10   S    
N1    Zn2   S    
O7    Zn2   S    
C2    O2    A    
C3    O7    A    
C19   H11   S    
C4    O8    A    
C32   H42   S    
C8    C10   S    
C7    C16   S    
C34   H37   S    
C22   H18   S    
C8    C15   S    
C13   C15   S    
C31   H31   S    
C14   C16   S    
C15   C17   S    
C23   C24   S    
C11   C17   T    
C26   H23   S    
C8    C14   S    
C7    C19   S    
C30   C31   S    
C10   C13   S    
O4    Zn1   S    
N2    Zn1   S    
C25   C26   S    
C28   H28   S    
C27   H24   S    
C9    C15   S    
C29   C30   S    
C21   H6    S    
C10   C16   S    
O8    Zn1   S    
C33   H40   S    
C25   H20   S    
C3    C11   S    
O10   C27   S    
C7    C13   S    
C34   H38   S    
C5    H3    S    
C16   C18   S    
C33   C34   S    
C12   C18   T    
C1    O3    A    
C2    O4    A    
C4    O6    A    
O1    Zn1   S    
