data_mof_unit_11376.cif
_audit_creation_date              2012-12-10T19:00:12-0500
_audit_creation_method            fapswitch 2.2
_symmetry_space_group_name_H-M    P1
_symmetry_Int_Tables_number       1
_space_group_crystal_system       triclinic
_cell_length_a                    9.572078
_cell_length_b                    10.856532
_cell_length_c                    13.525277
_cell_angle_alpha                 91.350529
_cell_angle_beta                  73.639277
_cell_angle_gamma                 90.651352
_cell_volume                      1348.2358169

loop_
_atom_site_label
_atom_site_type_symbol
_atom_type_description
_atom_site_fract_x
_atom_site_fract_y
_atom_site_fract_z
_atom_type_partial_charge
C1    C     C_R   0.501074 0.737761 0.501437 0.843971
C2    C     C_R   0.443605 0.469521 0.974889 0.090148
C3    C     C_R   0.489966 0.456581 0.865923 0.045746
C4    C     C_R   0.549998 0.491379 0.028973 0.089441
C5    C     C_R   0.699755 0.494301 0.973818 0.174711
C6    C     C_R   0.742641 0.468159 0.868896 -0.238124
C7    C     C_R   0.639954 0.441140 0.817665 -0.192997
C8    C     C_R   0.513266 0.507476 0.136284 -0.252636
C9    C     C_R   0.767314 0.521074 0.132115 -0.202602
C10   C     C_R   0.384467 0.452166 0.809516 -0.179646
C11   C     C_R   0.370961 0.934776 0.539249 -0.020213
C12   C     C_R   0.424065 0.483095 0.698087 0.838315
C13   C     C_R   0.502350 0.871239 0.512750 -0.171053
C14   C     C_R   0.631692 0.940359 0.506022 0.373436
C15   C     C_R   0.625643 0.068670 0.509281 -0.254367
C16   C     C_R   0.494077 0.130246 0.518033 -0.171651
C17   C     C_R   0.365132 0.061116 0.545374 0.077834
C18   C     C_3   0.224276 0.061582 0.516678 0.073363
C19   C     C_3   0.236159 0.921601 0.505689 -0.388432
C20   C     C_R   0.963272 0.480852 0.410160 0.234437
C21   C     C_R   0.892805 0.539506 0.584060 -0.040575
C22   C     C_R   0.041327 0.539172 0.584230 -0.057867
C23   C     C_R   0.497500 0.262651 0.504551 0.813805
C24   C     C_R   0.109037 0.478669 0.411440 0.201035
C25   C     C_3   0.146703 0.371185 0.339752 -0.480126
C26   C     C_3   0.992734 0.378904 0.328657 -0.012997
C27   C     C_R   0.577196 0.505270 0.300852 0.791024
C28   C     C_R   0.806123 0.515560 0.025142 -0.177139
C29   C     C_R   0.620651 0.512028 0.188258 -0.041277
C30   C     C_R   0.240562 0.419029 0.862661 0.373518
C31   C     C_R   0.197419 0.418207 0.969810 -0.188748
C32   C     C_R   0.294339 0.451538 0.025290 -0.257416
Cu1   Cu    Cu3+1 0.359330 0.500020 0.500010 0.961500
Cu2   Cu    Cu3+1 0.640670 0.499980 0.499990 0.973197
H1    H     H_    0.851760 0.531663 0.170591 0.147630
H2    H     H_    0.726392 0.119489 0.499159 0.215369
H3    H     H_    0.230116 0.107830 0.443195 0.133041
H4    H     H_    0.149135 0.870351 0.562155 0.229930
H5    H     H_    0.258849 0.887874 0.424457 0.180891
H6    H     H_    0.811659 0.572493 0.651870 0.156167
H7    H     H_    0.069214 0.569369 0.652995 0.173427
H8    H     H_    0.231606 0.391233 0.268087 0.164196
H9    H     H_    0.169404 0.289444 0.379965 0.203636
H10   H     H_    0.990993 0.412671 0.252006 0.119193
H11   H     H_    0.856252 0.463562 0.826568 0.201631
H12   H     H_    0.919597 0.523503 0.982334 0.160533
H13   H     H_    0.401925 0.515982 0.181090 0.145627
H14   H     H_    0.250452 0.453728 0.107534 0.134423
H15   H     H_    0.087936 0.390704 0.011077 0.163936
H16   H     H_    0.681285 0.400573 0.741697 0.182807
N1    N     N_R   0.852320 0.499070 0.499340 -0.182340
N2    N     N_R   0.148230 0.499110 0.499340 -0.196461
O1    O     O_R   0.381190 0.680360 0.500000 -0.585448
O2    O     O_R   0.618780 0.680320 0.499990 -0.515863
O3    O     O_R   0.323230 0.500000 0.650990 -0.541561
O4    O     O_R   0.560820 0.499960 0.650980 -0.611035
O5    O     O_R   0.381220 0.319680 0.500010 -0.578750
O6    O     O_R   0.618810 0.319640 0.500000 -0.601942
O7    O     O_R   0.439180 0.500040 0.349020 -0.588973
O8    O     O_R   0.676770 0.500000 0.349010 -0.599412
N3    N     N_2   0.100878 0.096080 0.603355 -0.387459
H17   H     H_    0.113851 0.084976 0.675861 0.291142
C33   C     C_3   0.023707 0.205864 0.592594 -0.548531
H18   H     H_    0.927559 0.218195 0.660712 0.233058
H19   H     H_    0.984554 0.197704 0.523036 0.240787
H20   H     H_    0.096235 0.286783 0.587573 0.265328
N4    N     N_2   0.907058 0.267674 0.356623 -0.402750
H21   H     H_    0.803584 0.281475 0.351195 0.290002
C34   C     C_3   0.966722 0.158435 0.296465 -0.667952
H22   H     H_    0.886400 0.081861 0.315457 0.250232
H23   H     H_    0.066847 0.128103 0.314529 0.241039
H24   H     H_    0.991283 0.176224 0.212645 0.225570
Cl1   Cl    Cl    0.116911 0.360830 0.798658 -0.729836
Cl2   Cl    Cl    0.806771 0.876019 0.484788 -0.638901

loop_
_geom_bond_atom_site_label_1
_geom_bond_atom_site_label_2
_ccdc_geom_bond_type
C24   N2    A    
C23   O6    A    
C33   H19   S    
Cu1   O3    S    
C6    H11   S    
C27   C29   S    
C4    C8    A    
C25   H9    S    
C26   H10   S    
Cu1   N2    S    
Cu2   O4    S    
C11   C19   S    
Cu2   N1    S    
C8    C29   A    
C14   Cl2   S    
C22   N2    A    
C18   H3    S    
C20   N1    A    
C3    C7    A    
C27   O8    A    
C5    C6    A    
C22   H7    S    
C15   C16   A    
C2    C32   A    
C18   C19   S    
C34   H23   S    
C1    O1    A    
C20   C24   A    
C16   C17   A    
C9    C29   A    
C33   H20   S    
Cu1   O7    S    
C13   C14   A    
Cu2   O8    S    
C32   H14   S    
C34   H22   S    
C31   H15   S    
C17   C18   S    
Cu1   O1    S    
N4    H21   S    
C24   C25   S    
C30   Cl1   S    
C25   C26   S    
N4    C34   S    
C34   H24   S    
C2    C4    A    
C1    O2    A    
C19   H4    S    
C5    C28   A    
C10   C30   A    
C31   C32   A    
C28   H12   S    
N3    C33   S    
Cu1   Cu2   S    
C12   O4    A    
C10   C12   S    
Cu2   O2    S    
C16   C23   S    
C1    C13   S    
C26   N4    S    
C15   H2    S    
C21   N1    A    
C9    H1    S    
C23   O5    A    
C11   C17   A    
Cu1   O5    S    
C7    H16   S    
C4    C5    A    
C25   H8    S    
C18   N3    S    
C6    C7    A    
C2    C3    A    
C8    H13   S    
C3    C10   A    
C27   O7    A    
C11   C13   A    
C30   C31   A    
C21   H6    S    
C20   C26   S    
N3    H17   S    
C12   O3    A    
C33   H18   S    
C19   H5    S    
Cu2   O6    S    
C14   C15   A    
C21   C22   A    
C9    C28   A    
