data_mof_unit_60914.cif
_audit_creation_date              2012-12-11T15:58:21-0500
_audit_creation_method            fapswitch 2.2
_symmetry_space_group_name_H-M    P1
_symmetry_Int_Tables_number       1
_space_group_crystal_system       triclinic
_cell_length_a                    6.996197
_cell_length_b                    17.310662
_cell_length_c                    18.713595
_cell_angle_alpha                 106.401369
_cell_angle_beta                  90.239811
_cell_angle_gamma                 90.604738
_cell_volume                      2173.9739767

loop_
_atom_site_label
_atom_site_type_symbol
_atom_type_description
_atom_site_fract_x
_atom_site_fract_y
_atom_site_fract_z
_atom_type_partial_charge
O1    O     O_R   0.505770 0.442340 0.559500 -0.520167
O2    O     O_R   0.168070 0.405470 0.411510 -0.494859
O3    O     O_R   0.005580 0.557660 0.440500 -0.522712
C1    C     C_R   0.339322 0.381458 0.383249 0.648098
O4    O     O_R   0.175550 0.432860 0.557160 -0.525866
O5    O     O_R   0.013110 0.585240 0.587190 -0.547862
C2    C     C_R   0.344397 0.415915 0.580453 0.718158
O6    O     O_R   0.498240 0.414760 0.412810 -0.525405
O7    O     O_3   0.341770 0.549960 0.509680 -0.377079
V1    V     V_3+5 0.063870 0.490730 0.498200 1.517512
O8    O     O_R   0.683850 0.594530 0.588490 -0.524891
C3    C     C_R   0.853720 0.621359 0.614310 0.691925
O9    O     O_R   0.676380 0.567140 0.442840 -0.518235
C4    C     C_R   0.845377 0.585000 0.420341 0.741575
V2    V     V_3+5 0.564820 0.509270 0.501800 1.524280
O10   O     O_3   0.836790 0.450040 0.490320 -0.310204
C5    C     C_1   0.856438 0.636901 0.368162 -0.209366
C6    C     C_1   0.867721 0.679341 0.324453 0.014960
C7    C     C_1   0.882220 0.729377 0.272396 0.006843
C8    C     C_1   0.894683 0.771516 0.228450 0.004143
C9    C     C_1   0.909188 0.821561 0.176397 0.004337
C10   C     C_1   0.920486 0.864021 0.132697 -0.213529
C11   C     C_3   0.691794 0.807944 0.781108 -0.369378
H1    H     H_    0.595208 0.785648 0.818325 0.174617
H2    H     H_    0.638767 0.868023 0.779908 0.120205
C12   C     C_3   0.686362 0.750648 0.700896 -0.091254
H3    H     H_    0.691352 0.790644 0.663972 0.111828
H4    H     H_    0.866284 0.724189 0.873245 0.137564
H5    H     H_    0.772403 0.629141 0.764720 0.186187
C13   C     C_3   0.948914 0.732727 0.825313 -0.341577
C14   C     C_3   0.034420 0.829608 0.751347 -0.387139
C15   C     C_3   0.900969 0.814982 0.812255 0.079967
H6    H     H_    0.183427 0.842671 0.772867 0.140322
H7    H     H_    0.985295 0.883245 0.735060 0.141372
C16   C     C_3   0.865038 0.694643 0.685252 0.033302
C17   C     C_3   0.900857 0.662641 0.754395 -0.383189
C18   C     C_3   0.033280 0.753458 0.683014 0.032780
H8    H     H_    0.157215 0.720735 0.690963 0.193322
H9    H     H_    0.103375 0.731464 0.839367 0.167560
H10   H     H_    0.021006 0.619335 0.743453 0.159481
C19   C     C_3   0.590863 0.289891 0.294206 0.008443
C20   C     C_3   0.612835 0.217914 0.221665 -0.390037
H11   H     H_    0.691461 0.166492 0.232107 0.147690
H12   H     H_    0.701034 0.234701 0.178782 0.151936
H13   H     H_    0.320494 0.387046 0.236496 0.170408
H14   H     H_    0.397719 0.282783 0.131264 0.165173
C21   C     C_3   0.272745 0.328012 0.242691 -0.319956
C22   C     C_3   0.262741 0.232334 0.317984 -0.314290
C23   C     C_3   0.366905 0.309966 0.311754 -0.019455
H15   H     H_    0.106443 0.242923 0.323329 0.178092
H16   H     H_    0.304810 0.216935 0.369416 0.169678
C24   C     C_3   0.417019 0.187307 0.187474 0.075579
C25   C     C_3   0.311418 0.258987 0.170323 -0.299115
C26   C     C_3   0.298946 0.160579 0.247360 -0.303760
H17   H     H_    0.375088 0.111960 0.263578 0.165695
H18   H     H_    0.158449 0.134948 0.223450 0.137491
H19   H     H_    0.115900 0.333374 0.250528 0.165207
H20   H     H_    0.172628 0.237662 0.141955 0.141826
C27   C     C_1   0.354707 0.363811 0.632504 -0.201473
C28   C     C_1   0.366374 0.321228 0.676082 0.004510
C29   C     C_1   0.381862 0.271054 0.728002 0.001861
C30   C     C_1   0.395262 0.228824 0.771835 0.001291
C31   C     C_1   0.410736 0.178671 0.823776 0.001697
C32   C     C_1   0.422378 0.136124 0.867388 -0.216007
O11   O     O_R   0.278700 0.085270 0.087180 -0.539849
O12   O     O_R   0.601470 0.067150 0.942830 -0.523407
O13   O     O_R   0.763830 0.914750 0.912810 -0.539026
C33   C     C_R   0.432641 0.084071 0.919494 0.715721
O14   O     O_R   0.608870 0.094540 0.088490 -0.537814
O15   O     O_R   0.771290 0.942340 0.059510 -0.520018
C34   C     C_R   0.438628 0.117409 0.116610 0.664243
O16   O     O_R   0.271240 0.057690 0.940480 -0.520581
O17   O     O_3   0.435150 0.950050 0.990310 -0.360337
V3    V     V_3+5 0.713080 0.009270 0.001800 1.397593
O18   O     O_R   0.100490 0.932820 0.057180 -0.523756
C35   C     C_R   0.931615 0.915946 0.080522 0.716486
O19   O     O_R   0.093090 0.905430 0.911530 -0.542039
C36   C     C_R   0.921934 0.882961 0.883593 0.681633
V4    V     V_3+5 0.212120 0.990690 0.998230 1.393528
O20   O     O_3   0.940180 0.049940 0.009690 -0.361234
C37   C     C_2   0.696686 0.362733 0.279194 0.698618
O21   O     O_2   0.660999 0.382309 0.222671 -0.582427
O22   O     O_R   0.837778 0.405971 0.327392 -0.620633
H21   H     H_    0.902774 0.448056 0.307318 0.265736
C38   C     C_2   0.684709 0.262489 0.357880 0.689600
O23   O     O_2   0.804212 0.303949 0.399480 -0.523507
O24   O     O_R   0.638535 0.186978 0.367033 -0.686384
H22   H     H_    0.710512 0.175276 0.409883 0.289664
C39   C     C_2   0.503435 0.707193 0.680852 0.686880
O25   O     O_2   0.440725 0.662967 0.716234 -0.587053
O26   O     O_R   0.422934 0.708898 0.612876 -0.671253
H23   H     H_    0.315335 0.669164 0.596073 0.329564
N1    N     N_3   0.046879 0.773934 0.612003 -0.687195
H24   H     H_    0.170671 0.808734 0.613555 0.261093
H25   H     H_    0.935307 0.811099 0.605992 0.226041

loop_
_geom_bond_atom_site_label_1
_geom_bond_atom_site_label_2
_ccdc_geom_bond_type
O12   C33   A    
O24   H22   S    
N1    H24   S    
O11   V4    S    
O17   V3    S    
C7    C8    T    
C10   C35   S    
C1    O6    A    
C37   O21   D    
C21   C23   S    
C38   O23   D    
C12   C39   S    
C22   C26   S    
H5    C17   S    
C12   H3    S    
C18   H8    S    
C32   C33   S    
C16   C18   S    
O16   V4    S    
O5    C3    A    
V2    O10   S    
O12   V3    S    
C6    C7    S    
C19   C20   S    
C11   C12   S    
C19   C23   S    
O14   C34   A    
O8    V2    S    
C22   H16   S    
C14   C15   S    
O15   V3    S    
C11   H1    S    
C14   H6    S    
O1    V2    S    
C39   O26   S    
O7    V1    S    
C33   O16   A    
C21   C25   S    
H13   C21   S    
C27   C28   T    
N1    H25   S    
V3    O20   S    
O9    C4    A    
C4    C5    S    
O13   C36   A    
C20   H12   S    
C2    C27   S    
C37   O22   S    
C24   C26   S    
O19   V4    S    
C26   H18   S    
C38   O24   S    
C17   H10   S    
O26   H23   S    
O4    C2    A    
O11   C34   A    
C31   C32   T    
C28   C29   S    
C16   C17   S    
O2    C1    A    
O18   C35   A    
C30   C31   S    
C21   H19   S    
O22   H21   S    
O8    C3    A    
C19   C37   S    
C5    C6    T    
O17   V4    S    
C14   H7    S    
C18   N1    S    
O14   V3    S    
O13   V3    S    
C3    C16   S    
O3    C4    A    
C22   C23   S    
O6    V2    S    
O9    V2    S    
O15   C35   A    
C20   H11   S    
O2    V1    S    
C24   C25   S    
C26   H17   S    
O1    C2    A    
O5    V1    S    
C25   H20   S    
C19   C38   S    
C13   C17   S    
C1    C23   S    
C11   C15   S    
H4    C13   S    
O7    V2    S    
O4    V1    S    
O3    V1    S    
V1    O10   S    
C13   C15   S    
H14   C25   S    
C22   H15   S    
C13   H9    S    
C11   H2    S    
C29   C30   T    
C15   C36   S    
V4    O20   S    
C14   C18   S    
C12   C16   S    
C8    C9    S    
C24   C34   S    
O19   C36   A    
C39   O25   D    
C9    C10   T    
O18   V4    S    
C20   C24   S    
