data_mof_unit_22541.cif
_audit_creation_date              2012-12-11T17:12:42-0500
_audit_creation_method            fapswitch 2.2
_symmetry_space_group_name_H-M    P1
_symmetry_Int_Tables_number       1
_space_group_crystal_system       triclinic
_cell_length_a                    17.212387
_cell_length_b                    6.882042
_cell_length_c                    14.384438
_cell_angle_alpha                 90.009763
_cell_angle_beta                  110.141438
_cell_angle_gamma                 89.852046
_cell_volume                      1599.71956179

loop_
_atom_site_label
_atom_site_type_symbol
_atom_type_description
_atom_site_fract_x
_atom_site_fract_y
_atom_site_fract_z
_atom_type_partial_charge
O1    O     O_R   0.314130 0.635770 0.168990 -0.563685
O2    O     O_R   0.685870 0.364230 0.831010 -0.563691
O3    O     O_R   0.185870 0.135770 0.331010 -0.523398
O4    O     O_R   0.814130 0.864230 0.668990 -0.523416
O5    O     O_R   0.146800 0.302460 0.139760 -0.546351
O6    O     O_R   0.853200 0.697540 0.860240 -0.546356
O7    O     O_R   0.353200 0.802460 0.360240 -0.551079
O8    O     O_R   0.646800 0.197540 0.639760 -0.551092
C1    C     C_R   0.114030 0.475979 0.112772 0.755662
C2    C     C_R   0.885970 0.524021 0.887228 0.755658
C3    C     C_R   0.385993 0.975707 0.387235 0.721158
C4    C     C_R   0.614007 0.024293 0.612765 0.721147
O9    O     O_R   0.311100 0.305780 0.157130 -0.537261
O10   O     O_R   0.688900 0.694220 0.842870 -0.537263
O11   O     O_R   0.188900 0.805780 0.342870 -0.524183
O12   O     O_R   0.811100 0.194220 0.657130 -0.524193
O13   O     O_R   0.351340 0.139640 0.348510 -0.530207
O14   O     O_R   0.648660 0.860360 0.651490 -0.530200
O15   O     O_R   0.148660 0.639640 0.151490 -0.535791
O16   O     O_R   0.851340 0.360360 0.848510 -0.535767
C5    C     C_R   0.332618 0.475373 0.135976 0.793065
C6    C     C_R   0.667385 0.524627 0.864027 0.793036
C7    C     C_R   0.167073 0.975701 0.363917 0.807482
C8    C     C_R   0.832925 0.024300 0.636081 0.807574
C9    C     C_1   0.533577 0.009085 0.533038 -0.183618
C10   C     C_1   0.466423 0.990914 0.466962 -0.183633
C11   C     C_1   0.966403 0.508734 0.966943 -0.181327
C12   C     C_1   0.033597 0.491266 0.033058 -0.181360
O17   O     O_3   0.263010 0.470920 0.312770 -0.358173
O18   O     O_3   0.736990 0.529080 0.687230 -0.358189
O19   O     O_3   0.236990 0.970920 0.187230 -0.387609
O20   O     O_3   0.763010 0.029080 0.812770 -0.387605
V1    V     V_3+5 0.247590 0.194450 0.238360 1.475497
V2    V     V_3+5 0.752410 0.805550 0.761640 1.475559
V3    V     V_3+5 0.252410 0.694450 0.261640 1.468903
V4    V     V_3+5 0.747590 0.305550 0.738360 1.468989
C13   C     C_R   0.117056 0.992324 0.428979 -0.228500
C14   C     C_R   0.882918 0.007701 0.570995 -0.228619
C15   C     C_R   0.383829 0.490126 0.072778 -0.226631
C16   C     C_R   0.616174 0.509884 0.927227 -0.226667
C17   C     C_R   0.912928 0.824615 0.442335 -0.088344
C18   C     C_R   0.086976 0.175607 0.557538 -0.088264
C19   C     C_R   0.608090 0.468687 0.091514 -0.069395
C20   C     C_R   0.391916 0.531394 0.908496 -0.069322
C21   C     C_R   0.857831 0.877744 0.490898 0.313258
C22   C     C_R   0.142097 0.122433 0.509014 0.312987
C23   C     C_R   0.654654 0.468044 0.028029 0.309880
C24   C     C_R   0.345351 0.531994 0.971979 0.309858
C25   C     C_R   0.960910 0.096727 0.598034 0.443239
C26   C     C_R   0.039076 0.903232 0.401945 0.442770
C27   C     C_R   0.529427 0.532821 0.886155 0.364682
C28   C     C_R   0.470578 0.467215 0.113853 0.364639
C29   C     C_R   0.011700 0.070746 0.538784 -0.078821
C30   C     C_R   0.988245 0.929339 0.461140 -0.079172
C31   C     C_R   0.480080 0.515517 0.947891 -0.129201
C32   C     C_R   0.519925 0.484542 0.052117 -0.129237
O21   O     O_3   0.011932 0.798337 0.314519 -0.532367
C33   C     C_3   0.964654 0.922444 0.237564 -0.245802
H1    H     H_    0.002291 0.045824 0.226606 0.125353
H2    H     H_    0.908855 0.978229 0.251364 0.126717
H3    H     H_    0.943057 0.838151 0.167601 0.168089
O22   O     O_3   0.988125 0.201321 0.685554 -0.532295
C34   C     C_3   0.035503 0.077019 0.762348 -0.245727
H4    H     H_    0.091332 0.021705 0.748453 0.126908
H5    H     H_    0.997962 0.953310 0.773170 0.125417
H6    H     H_    0.057058 0.160994 0.832414 0.168043
O23   O     O_3   0.505914 0.401189 0.210766 -0.555202
C35   C     C_3   0.505017 0.548031 0.279409 -0.257489
H7    H     H_    0.453849 0.522002 0.308078 0.161637
H8    H     H_    0.501217 0.698736 0.249510 0.106859
H9    H     H_    0.563047 0.537263 0.344191 0.160277
O24   O     O_3   0.494096 0.598839 0.789240 -0.555173
C36   C     C_3   0.494967 0.451963 0.720602 -0.257481
H10   H     H_    0.498721 0.301264 0.750501 0.106869
H11   H     H_    0.546150 0.477892 0.691947 0.161630
H12   H     H_    0.436946 0.462799 0.655810 0.160254
O25   O     O_3   0.217299 0.217108 0.532002 -0.552618
C37   C     C_3   0.279188 0.096948 0.596216 -0.229689
H13   H     H_    0.283537 0.954866 0.561303 0.145022
H14   H     H_    0.268454 0.073510 0.667418 0.145217
H15   H     H_    0.339812 0.170066 0.613194 0.146304
O26   O     O_3   0.782612 0.783137 0.467886 -0.552574
C38   C     C_3   0.720734 0.903443 0.403759 -0.229622
H16   H     H_    0.731455 0.927048 0.332558 0.145275
H17   H     H_    0.716418 0.045449 0.438764 0.144996
H18   H     H_    0.660098 0.830358 0.386754 0.146288
O27   O     O_3   0.259740 0.543534 0.932527 -0.556516
C39   C     C_3   0.235373 0.740093 0.930652 -0.180852
H19   H     H_    0.271357 0.838705 0.899419 0.155627
H20   H     H_    0.240458 0.790732 0.005630 0.138557
H21   H     H_    0.169363 0.752285 0.883080 0.154512
O28   O     O_3   0.740264 0.456496 0.067480 -0.556519
C40   C     C_3   0.764625 0.259931 0.069363 -0.180728
H22   H     H_    0.759521 0.209273 0.994379 0.138507
H23   H     H_    0.728645 0.161341 0.100619 0.155585
H24   H     H_    0.830642 0.247736 0.116921 0.154539
C41   C     C_2   0.891234 0.649576 0.378236 0.586122
H25   H     H_    0.828234 0.628730 0.328322 0.055374
O29   O     O_2   0.942244 0.521606 0.385273 -0.493476
C42   C     C_2   0.108570 0.350922 0.621469 0.585105
H26   H     H_    0.171641 0.372544 0.671002 0.056084
O30   O     O_2   0.057379 0.478328 0.614671 -0.493492
C43   C     C_2   0.654794 0.475910 0.199302 0.547709
H27   H     H_    0.647164 0.599514 0.241920 0.011724
O31   O     O_2   0.702130 0.345395 0.240889 -0.539810
C44   C     C_2   0.345210 0.524269 0.800707 0.547713
H28   H     H_    0.352785 0.400635 0.758073 0.011640
O32   O     O_2   0.297940 0.654909 0.759137 -0.539945

loop_
_geom_bond_atom_site_label_1
_geom_bond_atom_site_label_2
_ccdc_geom_bond_type
C2    C11   S    
C16   C23   A    
C31   C32   A    
C34   H5    S    
O1    C5    A    
C40   H22   S    
C36   H10   S    
O3    C7    A    
C21   O26   S    
C37   H15   S    
O27   C39   S    
C41   H25   S    
C14   C25   A    
O25   C37   S    
O7    C3    A    
C26   C30   A    
O20   V4    S    
C18   C29   A    
C18   C22   A    
O4    C8    A    
C37   H14   S    
C44   H28   S    
O3    V1    S    
C33   H2    S    
O17   V1    S    
C23   O28   S    
O28   C40   S    
C14   C21   A    
C1    O15   A    
C2    O16   A    
C35   H7    S    
O5    V1    S    
O2    C6    A    
C8    C14   S    
O19   V1    S    
C27   C31   A    
C33   H3    S    
O11   C7    A    
C15   C28   A    
C34   H6    S    
O12   C8    A    
O9    V1    S    
C36   H11   S    
O13   V1    S    
O11   V3    S    
C41   O29   D    
O4    V2    S    
O18   V2    S    
O23   C35   S    
C37   H13   S    
C3    C10   S    
C33   H1    S    
C7    C13   S    
O6    V2    S    
O20   V2    S    
O5    C1    A    
O22   C34   S    
C18   C42   S    
C38   H16   S    
C5    C15   S    
C39   H21   S    
O8    C4    A    
C6    C16   S    
C42   O30   D    
C24   O27   S    
O9    C5    A    
C43   O31   D    
O14   V2    S    
C28   O23   S    
C38   H17   S    
C39   H20   S    
C40   H24   S    
C36   H12   S    
O19   V3    S    
C27   O24   S    
C11   C12   T    
O1    V3    S    
O2    V4    S    
C3    O13   A    
C25   O22   S    
C26   O21   S    
O7    V3    S    
O24   C36   S    
O10   V2    S    
C22   O25   S    
C29   C30   A    
C20   C44   S    
C16   C27   A    
O17   V3    S    
O18   V4    S    
C4    C9    S    
O10   C6    A    
C9    C10   T    
O15   V3    S    
O12   V4    S    
C13   C26   A    
C20   C31   A    
O21   C33   S    
C40   H23   S    
C44   O32   D    
C35   H9    S    
C25   C29   A    
C42   H26   S    
C17   C41   S    
O8    V4    S    
C19   C43   S    
C17   C30   A    
O6    C2    A    
C34   H4    S    
O16   V4    S    
C28   C32   A    
C19   C32   A    
C38   H18   S    
C39   H19   S    
C35   H8    S    
O26   C38   S    
C4    O14   A    
C43   H27   S    
C17   C21   A    
C13   C22   A    
C19   C23   A    
C20   C24   A    
C1    C12   S    
C15   C24   A    
