data_mof_unit_31970.cif
_audit_creation_date              2012-12-11T16:35:23-0500
_audit_creation_method            fapswitch 2.2
_symmetry_space_group_name_H-M    P1
_symmetry_Int_Tables_number       1
_space_group_crystal_system       triclinic
_cell_length_a                    6.934741
_cell_length_b                    17.917868
_cell_length_c                    19.271717
_cell_angle_alpha                 108.79963
_cell_angle_beta                  89.818444
_cell_angle_gamma                 90.499045
_cell_volume                      2266.78607962

loop_
_atom_site_label
_atom_site_type_symbol
_atom_type_description
_atom_site_fract_x
_atom_site_fract_y
_atom_site_fract_z
_atom_type_partial_charge
O1    O     O_R   0.505700 0.440210 0.561730 -0.542041
O2    O     O_R   0.169350 0.406300 0.412660 -0.535800
O3    O     O_R   0.005650 0.559790 0.438270 -0.539403
C1    C     C_R   0.340022 0.385696 0.383476 0.708081
O4    O     O_R   0.175560 0.430650 0.559600 -0.540214
O5    O     O_R   0.011900 0.584320 0.586250 -0.533812
C2    C     C_R   0.343890 0.414758 0.580001 0.694243
O6    O     O_R   0.499450 0.415680 0.413750 -0.542698
O7    O     O_3   0.341370 0.550390 0.508570 -0.364627
V1    V     V_3+5 0.063940 0.490650 0.498410 1.418274
O8    O     O_R   0.682570 0.593700 0.587340 -0.539324
C3    C     C_R   0.852041 0.616525 0.615135 0.698145
O9    O     O_R   0.676370 0.569350 0.440400 -0.541528
C4    C     C_R   0.844875 0.583151 0.417874 0.685766
V2    V     V_3+5 0.564750 0.509350 0.501590 1.412410
O10   O     O_3   0.837190 0.449610 0.491430 -0.369011
C5    C     C_R   0.935838 0.636867 0.245679 -0.178129
H1    H     H_    0.000056 0.609758 0.192229 0.116839
C6    C     C_R   0.930967 0.594926 0.295664 -0.178850
H2    H     H_    0.984752 0.535344 0.278860 0.125143
C7    C     C_R   0.852106 0.628541 0.365762 -0.067152
C8    C     C_R   0.770760 0.703879 0.384100 -0.163122
H3    H     H_    0.706089 0.729695 0.437695 0.107588
C9    C     C_R   0.775719 0.747137 0.334549 0.184529
C10   C     C_R   0.860659 0.713361 0.264359 0.086993
C11   C     C_R   0.726435 0.766729 0.169167 -0.185505
H4    H     H_    0.592049 0.736544 0.171275 0.128331
C12   C     C_R   0.740144 0.815157 0.124772 -0.200903
H5    H     H_    0.614546 0.821632 0.094049 0.153934
C13   C     C_R   0.913704 0.854579 0.120056 -0.127351
C14   C     C_R   0.076043 0.838817 0.156430 -0.048443
H6    H     H_    0.214247 0.862601 0.148716 0.201376
C15   C     C_R   0.061442 0.793923 0.204299 0.170796
C16   C     C_R   0.883689 0.758227 0.211607 0.063735
H7    H     H_    0.123725 0.640134 0.927806 0.111613
C17   C     C_R   0.787791 0.902985 0.749313 -0.142766
C18   C     C_R   0.720450 0.914372 0.685465 -0.121804
C19   C     C_R   0.700985 0.850692 0.621533 -0.120461
C20   C     C_R   0.748454 0.775112 0.620982 -0.135123
C21   C     C_R   0.815253 0.761445 0.685134 0.070014
C22   C     C_R   0.835515 0.826782 0.750746 0.070192
C23   C     C_R   0.865773 0.684591 0.684244 -0.187174
C24   C     C_R   0.936797 0.673251 0.749151 0.068140
C25   C     C_R   0.956870 0.738575 0.814791 0.069521
C26   C     C_R   0.906223 0.815415 0.815679 -0.176752
C27   C     C_R   0.985238 0.597094 0.750505 -0.144305
C28   C     C_R   0.053237 0.585731 0.814268 -0.128254
C29   C     C_R   0.072298 0.649374 0.878243 -0.121158
C30   C     C_R   0.023893 0.724908 0.878930 -0.135045
H8    H     H_    0.803657 0.954784 0.797124 0.101768
H9    H     H_    0.684544 0.973074 0.685506 0.117972
H10   H     H_    0.650025 0.859931 0.571902 0.114412
H11   H     H_    0.733346 0.727839 0.569571 0.101158
H12   H     H_    0.969617 0.545314 0.702674 0.107339
H13   H     H_    0.089953 0.527073 0.814135 0.117856
H14   H     H_    0.038628 0.772113 0.930438 0.093386
H15   H     H_    0.252429 0.459837 0.151865 0.110177
C31   C     C_R   0.506021 0.242556 0.387984 -0.157228
C32   C     C_R   0.574813 0.172532 0.394018 -0.181999
C33   C     C_R   0.551053 0.103507 0.336201 -0.120059
C34   C     C_R   0.464383 0.104867 0.271177 0.372725
C35   C     C_R   0.438969 0.177740 0.257748 -0.015804
C36   C     C_R   0.436260 0.246934 0.320136 0.035860
C37   C     C_R   0.411875 0.183879 0.186265 -0.169716
C38   C     C_R   0.359594 0.258138 0.179838 0.038969
C39   C     C_R   0.344013 0.327109 0.243384 0.058834
C40   C     C_R   0.365371 0.318726 0.314419 -0.145478
C41   C     C_R   0.323599 0.264739 0.109811 -0.142649
C42   C     C_R   0.277284 0.336296 0.101322 -0.160593
C43   C     C_R   0.277597 0.404269 0.161284 -0.104105
C44   C     C_R   0.318788 0.401973 0.231806 0.132913
H16   H     H_    0.512409 0.292869 0.437219 0.129615
H17   H     H_    0.632290 0.170846 0.445671 0.141025
H18   H     H_    0.582025 0.048111 0.345045 0.159989
H19   H     H_    0.330470 0.214667 0.060254 0.097339
H20   H     H_    0.248708 0.339555 0.047164 0.124457
C45   C     C_R   0.474584 0.348280 0.740313 -0.150106
H21   H     H_    0.558219 0.372341 0.789936 0.113504
C46   C     C_R   0.465375 0.391627 0.691885 -0.204954
H22   H     H_    0.544225 0.446924 0.704902 0.122828
C47   C     C_R   0.351657 0.365575 0.628490 -0.054701
C48   C     C_R   0.247508 0.293717 0.613240 0.140644
C49   C     C_R   0.263275 0.249202 0.661222 -0.130714
H23   H     H_    0.189234 0.192910 0.647664 0.109488
C50   C     C_R   0.375361 0.275978 0.725468 0.056368
C51   C     C_R   0.235930 0.180637 0.784830 -0.156204
H24   H     H_    0.101184 0.178628 0.756100 0.115842
C52   C     C_R   0.252253 0.134719 0.830849 -0.199717
H25   H     H_    0.132262 0.096778 0.833628 0.125742
C53   C     C_R   0.420358 0.136698 0.872074 -0.059864
C54   C     C_R   0.575250 0.186890 0.865803 0.142890
C55   C     C_R   0.559229 0.230384 0.816994 -0.140356
H26   H     H_    0.681307 0.265483 0.810284 0.107471
C56   C     C_R   0.390029 0.228425 0.776413 0.059934
O11   O     O_R   0.273230 0.084330 0.086440 -0.497613
O12   O     O_R   0.596660 0.069390 0.940470 -0.547838
O13   O     O_R   0.760270 0.915710 0.913690 -0.542906
C57   C     C_R   0.428459 0.085875 0.920081 0.661315
O14   O     O_R   0.603330 0.093680 0.087390 -0.542071
O15   O     O_R   0.766990 0.940160 0.061660 -0.534505
C58   C     C_R   0.433425 0.113995 0.117708 0.818508
O16   O     O_R   0.266510 0.059870 0.938470 -0.551117
O17   O     O_3   0.431050 0.949630 0.991510 -0.355803
V3    V     V_3+5 0.708490 0.009340 0.001580 1.466612
O18   O     O_R   0.096270 0.930570 0.059390 -0.501817
C59   C     C_R   0.926225 0.911111 0.077210 0.770800
O19   O     O_R   0.089600 0.906290 0.912460 -0.549694
C60   C     C_R   0.920059 0.883478 0.884755 0.660440
V4    V     V_3+5 0.207670 0.990600 0.998190 1.535217
O20   O     O_3   0.935250 0.050360 0.008480 -0.373172
S1    S     S_3+6 0.325163 0.021184 0.226054 -0.061119
O21   O     O_2   0.136788 0.045402 0.201864 -0.335449
O22   O     O_2   0.283688 0.974755 0.277014 -0.365221
O23   O     O_3   0.450297 0.965408 0.154067 -0.523471
H27   H     H_    0.574789 0.958433 0.175993 0.319400
C61   C     C_3   0.359140 0.480818 0.289182 -0.775901
H28   H     H_    0.358709 0.530065 0.265898 0.196675
H29   H     H_    0.248197 0.494789 0.332590 0.211603
H30   H     H_    0.505138 0.480724 0.312409 0.215816
C62   C     C_3   0.123267 0.262660 0.545766 -0.758176
H31   H     H_    0.208428 0.259400 0.496102 0.203048
H32   H     H_    0.066295 0.202638 0.539179 0.203079
H33   H     H_    0.997999 0.301943 0.549724 0.220086
C63   C     C_3   0.756562 0.197308 0.911166 -0.753220
H34   H     H_    0.719060 0.214993 0.970301 0.207213
H35   H     H_    0.839153 0.141685 0.895044 0.212374
H36   H     H_    0.852958 0.243803 0.903336 0.193251
C64   C     C_3   0.693659 0.829140 0.359697 -0.781881
H37   H     H_    0.704781 0.859191 0.317781 0.233417
H38   H     H_    0.539007 0.826284 0.373746 0.213030
H39   H     H_    0.772126 0.865689 0.409321 0.209393
C65   C     C_3   0.233901 0.786632 0.248881 -0.743347
H40   H     H_    0.197082 0.808232 0.308105 0.228278
H41   H     H_    0.278707 0.724087 0.233428 0.185713
H42   H     H_    0.357733 0.822260 0.240358 0.237891

loop_
_geom_bond_atom_site_label_1
_geom_bond_atom_site_label_2
_ccdc_geom_bond_type
C25   C30   A    
C6    H2    S    
C2    C47   S    
C48   C62   S    
C1    O6    A    
C64   H37   S    
C47   C48   A    
C45   H21   S    
C62   H31   S    
C41   H19   S    
C11   H4    S    
C35   C36   A    
C4    C7    S    
C28   H13   S    
C12   H5    S    
C6    C7    A    
O5    C3    A    
C19   C20   A    
C18   H9    S    
C51   C52   A    
C19   H10   S    
V2    O10   S    
O15   V3    S    
C61   H28   S    
C42   H20   S    
C33   H18   S    
C3    C23   S    
C51   C56   A    
O13   C60   A    
O8    V2    S    
C11   C16   A    
C49   H23   S    
C41   C42   A    
O12   C57   A    
C35   C37   A    
O19   C60   A    
C14   C15   A    
C43   C44   A    
O1    V2    S    
H15   C43   S    
O7    V1    S    
C32   H17   S    
C26   C60   S    
C10   C16   S    
C21   C23   A    
O14   V3    S    
C45   C50   A    
C32   C33   A    
O9    C4    A    
C13   C59   S    
O19   V4    S    
C17   C22   A    
C42   C43   A    
H7    C29   S    
C62   H32   S    
C15   C16   A    
C45   C46   A    
C37   C58   S    
C36   C40   A    
C28   C29   A    
C9    C10   A    
O11   V4    S    
C20   C21   A    
O4    C2    A    
C51   H24   S    
C65   H40   S    
C31   C32   A    
C57   O16   A    
C33   C34   A    
O2    C1    A    
C24   C25   A    
C18   C19   A    
C50   C56   S    
C39   C44   A    
C13   C14   A    
C38   C41   A    
C27   H12   S    
C55   C56   A    
C5    H1    S    
S1    O22   D    
O3    C4    A    
C63   H36   S    
C15   C65   S    
C21   C22   A    
O14   C58   A    
C52   C53   A    
C38   C39   A    
O6    V2    S    
C54   C63   S    
O9    V2    S    
C8    C9    A    
C23   C24   A    
O2    V1    S    
C64   H39   S    
C54   C55   A    
C17   H8    S    
C25   C26   A    
C63   H35   S    
C31   C36   A    
O18   V4    S    
C27   C28   A    
C17   C18   A    
S1    O21   D    
C49   C50   A    
O1    C2    A    
C11   C12   A    
C14   H6    S    
C64   H38   S    
O5    V1    S    
C1    C40   S    
O8    C3    A    
C62   H33   S    
O23   H27   S    
C30   H14   S    
O18   C59   A    
O15   C59   A    
C61   H30   S    
O17   V4    S    
C5    C10   A    
C37   C38   A    
O12   V3    S    
O7    V2    S    
O4    V1    S    
O3    V1    S    
V1    O10   S    
V4    O20   S    
V3    O20   S    
C31   H16   S    
C53   C54   A    
C20   H11   S    
C65   H42   S    
C29   C30   A    
C12   C13   A    
C55   H26   S    
C5    C6    A    
C61   H29   S    
C44   C61   S    
C39   C40   A    
S1    O23   S    
C46   C47   A    
C34   C35   A    
C24   C27   A    
O13   V3    S    
C46   H22   S    
C52   H25   S    
C65   H41   S    
C48   C49   A    
O17   V3    S    
C9    C64   S    
C22   C26   A    
C8    H3    S    
O16   V4    S    
C7    C8    A    
C53   C57   S    
O11   C58   A    
C63   H34   S    
C34   S1    S    
