data_mof_unit_56413.cif
_audit_creation_date              2012-12-10T18:19:10-0500
_audit_creation_method            fapswitch 2.2
_symmetry_space_group_name_H-M    P1
_symmetry_Int_Tables_number       1
_space_group_crystal_system       triclinic
_cell_length_a                    14.902434
_cell_length_b                    14.039506
_cell_length_c                    11.547271
_cell_angle_alpha                 90.046087
_cell_angle_beta                  90.105299
_cell_angle_gamma                 91.38828
_cell_volume                      2415.23839195

loop_
_atom_site_label
_atom_site_type_symbol
_atom_type_description
_atom_site_fract_x
_atom_site_fract_y
_atom_site_fract_z
_atom_type_partial_charge
C1    C     C_R   0.326911 0.499035 0.500093 0.882124
C2    C     C_R   0.423957 0.200123 0.529739 -0.043252
C3    C     C_R   0.424309 0.795968 0.529998 -0.045439
C4    C     C_R   0.575771 0.204000 0.470365 -0.044732
C5    C     C_R   0.421261 0.896649 0.528823 -0.041352
C6    C     C_R   0.578739 0.103299 0.471343 -0.041821
C7    C     C_R   0.578897 0.900857 0.470503 -0.039543
C8    C     C_R   0.421235 0.099125 0.530052 -0.039089
C9    C     C_R   0.500031 0.949464 0.499793 0.052056
C10   C     C_R   0.499978 0.050499 0.500331 0.051943
C11   C     C_R   0.341878 0.945069 0.556931 -0.051458
C12   C     C_R   0.673082 0.500982 0.499870 0.882107
C13   C     C_R   0.658270 0.054901 0.443938 -0.051943
C14   C     C_R   0.658227 0.953910 0.442899 -0.048783
C15   C     C_R   0.342103 0.046064 0.558419 -0.049490
C16   C     C_R   0.500044 0.499971 0.281773 0.905609
C17   C     C_R   0.499953 0.500028 0.718226 0.905558
C18   C     C_1   0.500048 0.499926 0.161400 -0.175559
C19   C     C_1   0.499943 0.500071 0.838599 -0.175941
C20   C     C_1   0.500019 0.499961 0.059286 0.016023
C21   C     C_1   0.499968 0.500035 0.940713 0.015859
C22   C     C_R   0.814138 0.538413 0.404383 -0.200693
C23   C     C_R   0.907390 0.536507 0.401719 0.040138
C24   C     C_R   0.185834 0.462425 0.595989 -0.200970
C25   C     C_R   0.768358 0.502888 0.500480 -0.065898
C26   C     C_R   0.231622 0.497269 0.499541 -0.065329
C27   C     C_R   0.812674 0.466635 0.596067 -0.217572
C28   C     C_R   0.187317 0.533604 0.403969 -0.218601
C29   C     C_R   0.905486 0.466936 0.597402 0.066915
C30   C     C_R   0.094504 0.533808 0.402861 0.065228
C31   C     C_R   0.953260 0.501209 0.499870 -0.006980
C32   C     C_R   0.046730 0.499727 0.500483 -0.006219
C33   C     C_R   0.258167 0.889919 0.583926 0.118266
C34   C     C_R   0.092599 0.464715 0.598794 0.042695
C35   C     C_R   0.229473 0.879562 0.699022 -0.138977
C36   C     C_R   0.154453 0.821711 0.724935 -0.118904
C37   C     C_R   0.108176 0.773461 0.636344 -0.103510
C38   C     C_R   0.136052 0.784091 0.521511 -0.131152
C39   C     C_R   0.210520 0.842487 0.495095 -0.164734
C40   C     C_R   0.742304 0.110303 0.419834 0.120782
C41   C     C_R   0.790372 0.153475 0.511340 -0.156146
C42   C     C_R   0.864356 0.213551 0.488289 -0.136999
C43   C     C_R   0.891301 0.230134 0.374074 -0.107233
C44   C     C_R   0.844456 0.186301 0.282696 -0.118609
C45   C     C_R   0.950824 0.433959 0.694915 -0.279695
C46   C     C_R   0.769838 0.126883 0.305306 -0.148695
C47   C     C_R   0.742338 0.904562 0.415922 0.113728
C48   C     C_R   0.765464 0.886011 0.300541 -0.174351
C49   C     C_R   0.845694 0.840952 0.275217 -0.077629
C50   C     C_R   0.902642 0.813504 0.364870 -0.080942
C51   C     C_R   0.879384 0.830914 0.480035 -0.137272
C52   C     C_R   0.799519 0.876623 0.505691 -0.145592
C53   C     C_R   0.258541 0.095314 0.588198 0.114250
C54   C     C_R   0.193131 0.110325 0.503086 -0.132459
C55   C     C_R   0.113336 0.154822 0.532105 -0.143168
C56   C     C_R   0.049171 0.567428 0.305662 -0.280097
C57   C     C_R   0.098374 0.183859 0.646125 -0.083930
C58   C     C_R   0.163429 0.168970 0.731146 -0.079437
C59   C     C_R   0.243582 0.125207 0.702301 -0.190318
C60   C     C_R   0.044077 0.433696 0.696909 0.361937
C61   C     C_R   0.955919 0.568256 0.303936 0.361948
C62   C     C_R   0.576042 0.799871 0.470252 -0.042739
Cl1   Cl    Cl    0.096771 0.396644 0.825491 -0.668607
Cl2   Cl    Cl    0.903215 0.607803 0.176460 -0.663058
H1    H     H_    0.776158 0.565435 0.331914 0.189665
H2    H     H_    0.633787 0.246668 0.445580 0.164789
H3    H     H_    0.266068 0.914899 0.768547 0.127616
H4    H     H_    0.132857 0.813348 0.813854 0.142368
H5    H     H_    0.050969 0.727551 0.656700 0.135727
H6    H     H_    0.100588 0.746282 0.453139 0.133394
H7    H     H_    0.232347 0.849150 0.405998 0.131565
H8    H     H_    0.769120 0.142391 0.600056 0.131002
H9    H     H_    0.900148 0.248090 0.558861 0.133420
H10   H     H_    0.948251 0.277199 0.356429 0.138619
H11   H     H_    0.865220 0.199408 0.194255 0.143746
H12   H     H_    0.223787 0.435514 0.668551 0.188648
H13   H     H_    0.732551 0.095357 0.233788 0.126165
H14   H     H_    0.721677 0.906926 0.230553 0.130764
H15   H     H_    0.863737 0.827357 0.186087 0.169974
H16   H     H_    0.964669 0.778707 0.344942 0.138835
H17   H     H_    0.923281 0.809311 0.549373 0.136147
H18   H     H_    0.782240 0.890404 0.595118 0.133217
H19   H     H_    0.203886 0.087244 0.414784 0.130941
H20   H     H_    0.063018 0.166244 0.466343 0.140286
H21   H     H_    0.036387 0.217668 0.668802 0.140928
H22   H     H_    0.151646 0.190975 0.819521 0.178305
H23   H     H_    0.774632 0.439445 0.669530 0.138876
H24   H     H_    0.293504 0.113648 0.768774 0.134902
H25   H     H_    0.225369 0.560590 0.330408 0.139206
H26   H     H_    0.913702 0.409100 0.770151 0.191809
H27   H     H_    0.086301 0.592633 0.230596 0.192367
H28   H     H_    0.634511 0.760189 0.446745 0.158510
H29   H     H_    0.365376 0.239805 0.552742 0.158348
H30   H     H_    0.366471 0.753254 0.555284 0.164535
N1    N     N_R   0.500000 0.750030 0.500000 -0.109333
N2    N     N_R   0.500000 0.249970 0.500000 -0.109372
O1    O     O_R   0.367850 0.580280 0.500030 -0.626737
O2    O     O_R   0.632150 0.419720 0.499970 -0.626461
O3    O     O_R   0.632150 0.580280 0.499970 -0.625410
O4    O     O_R   0.367850 0.419720 0.500030 -0.625232
O5    O     O_R   0.500010 0.580270 0.334450 -0.610537
O6    O     O_R   0.499990 0.419730 0.665550 -0.611152
O7    O     O_R   0.499990 0.580270 0.665550 -0.606404
O8    O     O_R   0.500010 0.419730 0.334450 -0.606560
Zn1   Zn    Zn3+2 0.500000 0.607200 0.500000 0.955228
Zn2   Zn    Zn3+2 0.500000 0.392800 0.500000 0.955046

loop_
_geom_bond_atom_site_label_1
_geom_bond_atom_site_label_2
_ccdc_geom_bond_type
C30   C32   A    
C38   H6    S    
C45   C60   A    
C37   H5    S    
C27   C29   A    
C41   C42   A    
C35   C36   A    
C43   C44   A    
O8    Zn2   S    
C53   C59   A    
C22   H1    S    
C53   C54   A    
C40   C46   A    
C33   C39   A    
C60   Cl1   S    
C15   C53   S    
C36   C37   A    
C19   C21   T    
C24   C26   A    
C5    C11   A    
C38   C39   A    
C48   H14   S    
C59   H24   S    
C13   C40   S    
N1    Zn1   S    
C17   C19   S    
C4    N2    A    
C11   C15   A    
C16   O8    A    
C56   H27   S    
C31   C32   A    
C12   O3    A    
C22   C25   A    
C62   H28   S    
C28   H25   S    
C9    C10   A    
C51   H17   S    
C12   O2    A    
O1    Zn1   S    
C43   H10   S    
C13   C14   A    
C34   C60   A    
C58   H22   S    
C1    O4    A    
C54   H19   S    
C44   C46   A    
C7    C14   A    
O5    Zn1   S    
O3    Zn1   S    
C51   C52   A    
C11   C33   S    
C4    C6    A    
C1    O1    A    
C24   H12   S    
C58   C59   A    
C30   C56   A    
C24   C34   A    
C49   H15   S    
C29   C45   A    
C32   C34   A    
C44   H11   S    
C52   H18   S    
C17   O6    A    
C7    C62   A    
C5    C9    A    
C37   C38   A    
C47   C48   A    
C35   H3    S    
C50   C51   A    
O7    Zn1   S    
C27   H23   S    
C45   H26   S    
C47   C52   A    
C41   H8    S    
C16   C18   S    
C48   C49   A    
C8    C15   A    
C55   C57   A    
C1    C26   S    
C42   C43   A    
C7    C9    A    
N2    Zn2   S    
C54   C55   A    
C40   C41   A    
C42   H9    S    
C22   C23   A    
C26   C28   A    
C2    H29   S    
C2    C8    A    
C3    C5    A    
C50   H16   S    
C6    C10   A    
C46   H13   S    
C36   H4    S    
C14   C47   S    
C25   C27   A    
O4    Zn2   S    
O2    Zn2   S    
C12   C25   S    
C2    N2    A    
C17   O7    A    
C29   C31   A    
C61   Cl2   S    
C4    H2    S    
C57   C58   A    
C28   C30   A    
C33   C35   A    
C57   H21   S    
O6    Zn2   S    
C3    H30   S    
C18   C20   T    
C16   O5    A    
C23   C61   A    
C20   C21   S    
C8    C10   A    
C49   C50   A    
C39   H7    S    
C56   C61   A    
C3    N1    A    
C55   H20   S    
C62   N1    A    
C23   C31   A    
C6    C13   A    
