data_mof_unit_28678.cif
_audit_creation_date              2012-12-11T16:23:59-0500
_audit_creation_method            fapswitch 2.2
_symmetry_space_group_name_H-M    P1
_symmetry_Int_Tables_number       1
_space_group_crystal_system       triclinic
_cell_length_a                    14.719095
_cell_length_b                    14.729102
_cell_length_c                    33.295591
_cell_angle_alpha                 95.874535
_cell_angle_beta                  96.042414
_cell_angle_gamma                 61.278151
_cell_volume                      6284.04644852

loop_
_atom_site_label
_atom_site_type_symbol
_atom_type_description
_atom_site_fract_x
_atom_site_fract_y
_atom_site_fract_z
_atom_type_partial_charge
C1    C     C_R   0.390583 0.700413 0.445920 0.584631
C2    C     C_R   0.330379 0.339255 0.309646 0.012386
C3    C     C_R   0.396340 0.251344 0.331407 0.166099
C4    C     C_R   0.415158 0.263665 0.373814 0.272868
C5    C     C_R   0.394113 0.272233 0.165203 -0.084816
C6    C     C_R   0.386591 0.256599 0.123106 0.161629
C7    C     C_R   0.198439 0.351349 0.124338 -0.119823
C8    C     C_R   0.206389 0.366156 0.166233 0.170178
C9    C     C_R   0.304554 0.323971 0.186793 0.013123
C10   C     C_1   0.313981 0.329089 0.230061 0.082647
C11   C     C_1   0.320973 0.333016 0.266347 0.084825
C12   C     C_R   0.405400 0.385787 0.434214 0.573676
C13   C     C_R   0.287643 0.293153 0.102383 -0.007968
C14   C     C_R   0.761446 0.369760 0.410575 -0.025210
C15   C     C_R   0.782063 0.435825 0.389376 0.129344
C16   C     C_R   0.799785 0.413881 0.348440 -0.121682
C17   C     C_R   0.799965 0.326156 0.327906 -0.047731
C18   C     C_R   0.793119 0.252996 0.349781 0.220226
C19   C     C_R   0.778953 0.272245 0.391370 0.229101
C20   C     C_R   0.821885 0.299143 0.202717 0.379962
C21   C     C_R   0.805861 0.315112 0.283786 0.353744
C22   C     C_R   0.819990 0.382484 0.141210 -0.107493
C23   C     C_R   0.702930 0.408958 0.447863 0.545201
C24   C     C_R   0.852419 0.377053 0.102745 0.156762
C25   C     C_R   0.915096 0.191052 0.098296 -0.145662
C26   C     C_R   0.882222 0.196487 0.136915 0.251909
C27   C     C_R   0.839050 0.292501 0.159384 0.046036
C28   C     C_R   0.905703 0.279540 0.081725 -0.007138
C29   C     C_R   0.370768 0.755735 0.408243 0.033278
C30   C     C_R   0.286687 0.767769 0.380232 0.103204
C31   C     C_R   0.289402 0.783897 0.340129 -0.138793
C32   C     C_R   0.369414 0.796962 0.327393 0.013636
C33   C     C_R   0.442612 0.805270 0.356021 0.238835
C34   C     C_R   0.393355 0.701663 0.561295 0.569144
C35   C     C_R   0.445970 0.780747 0.396623 0.209210
C36   C     C_R   0.373039 0.808770 0.202753 0.352608
C37   C     C_R   0.374819 0.799738 0.283752 0.375736
C38   C     C_R   0.274477 0.817765 0.136141 0.218073
C39   C     C_R   0.242174 0.859422 0.097456 0.223600
C40   C     C_R   0.390420 0.891323 0.101595 -0.105583
C41   C     C_R   0.420892 0.853890 0.140128 0.201960
C42   C     C_R   0.358686 0.823245 0.158796 0.026417
C43   C     C_R   0.299416 0.898849 0.080649 -0.023342
C44   C     C_R   0.368396 0.367112 0.584186 0.068290
C45   C     C_R   0.406666 0.388540 0.548862 0.579130
C46   C     C_R   0.276920 0.443127 0.602072 0.242192
C47   C     C_R   0.257605 0.429554 0.640908 -0.091650
C48   C     C_R   0.327887 0.341996 0.661783 0.005371
C49   C     C_R   0.411926 0.262297 0.641919 -0.131592
C50   C     C_R   0.431554 0.274473 0.603463 -0.155757
C51   C     C_R   0.313755 0.339913 0.786422 0.343180
C52   C     C_R   0.319712 0.338178 0.705208 0.355265
C53   C     C_R   0.215379 0.398555 0.848934 -0.106906
C54   C     C_R   0.205572 0.381415 0.888279 -0.118801
C55   C     C_R   0.385023 0.246702 0.891865 -0.119803
C56   C     C_R   0.701831 0.413098 0.562682 0.586554
C57   C     C_R   0.394794 0.263802 0.852600 -0.111941
C58   C     C_R   0.308651 0.336352 0.830109 0.030776
C59   C     C_R   0.288894 0.301750 0.909278 0.020669
C60   C     C_R   0.754573 0.379016 0.603116 0.030443
C61   C     C_R   0.822709 0.415130 0.622673 0.141443
C62   C     C_R   0.854911 0.397940 0.663900 0.204488
C63   C     C_R   0.820813 0.343440 0.685044 -0.018860
C64   C     C_R   0.760631 0.301349 0.665166 -0.149877
C65   C     C_R   0.726906 0.318215 0.624458 0.206512
C66   C     C_R   0.918159 0.214084 0.820451 -0.161878
C67   C     C_R   0.368782 0.364481 0.393072 0.033556
C68   C     C_R   0.940943 0.199866 0.861584 -0.182810
C69   C     C_R   0.851569 0.387097 0.876207 0.258165
C70   C     C_R   0.828904 0.401251 0.834077 0.164092
C71   C     C_R   0.865849 0.313907 0.806579 0.016722
C72   C     C_1   0.853018 0.324983 0.763772 0.067836
C73   C     C_1   0.841006 0.333636 0.727869 0.071275
C74   C     C_R   0.912186 0.285554 0.889574 0.036728
C75   C     C_R   0.375676 0.755655 0.602144 0.035055
C76   C     C_R   0.287324 0.773175 0.621137 -0.166404
C77   C     C_R   0.278349 0.801778 0.662135 -0.159588
C78   C     C_R   0.296589 0.448966 0.371007 -0.166717
C79   C     C_R   0.357114 0.813710 0.685088 0.019237
C80   C     C_R   0.442958 0.804380 0.666496 0.167641
C81   C     C_R   0.451987 0.776464 0.624380 0.256037
C82   C     C_R   0.388666 0.898574 0.831387 -0.101680
C83   C     C_R   0.368617 0.925983 0.872030 -0.167153
C84   C     C_R   0.240184 0.864887 0.864669 0.243178
C85   C     C_R   0.261421 0.837466 0.823623 -0.107459
C86   C     C_R   0.332989 0.857211 0.806954 0.009021
C87   C     C_1   0.344056 0.841400 0.764199 0.028751
C88   C     C_1   0.350765 0.829565 0.728180 0.053787
C89   C     C_R   0.277945 0.436443 0.329661 -0.135070
C90   C     C_R   0.291685 0.913312 0.888794 0.059417
C91   C     C_R   0.962806 0.264272 0.045512 0.567211
C92   C     C_R   0.272711 0.259674 0.060005 0.568063
C93   C     C_R   0.259093 0.959620 0.044023 0.576153
C94   C     C_R   0.961982 0.268067 0.930923 0.580642
C95   C     C_R   0.270832 0.264010 0.945279 0.544682
C96   C     C_R   0.256476 0.964596 0.929001 0.569767
Cr1   Cr    Cr6+3 0.576280 0.580550 0.506370 1.177587
Cr2   Cr    Cr6+3 0.346780 0.572400 0.496520 1.119329
Cr3   Cr    Cr6+3 0.576960 0.347070 0.497150 1.125198
Cr4   Cr    Cr6+3 0.087320 0.083240 0.984860 1.089506
Cr5   Cr    Cr6+3 0.087720 0.316210 0.996740 1.099608
Cr6   Cr    Cr6+3 0.317350 0.090340 0.995890 1.068888
H1    H     H_    0.811153 0.467415 0.332203 0.194837
H2    H     H_    0.784057 0.457336 0.157687 0.189159
H3    H     H_    0.953244 0.115921 0.082142 0.149907
H4    H     H_    0.470012 0.241468 0.181207 0.181038
H5    H     H_    0.228429 0.785423 0.318429 0.193577
H6    H     H_    0.436741 0.918803 0.088735 0.198470
H7    H     H_    0.500348 0.213589 0.589945 0.168509
H8    H     H_    0.130603 0.425488 0.901035 0.156526
H9    H     H_    0.190736 0.490221 0.655602 0.150392
H10   H     H_    0.465912 0.192476 0.656868 0.162179
H11   H     H_    0.148031 0.456076 0.832523 0.161800
H12   H     H_    0.450965 0.185679 0.907541 0.147647
H13   H     H_    0.468421 0.216197 0.839198 0.148763
H14   H     H_    0.987482 0.121496 0.871214 0.164807
H15   H     H_    0.945318 0.146815 0.799254 0.137011
H16   H     H_    0.736276 0.258289 0.681969 0.122162
H17   H     H_    0.409404 0.962768 0.889700 0.148689
H18   H     H_    0.444626 0.913574 0.818654 0.163832
H19   H     H_    0.227200 0.759117 0.604819 0.174088
H20   H     H_    0.219671 0.803998 0.804366 0.108996
H21   H     H_    0.211640 0.810048 0.676384 0.138004
H22   H     H_    0.259265 0.526471 0.385213 0.196354
H23   H     H_    0.121517 0.380212 0.109338 0.186860
H24   H     H_    0.226221 0.503935 0.312914 0.176790
N1    N     N_R   0.760621 0.391858 0.221794 -0.219543
N2    N     N_R   0.236585 0.412171 0.724633 -0.189133
N3    N     N_R   0.399717 0.265305 0.727198 -0.215457
N4    N     N_R   0.396621 0.265925 0.766955 -0.218684
N5    N     N_R   0.752696 0.399653 0.261550 -0.200885
N6    N     N_R   0.867399 0.222515 0.264844 -0.143533
N7    N     N_R   0.875283 0.214771 0.225081 -0.102431
N8    N     N_R   0.353283 0.738493 0.217903 -0.126305
N9    N     N_R   0.354003 0.734186 0.257607 -0.218092
N10   N     N_R   0.396540 0.868912 0.268786 -0.101607
N11   N     N_R   0.394998 0.873721 0.228979 -0.177203
N12   N     N_R   0.233343 0.412610 0.764444 -0.201393
O1    O     O_R   0.679450 0.499830 0.463150 -0.440732
O2    O     O_R   0.356040 0.477400 0.534170 -0.437043
O3    O     O_R   0.495910 0.323070 0.537100 -0.490622
O4    O     O_R   0.663920 0.359620 0.542290 -0.448375
O5    O     O_3   0.500010 0.500010 0.500010 -0.312219
O6    O     O_R   0.170070 0.978950 0.027680 -0.434479
O7    O     O_R   0.001760 0.175230 0.026640 -0.510687
O8    O     O_R   0.984760 0.333570 0.037150 -0.455512
O9    O     O_R   0.183410 0.309240 0.041890 -0.507344
O10   O     O_R   0.340240 0.172500 0.045430 -0.454684
O11   O     O_R   0.309670 0.000990 0.032050 -0.515145
O12   O     O_R   0.480650 0.664000 0.464630 -0.439653
O13   O     O_R   0.168330 0.982130 0.939200 -0.444704
O14   O     O_R   0.000140 0.178170 0.944610 -0.517712
O15   O     O_R   0.983010 0.336750 0.948660 -0.443445
O16   O     O_R   0.181800 0.312190 0.959860 -0.501825
O17   O     O_R   0.338500 0.175680 0.956950 -0.509693
O18   O     O_R   0.308050 0.003930 0.950020 -0.518708
O19   O     O_3   0.164130 0.163270 0.992500 -0.283541
O20   O     O_R   0.323930 0.675950 0.455370 -0.473577
O21   O     O_R   0.354700 0.475360 0.451930 -0.512299
O22   O     O_R   0.494470 0.320860 0.448390 -0.425549
O23   O     O_R   0.662580 0.357570 0.460050 -0.496558
O24   O     O_R   0.680900 0.502040 0.551870 -0.455288
O25   O     O_R   0.481990 0.666040 0.546870 -0.432653
O26   O     O_R   0.325370 0.678160 0.544080 -0.506657
Br1   Br    Br    0.513737 0.185063 0.096070 -0.397971
O27   O     O_3   0.779307 0.195532 0.412035 -0.596020
H25   H     H_    0.808819 0.199089 0.439958 0.337315
Br2   Br    Br    0.822149 0.506010 0.081614 -0.380459
Br3   Br    Br    0.794918 0.129027 0.323862 -0.257925
O28   O     O_3   0.893880 0.108839 0.153423 -0.623768
H26   H     H_    0.925596 0.048429 0.133773 0.338702
Br4   Br    Br    0.165578 0.760739 0.392876 -0.404440
O29   O     O_3   0.523224 0.777060 0.424941 -0.644988
H27   H     H_    0.585418 0.762102 0.410960 0.370090
O30   O     O_3   0.152553 0.867252 0.076697 -0.662938
H28   H     H_    0.102224 0.877251 0.096452 0.336734
O31   O     O_3   0.511980 0.832607 0.343295 -0.630834
H29   H     H_    0.528631 0.872651 0.365839 0.354617
O32   O     O_3   0.221877 0.776354 0.153129 -0.649493
H30   H     H_    0.194397 0.743685 0.131195 0.350711
O33   O     O_3   0.511001 0.850175 0.158605 -0.618047
H31   H     H_    0.538222 0.799228 0.179775 0.356316
O34   O     O_3   0.210211 0.531625 0.582210 -0.656252
H32   H     H_    0.151077 0.576450 0.599075 0.334978
Br5   Br    Br    0.464081 0.117712 0.302222 -0.371872
O35   O     O_3   0.662563 0.280188 0.605791 -0.665628
H33   H     H_    0.651673 0.239377 0.624886 0.319374
Br6   Br    Br    0.874948 0.485275 0.593527 -0.341683
Br7   Br    Br    0.753284 0.537801 0.813207 -0.437392
O36   O     O_3   0.818846 0.469251 0.904980 -0.649861
H34   H     H_    0.771978 0.534886 0.892179 0.369259
O37   O     O_3   0.479568 0.180840 0.397061 -0.629149
H35   H     H_    0.499791 0.114741 0.380902 0.374190
Br8   Br    Br    0.943163 0.450551 0.691859 -0.353582
Br9   Br    Br    0.549164 0.823337 0.699710 -0.435867
O38   O     O_3   0.534808 0.765535 0.604433 -0.640031
H36   H     H_    0.576838 0.791028 0.622177 0.374996
O39   O     O_3   0.167923 0.847781 0.881239 -0.662644
H37   H     H_    0.139380 0.813830 0.860249 0.327509
Br10  Br    Br    0.080940 0.438516 0.194331 -0.421069
Br11  Br    Br    0.787564 0.557773 0.413318 -0.382604

loop_
_geom_bond_atom_site_label_1
_geom_bond_atom_site_label_2
_ccdc_geom_bond_type
C8    C9    A    
C66   C68   A    
C87   C88   T    
C1    O12   A    
O36   H34   S    
C55   C59   A    
Cr2   O5    S    
C92   O10   A    
C41   C42   A    
C4    O37   S    
Cr3   O4    S    
C36   C42   S    
C82   H18   S    
C75   C76   A    
C52   N2    A    
C64   H16   S    
C7    C8    A    
C57   H13   S    
C96   O18   A    
O33   H31   S    
Cr4   O14   S    
C25   C28   A    
C26   C27   A    
C29   C30   A    
C84   C90   A    
C76   H19   S    
C23   O1    A    
C1    O20   A    
C24   Br2   S    
C38   C42   A    
C48   C52   S    
C34   O26   A    
C94   O15   A    
C85   C86   A    
C5    C6    A    
O28   H26   S    
C68   C74   A    
C15   C16   A    
C56   O24   A    
C22   H2    S    
C54   H8    S    
C18   C19   A    
C46   C47   A    
C83   H17   S    
C80   Br9   S    
N2    N12   A    
C21   N5    A    
C14   C23   S    
Cr6   O10   S    
Cr3   O5    S    
C93   O11   A    
Cr4   O19   S    
C40   C43   A    
Cr1   O5    S    
C47   C48   A    
C53   C54   A    
C44   C46   A    
C16   C17   A    
Cr1   O25   S    
C66   H15   S    
Cr1   O12   S    
C37   N9    A    
C70   C71   A    
C19   O27   S    
C20   N7    A    
C78   H22   S    
C36   N11   A    
C34   C75   S    
C40   H6    S    
C56   O4    A    
C6    Br1   S    
Cr5   O19   S    
C5    H4    S    
C78   C89   A    
Cr3   O23   S    
Cr3   O22   S    
C72   C73   T    
C92   O9    A    
C45   O3    A    
C41   O33   S    
C61   C62   A    
C67   C78   A    
C59   C95   S    
C2    C11   S    
C3    Br5   S    
Cr6   O19   S    
C79   C88   S    
C15   Br11  S    
C51   N4    A    
C53   H11   S    
C54   C59   A    
C77   C79   A    
Cr4   O13   S    
C12   C67   S    
Cr5   O8    S    
C33   O31   S    
C35   O29   S    
Cr2   O20   S    
C69   C74   A    
C84   C85   A    
C20   N1    A    
C39   O30   S    
C34   O25   A    
Cr4   O6    S    
C86   C87   S    
C80   C81   A    
C39   C43   A    
C63   C73   S    
C84   O39   S    
C25   C26   A    
O29   H27   S    
C96   O13   A    
C61   Br6   S    
C7    H23   S    
C56   C60   S    
Cr2   O2    S    
C60   C61   A    
C46   O34   S    
C45   O2    A    
C2    C89   A    
O34   H32   S    
C21   N6    A    
C5    C9    A    
C62   C63   A    
C77   H21   S    
C16   H1    S    
O30   H28   S    
Cr5   O15   S    
Cr4   O7    S    
C1    C29   S    
C17   C18   A    
C37   N10   A    
C85   H20   S    
C51   C58   S    
C32   C37   S    
C76   C77   A    
C30   Br4   S    
O39   H37   S    
C93   O6    A    
C66   C71   A    
C68   H14   S    
C49   H10   S    
C48   C49   A    
C55   H12   S    
C60   C65   A    
C82   C83   A    
C22   C27   A    
C55   C57   A    
C13   C92   S    
O27   H25   S    
C22   C24   A    
C79   C80   A    
C8    Br10  S    
C89   H24   S    
C52   N3    A    
C3    C4    A    
Cr6   O18   S    
C91   O7    A    
C44   C45   S    
N3    N4    A    
C9    C10   S    
C18   Br3   S    
C44   C50   A    
C83   C90   A    
C65   O35   S    
C40   C41   A    
C38   O32   S    
C31   H5    S    
C14   C19   A    
Cr3   O3    S    
C31   C32   A    
C75   C81   A    
C24   C28   A    
O38   H36   S    
C12   O22   A    
C36   N8    A    
C69   O36   S    
C4    C67   A    
Cr2   O26   S    
C53   C58   A    
C90   C96   S    
N8    N9    A    
C20   C27   S    
O32   H30   S    
C29   C35   A    
C43   C93   S    
C95   O16   A    
C32   C33   A    
C2    C3    A    
C71   C72   S    
C82   C86   A    
O37   H35   S    
C6    C13   A    
C30   C31   A    
Cr5   O9    S    
C57   C58   A    
C38   C39   A    
Cr5   O16   S    
Cr1   O24   S    
C47   H9    S    
C64   C65   A    
C33   C35   A    
N6    N7    A    
C28   C91   S    
C95   O17   A    
C50   H7    S    
C12   O21   A    
C69   C70   A    
N1    N5    A    
C25   H3    S    
C10   C11   T    
O31   H29   S    
Cr6   O11   S    
C63   C64   A    
C51   N12   A    
C7    C13   A    
Cr2   O21   S    
C26   O28   S    
C49   C50   A    
C74   C94   S    
C62   Br8   S    
C14   C15   A    
N10   N11   A    
C23   O23   A    
O35   H33   S    
C94   O14   A    
Cr6   O17   S    
Cr1   O1    S    
C91   O8    A    
C70   Br7   S    
C81   O38   S    
C17   C21   S    
