data_mof_unit_47130.cif
_audit_creation_date              2012-12-11T17:22:48-0500
_audit_creation_method            fapswitch 2.2
_symmetry_space_group_name_H-M    P1
_symmetry_Int_Tables_number       1
_space_group_crystal_system       triclinic
_cell_length_a                    8.372029
_cell_length_b                    16.931769
_cell_length_c                    27.146431
_cell_angle_alpha                 99.045728
_cell_angle_beta                  91.523396
_cell_angle_gamma                 85.909116
_cell_volume                      3790.0931828

loop_
_atom_site_label
_atom_site_type_symbol
_atom_type_description
_atom_site_fract_x
_atom_site_fract_y
_atom_site_fract_z
_atom_type_partial_charge
Ba1   Ba    Ba6+2 0.851940 0.461560 0.523510 1.871934
Ba2   Ba    Ba6+2 0.337880 0.538370 0.476480 1.811368
C1    C     C_3   0.740110 0.273688 0.747535 -0.205684
C2    C     C_3   0.685579 0.282037 0.694453 0.810963
C3    C     C_3   0.497152 0.649901 0.627486 0.308728
C4    C     C_3   0.524804 0.658338 0.683930 0.355746
C5    C     C_3   0.961869 0.751638 0.358196 0.311613
C6    C     C_3   0.946739 0.783454 0.308559 0.302642
C7    C     C_3   0.468313 0.737577 0.354012 0.279522
C8    C     C_3   0.411409 0.809116 0.328995 0.263093
C9    C     C_R   0.021254 0.451952 0.180585 0.651523
C10   C     C_R   0.982885 0.594669 0.188037 0.577670
C11   C     C_2   0.795598 0.568417 0.277672 -0.020742
C12   C     C_3   0.210689 0.262759 0.656170 0.253732
C13   C     C_3   0.758120 0.583050 0.332629 -0.074424
C14   C     C_1   0.989658 0.490890 0.345659 -0.040198
C15   C     C_2   0.043073 0.495250 0.299980 -0.106159
C16   C     C_2   0.937204 0.530554 0.261911 0.263499
C17   C     C_R   0.049446 0.516643 0.106629 -0.085779
C18   C     C_R   0.053861 0.446651 0.128912 -0.061174
C19   C     C_R   0.088934 0.372665 0.098899 -0.020444
C20   C     C_R   0.015065 0.591087 0.136744 -0.025091
C21   C     C_2   0.851662 0.526409 0.362058 -0.171004
C22   C     C_2   0.330199 0.470994 0.638262 -0.284450
C23   C     C_3   0.236662 0.213114 0.698090 -0.119818
C24   C     C_R   0.133828 0.432366 0.971326 -0.045961
C25   C     C_R   0.106875 0.579524 0.980548 0.035361
C26   C     C_R   0.133662 0.503627 0.949849 0.056662
C27   C     C_R   0.159213 0.358660 0.939311 -0.127207
C28   C     C_R   0.187417 0.353110 0.888201 0.455304
C29   C     C_R   0.183349 0.424088 0.865813 -0.124635
C30   C     C_R   0.160382 0.499175 0.897236 -0.126924
C31   C     C_R   0.164398 0.570319 0.876126 -0.030548
C32   C     C_R   0.195345 0.566506 0.824642 0.613769
C33   C     C_R   0.201006 0.423403 0.813449 0.631087
C34   C     C_3   0.082574 0.309903 0.319692 0.163843
C35   C     C_2   0.399768 0.445841 0.725902 -0.089510
C36   C     C_3   0.430110 0.421631 0.670664 -0.086136
C37   C     C_1   0.202167 0.515385 0.656121 0.014948
C38   C     C_2   0.158488 0.524364 0.703881 -0.054402
C39   C     C_2   0.263223 0.488615 0.741876 0.219633
C40   C     C_R   0.109765 0.436587 0.023988 0.037360
C41   C     C_R   0.078587 0.512300 0.054238 0.061103
C42   C     C_R   0.075797 0.583789 0.032678 0.017080
C43   C     C_R   0.116310 0.367581 0.047941 -0.080984
C44   C     C_R   0.011455 0.660887 0.114937 -0.034322
C45   C     C_3   0.124264 0.220454 0.304334 0.336491
C46   C     C_R   0.112725 0.648979 0.957816 -0.089088
C47   C     C_R   0.140987 0.644336 0.907114 -0.028904
C48   C     C_R   0.040830 0.657503 0.064356 -0.093410
C49   C     C_R   0.378098 0.249772 0.504829 0.055654
C50   C     C_R   0.537551 0.234347 0.491473 -0.052840
C51   C     C_R   0.604982 0.154094 0.491472 0.327797
C52   C     C_R   0.521694 0.102766 0.517829 0.305654
C53   C     C_R   0.378157 0.132627 0.543032 -0.146853
C54   C     C_R   0.304980 0.207329 0.536417 -0.130075
C55   C     C_R   0.625712 0.856739 0.530772 0.320560
C56   C     C_3   0.998953 0.708349 0.590104 0.300986
C57   C     C_R   0.666585 0.772689 0.519055 -0.048096
C58   C     C_R   0.729272 0.910296 0.513829 0.269379
C59   C     C_R   0.801042 0.743907 0.490846 -0.343977
C60   C     C_R   0.907605 0.795517 0.477759 -0.048284
C61   C     C_R   0.871929 0.878672 0.489019 -0.107652
C62   C     C_3   0.947814 0.794517 0.612357 -0.302087
C63   C     C_3   0.622345 0.342774 0.366348 0.294950
C64   C     C_3   0.542764 0.302868 0.316776 0.662428
H1    H     H_    0.246329 0.204862 0.317617 0.108551
H2    H     H_    0.892621 0.678064 0.573731 -0.014420
H3    H     H_    0.089009 0.708242 0.560787 0.014697
H4    H     H_    0.924996 0.831802 0.582690 0.016355
H5    H     H_    0.739897 0.364172 0.359155 -0.063202
H6    H     H_    0.545861 0.395091 0.383693 0.023047
H7    H     H_    0.870467 0.257545 0.748977 0.156686
H8    H     H_    0.367557 0.650936 0.618902 0.005885
H9    H     H_    0.473453 0.607970 0.698256 -0.060731
H10   H     H_    0.655532 0.655781 0.692256 0.050932
H11   H     H_    0.714945 0.331446 0.772596 0.051431
H12   H     H_    0.337966 0.234420 0.722540 0.142733
H13   H     H_    0.850713 0.770751 0.379247 -0.052758
H14   H     H_    0.836831 0.761341 0.288836 0.017445
H15   H     H_    0.599630 0.740004 0.359872 -0.111114
H16   H     H_    0.410743 0.742606 0.390786 0.125398
H17   H     H_    0.287103 0.803755 0.315081 0.089570
H18   H     H_    0.177823 0.325939 0.672460 0.053740
H19   H     H_    0.489083 0.811595 0.296799 0.053893
H20   H     H_    0.165559 0.475604 0.290218 0.141565
H21   H     H_    0.094714 0.317636 0.114749 0.145331
H22   H     H_    0.477430 0.419315 0.752394 0.077105
H23   H     H_    0.143606 0.307837 0.028676 0.098824
H24   H     H_    0.714684 0.594725 0.251846 0.087224
H25   H     H_    0.984722 0.719205 0.137044 0.149719
H26   H     H_    0.097948 0.708777 0.978225 0.087641
H27   H     H_    0.325978 0.259356 0.636192 -0.043891
H28   H     H_    0.045688 0.556634 0.715543 0.114140
H29   H     H_    0.032823 0.714450 0.051299 0.091875
H30   H     H_    0.316805 0.094923 0.563984 0.174202
H31   H     H_    0.953951 0.918849 0.477775 0.196030
H32   H     H_    0.127591 0.218271 0.720820 0.181447
H33   H     H_    0.263496 0.149094 0.682341 0.152927
H34   H     H_    0.956892 0.323877 0.308500 0.090896
H35   H     H_    0.163114 0.342712 0.299667 0.073185
N1    N     N_R   0.984174 0.525570 0.209671 -0.435235
N2    N     N_R   0.216135 0.493486 0.794024 -0.438612
N3    N     N_2   0.558193 0.018047 0.511060 -0.062938
N4    N     N_2   0.697860 0.995726 0.522632 -0.108567
O1    O     O_2   0.915540 0.542930 0.617950 -0.454615
O2    O     O_3   0.648864 0.284396 0.397450 -0.526548
O3    O     O_3   0.083480 0.233082 0.625655 -0.533526
O4    O     O_2   0.274150 0.457040 0.382020 -0.461559
O5    O     O_3   0.042160 0.457070 0.442220 -0.414098
O6    O     O_3   0.525310 0.603770 0.411640 -0.492441
O7    O     O_3   0.101199 0.329217 0.371757 -0.551292
O8    O     O_3   0.637620 0.597020 0.524620 -0.502045
O9    O     O_3   0.118810 0.645070 0.435950 -0.509164
O10   O     O_2   0.242052 0.785689 0.470476 -0.406636
O11   O     O_3   0.097076 0.779162 0.385324 -0.549242
O12   O     O_3   0.147530 0.542870 0.557780 -0.492595
O13   O     O_3   0.552080 0.402920 0.475380 -0.485791
O14   O     O_2   0.387280 0.697260 0.523450 -0.456510
O15   O     O_3   0.562195 0.713727 0.609704 -0.574630
O16   O     O_2   0.462366 0.510285 0.326644 -0.431314
O17   O     O_3   0.429254 0.665781 0.324139 -0.625353
O18   O     O_2   0.022696 0.390829 0.199285 -0.499194
O19   O     O_2   0.199358 0.360622 0.784642 -0.549580
O20   O     O_2   0.953396 0.659846 0.213478 -0.623843
O21   O     O_2   0.205471 0.628270 0.807255 -0.524043
O22   O     O_3   0.664390 0.396160 0.588360 -0.468920
O23   O     O_2   0.720887 0.493158 0.672170 -0.505371
O24   O     O_3   0.066696 0.670718 0.628528 -0.591131
O25   O     O_3   0.774095 0.340184 0.677145 -0.587474
O26   O     O_2   0.802410 0.302720 0.476520 -0.358828
O27   O     O_3   0.070880 0.354870 0.564040 -0.430205
O28   O     O_2   0.966107 0.211681 0.536489 -0.334539
P1    P     P_3+3 0.086060 0.566890 0.610430 1.007760
P2    P     P_3+3 0.625290 0.314770 0.461990 1.217561
P3    P     P_3+3 0.109233 0.251082 0.564932 1.159958
P4    P     P_3+3 0.103630 0.433040 0.389570 1.139924
P5    P     P_3+3 0.090660 0.750805 0.444402 1.032011
P6    P     P_3+3 0.646284 0.412855 0.653344 0.991125
P7    P     P_3+3 0.564397 0.696332 0.544393 1.022991
P8    P     P_3+3 0.542135 0.588267 0.347079 0.993707
S1    S     S_3+6 0.714068 0.187920 0.654286 -0.046582
O29   O     O_2   0.578036 0.137196 0.660305 -0.300787
O30   O     O_2   0.716339 0.202877 0.601300 -0.324708
O31   O     O_3   0.886709 0.138791 0.668314 -0.494707
H36   H     H_    0.899795 0.092011 0.641449 0.384342
H37   H     H_    0.042994 0.185189 0.322240 0.083619
S2    S     S_3+6 0.115507 0.192712 0.238081 0.047017
O32   O     O_2   0.161515 0.104601 0.225077 -0.185335
O33   O     O_2   0.948988 0.210069 0.218870 -0.170588
O34   O     O_3   0.243466 0.244926 0.211524 -0.444495
H38   H     H_    0.238218 0.223587 0.175438 0.374272
H39   H     H_    0.837513 0.796044 0.634408 0.171460
H40   H     H_    0.043499 0.821231 0.637322 0.189482
S3    S     S_3+6 0.586058 0.195602 0.303315 0.055759
O35   O     O_2   0.763173 0.177151 0.298998 -0.261273
O36   O     O_2   0.506233 0.161508 0.255232 -0.163840
O37   O     O_3   0.518209 0.151558 0.349167 -0.475944
H41   H     H_    0.567473 0.096206 0.342599 0.427696
S4    S     S_3+6 0.584258 0.347650 0.262778 -0.017906
O38   O     O_2   0.714155 0.404311 0.274479 -0.380458
O39   O     O_2   0.635945 0.285223 0.219471 -0.149139
O40   O     O_3   0.416778 0.397628 0.245428 -0.510584
H42   H     H_    0.449664 0.424770 0.217928 0.357616
H43   H     H_    0.412815 0.312009 0.322356 -0.057977
H44   H     H_    0.555160 0.296519 0.695753 -0.237823
H45   H     H_    0.674934 0.226855 0.761375 0.146484
H46   H     H_    0.555510 0.591196 0.610666 -0.039639
S5    S     S_3+6 0.435712 0.750275 0.716333 0.010854
O41   O     O_2   0.260028 0.757575 0.703757 -0.262278
O42   O     O_2   0.457474 0.750690 0.771491 -0.231471
O43   O     O_3   0.525424 0.827947 0.700111 -0.437895
H47   H     H_    0.460290 0.876263 0.715434 0.390043
H48   H     H_    0.975496 0.685386 0.349900 -0.074638
S6    S     S_3+6 0.933491 0.890718 0.315237 -0.004182
O44   O     O_2   0.062215 0.916409 0.284806 -0.222473
O45   O     O_2   0.772711 0.919160 0.296261 -0.224017
O46   O     O_3   0.956398 0.932091 0.375215 -0.462662
H49   H     H_    0.992181 0.986236 0.374044 0.396981
H50   H     H_    0.050749 0.759314 0.285136 0.074407
S7    S     S_3+6 0.421452 0.899541 0.372352 0.022556
O47   O     O_2   0.432054 0.968775 0.344482 -0.200571
O48   O     O_2   0.275572 0.913962 0.404265 -0.188593
O49   O     O_3   0.582528 0.891632 0.409669 -0.501341
H51   H     H_    0.674018 0.882764 0.386817 0.367251
S8    S     S_3+6 0.237596 0.254860 0.855760 -0.033062
O50   O     O_2   0.102467 0.229182 0.820690 -0.269849
O51   O     O_2   0.388210 0.254742 0.826774 -0.278076
O52   O     O_3   0.268177 0.188555 0.895755 -0.501455
H52   H     H_    0.292847 0.136274 0.874399 0.385619
H53   H     H_    0.157610 0.302973 0.953293 0.149962
H54   H     H_    0.144575 0.699871 0.892163 0.148646
H55   H     H_    0.814446 0.524696 0.399863 0.030070
H56   H     H_    0.350992 0.458362 0.598403 0.079579
S9    S     S_3+6 0.453670 0.897388 0.567057 -0.013613
O53   O     O_2   0.501673 0.967247 0.604436 -0.227470
O54   O     O_2   0.327710 0.927465 0.532668 -0.278230
O55   O     O_3   0.368944 0.834426 0.598815 -0.451951
H57   H     H_    0.263219 0.825512 0.582568 0.332002
S10   S     S_3+6 0.760747 0.108525 0.450043 -0.002991
O56   O     O_2   0.901011 0.078548 0.479190 -0.279518
O57   O     O_2   0.693749 0.037879 0.418037 -0.230569
O58   O     O_3   0.829500 0.165811 0.411556 -0.451289
H58   H     H_    0.892791 0.128343 0.386544 0.356769
S11   S     S_3+6 0.255788 0.293538 0.463607 -0.062843
O59   O     O_2   0.232014 0.379215 0.487059 -0.274147
O60   O     O_2   0.336632 0.284972 0.414355 -0.359093
O61   O     O_3   0.084167 0.249029 0.453333 -0.439519
H59   H     H_    0.117691 0.192259 0.440858 0.340406
H60   H     H_    0.829115 0.679925 0.481622 0.061916

loop_
_geom_bond_atom_site_label_1
_geom_bond_atom_site_label_2
_ccdc_geom_bond_type
C25   C46   A    
C53   C54   A    
C19   H21   S    
Ba2   O4    S    
C62   H40   S    
C11   H24   S    
S3    O36   D    
S5    O41   D    
C35   H22   S    
O40   H42   S    
C58   N4    S    
S2    O34   S    
C12   H18   S    
O58   H58   S    
Ba1   O27   S    
C64   S4    S    
O46   H49   S    
Ba2   O13   S    
C6    S6    S    
C1    H45   S    
C4    H9    S    
S6    O45   D    
C47   H54   S    
C51   C52   A    
O43   H47   S    
C35   C36   S    
O22   P6    S    
C11   C16   D    
C55   S9    S    
C58   C61   A    
O14   P7    D    
C28   S8    S    
C8    H19   S    
C52   N3    S    
C33   O19   D    
O23   P6    D    
S2    O33   D    
O3    P3    S    
O26   P2    D    
C2    S1    S    
C28   C29   A    
Ba2   O8    S    
C48   H29   S    
C55   C57   A    
C14   C15   D    
O25   P6    S    
C56   O24   S    
C31   C47   A    
C5    H48   S    
C10   C20   A    
C8    H17   S    
C22   C37   D    
O49   H51   S    
C34   C45   S    
O4    P4    D    
C49   C54   A    
C16   N1    S    
C3    H46   S    
C3    H8    S    
O2    P2    S    
C13   P8    S    
C25   C42   A    
C23   H33   S    
C64   S3    S    
C17   C18   A    
C2    H44   S    
S10   O56   D    
C34   O7    S    
O28   P3    D    
C22   C36   S    
O34   H38   S    
C27   H53   S    
O55   H57   S    
O15   P7    S    
C62   H4    S    
C43   H23   S    
C7    C8    S    
C12   H27   S    
O11   P5    S    
O27   P3    S    
Ba1   O1    S    
Ba1   O13   S    
S9    O55   S    
C12   O3    S    
S3    O37   S    
S5    O42   D    
S1    O31   S    
O52   H52   S    
Ba1   O8    S    
O12   P1    S    
C45   H1    S    
N3    N4    D    
C54   P3    S    
Ba2   O12   S    
C17   C41   A    
C15   C16   S    
S6    O46   S    
C19   C43   A    
S11   O60   D    
C56   C62   S    
C9    C18   A    
C45   H37   S    
Ba2   O6    S    
C57   C59   A    
C14   P4    S    
C3    O15   S    
C49   C50   A    
S4    O40   S    
O16   P8    D    
C26   C30   A    
C17   C20   A    
S2    O32   D    
S7    O48   D    
C37   C38   D    
O61   H59   S    
C55   C58   A    
C2    O25   S    
C10   O20   D    
C63   H5    S    
C62   H39   S    
C23   H12   S    
C7    H16   S    
C34   H35   S    
C40   C43   A    
S4    O39   D    
C5    O11   S    
S7    O47   D    
C41   C42   A    
C10   N1    Am   
C27   C28   A    
C4    S5    S    
Ba1   O5    S    
C6    H50   S    
C29   C30   A    
C45   S2    S    
O10   P5    D    
C22   H56   S    
C32   O21   D    
C21   H55   S    
C60   C61   A    
C7    O17   S    
O8    P7    S    
C34   H34   S    
Ba1   O12   S    
C60   P5    S    
C56   H2    S    
C38   C39   S    
C20   C44   A    
C14   C21   D    
C15   H20   S    
C11   C13   S    
O37   H41   S    
S5    O43   S    
S1    O30   D    
C40   C41   A    
S8    O51   D    
Ba1   P1    S    
C1    H11   S    
O31   H36   S    
S3    O35   D    
C50   C51   A    
C24   C40   A    
C5    H13   S    
S11   O61   S    
C42   C48   A    
C8    S7    S    
S11   O59   D    
C52   C53   A    
Ba2   O5    S    
S7    O49   S    
C64   H43   S    
C51   S10   S    
C24   C26   A    
O7    P4    S    
O5    P4    S    
C9    O18   D    
Ba1   O22   S    
C38   H28   S    
C53   H30   S    
Ba1   O26   S    
Ba2   O14   S    
C49   S11   S    
C56   H3    S    
C4    H10   S    
C44   H25   S    
Ba2   P4    S    
C63   H6    S    
C44   C48   A    
C33   N2    Am   
C32   N2    Am   
S4    O38   D    
S8    O52   S    
C61   H31   S    
S6    O44   D    
C30   C31   A    
Ba2   O9    S    
C3    C4    S    
C57   P7    S    
S10   O58   S    
C46   C47   A    
Ba1   Ba2   S    
C13   C21   S    
C31   C32   A    
C9    N1    Am   
C29   C33   A    
C59   H60   S    
O9    P5    S    
C12   C23   S    
C35   C39   D    
C59   C60   A    
C1    H7    S    
O24   P1    S    
C5    C6    S    
O6    P8    S    
S9    O53   D    
C39   N2    S    
C23   H32   S    
O1    P1    D    
C36   P6    S    
C18   C19   A    
C24   C27   A    
S10   O57   D    
C63   C64   S    
C46   H26   S    
C25   C26   A    
C6    H14   S    
C50   P2    S    
S1    O29   D    
O17   P8    S    
S8    O50   D    
Ba1   P2    S    
C63   O2    S    
O13   P2    S    
C1    C2    S    
C7    H15   S    
S9    O54   D    
C37   P1    S    
