data_mof_unit_43937.cif
_audit_creation_date              2012-12-10T19:45:01-0500
_audit_creation_method            fapswitch 2.2
_symmetry_space_group_name_H-M    P1
_symmetry_Int_Tables_number       1
_space_group_crystal_system       triclinic
_cell_length_a                    15.100473
_cell_length_b                    10.818293
_cell_length_c                    13.83275
_cell_angle_alpha                 88.500373
_cell_angle_beta                  91.314487
_cell_angle_gamma                 87.550555
_cell_volume                      2256.24375352

loop_
_atom_site_label
_atom_site_type_symbol
_atom_type_description
_atom_site_fract_x
_atom_site_fract_y
_atom_site_fract_z
_atom_type_partial_charge
C1    C     C_R   0.498862 0.262624 0.500772 0.901476
C2    C     C_R   0.629516 0.856676 0.619447 -0.254454
C3    C     C_R   0.389543 0.180051 0.285456 0.448047
C4    C     C_R   0.610231 0.820119 0.714696 0.448501
C5    C     C_R   0.326584 0.249299 0.228919 0.419830
C6    C     C_R   0.673081 0.750852 0.771362 0.419197
C7    C     C_R   0.243271 0.279121 0.265773 0.501776
C8    C     C_R   0.756409 0.720825 0.734631 0.502083
C9    C     C_R   0.439925 0.939277 0.438968 0.409641
C10   C     C_R   0.560108 0.060725 0.561014 0.409678
C11   C     C_R   0.502087 0.871525 0.498465 -0.145560
C12   C     C_R   0.501146 0.737375 0.499228 0.901636
C13   C     C_R   0.497931 0.128474 0.501533 -0.145540
C14   C     C_R   0.562177 0.930658 0.559875 0.074391
C15   C     C_R   0.437829 0.069342 0.440139 0.074444
C16   C     C_R   0.328711 0.501189 0.499076 0.851157
C17   C     C_R   0.671289 0.498804 0.500923 0.851243
C18   C     C_R   0.562303 0.428425 0.798233 0.510680
C19   C     C_R   0.437697 0.571574 0.201768 0.510868
C20   C     C_R   0.439636 0.573854 0.789783 0.804909
C21   C     C_R   0.560365 0.426148 0.210217 0.805161
C22   C     C_R   0.439565 0.578991 0.892760 -0.215089
C23   C     C_R   0.055087 0.401094 0.660997 0.318007
C24   C     C_R   0.560436 0.421011 0.107240 -0.215240
C25   C     C_R   0.500438 0.501282 0.948335 -0.104506
C26   C     C_R   0.499563 0.498719 0.051665 -0.104626
C27   C     C_R   0.562742 0.426571 0.900684 -0.141363
C28   C     C_R   0.437258 0.573429 0.099316 -0.141313
C29   C     C_R   0.379441 0.657364 0.942308 0.358781
C30   C     C_R   0.620561 0.342639 0.057691 0.358715
C31   C     C_R   0.376769 0.651274 0.043436 0.737224
C32   C     C_R   0.623232 0.348728 0.956564 0.737252
C33   C     C_R   0.810596 0.547227 0.421940 -0.141049
C34   C     C_R   0.944914 0.598859 0.338994 0.318011
C35   C     C_R   0.189406 0.452744 0.578057 -0.140898
C36   C     C_R   0.768172 0.498255 0.502115 -0.249809
C37   C     C_R   0.231829 0.501721 0.497882 -0.250049
C38   C     C_R   0.818161 0.448854 0.581705 0.704864
C39   C     C_R   0.181839 0.551105 0.418288 0.704658
C40   C     C_R   0.911026 0.449126 0.581756 -0.102265
C41   C     C_R   0.088975 0.550826 0.418235 -0.102419
C42   C     C_R   0.953536 0.499398 0.500422 -0.091624
C43   C     C_R   0.046466 0.500557 0.499570 -0.091524
C44   C     C_R   0.902953 0.548676 0.419992 0.055431
C45   C     C_R   0.222574 0.240208 0.359453 0.358500
C46   C     C_R   0.097048 0.451282 0.580001 0.055757
C47   C     C_R   0.961991 0.400429 0.661485 0.630969
C48   C     C_R   0.038010 0.599521 0.338505 0.631068
C49   C     C_R   0.777235 0.759559 0.640948 0.358845
C50   C     C_R   0.286608 0.173539 0.418493 0.173731
C51   C     C_R   0.713310 0.826249 0.581778 0.173300
C52   C     C_R   0.370385 0.143313 0.380700 -0.254575
Cu1   Cu    Cu3+1 0.500010 0.499980 0.597420 1.060805
Cu2   Cu    Cu3+1 0.499990 0.500020 0.402580 1.060894
F1    F     F_    0.378559 0.640799 0.734776 -0.599818
F2    F     F_    0.817609 0.654800 0.790324 -0.485929
F3    F     F_    0.139993 0.266450 0.392066 -0.615925
F4    F     F_    0.859837 0.733135 0.608464 -0.615973
F5    F     F_    0.469654 0.149627 0.248033 -0.581285
F6    F     F_    0.530097 0.850727 0.751994 -0.581177
F7    F     F_    0.346081 0.286516 0.137747 -0.562599
F8    F     F_    0.653461 0.713817 0.862541 -0.562799
F9    F     F_    0.621443 0.359205 0.265224 -0.599857
F10   F     F_    0.316242 0.727342 0.086110 -0.500826
F11   F     F_    0.683760 0.272661 0.913890 -0.500790
F12   F     F_    0.776272 0.398703 0.658014 -0.535216
F13   F     F_    0.223727 0.601259 0.341979 -0.535157
F14   F     F_    0.921653 0.352507 0.740043 -0.523227
F15   F     F_    0.078347 0.647438 0.259946 -0.523186
F16   F     F_    0.181964 0.345122 0.210206 -0.486069
H1    H     H_    0.770913 0.585774 0.361271 0.238317
H2    H     H_    0.931903 0.678378 0.210413 0.412278
H3    H     H_    0.208821 0.165947 0.528753 0.394184
H4    H     H_    0.791225 0.833551 0.471625 0.394105
H5    H     H_    0.229090 0.414205 0.638729 0.238267
H6    H     H_    0.343105 0.930820 0.341553 0.372354
H7    H     H_    0.657105 0.069180 0.658232 0.372358
H8    H     H_    0.608938 0.341318 0.689615 0.408376
H9    H     H_    0.391061 0.658682 0.310384 0.408348
H10   H     H_    0.358739 0.790044 0.848813 0.400316
H11   H     H_    0.641263 0.209959 0.151187 0.400226
H12   H     H_    0.068096 0.321603 0.789589 0.412280
N1    N     N_R   0.499960 0.499900 0.743810 -0.327199
N2    N     N_R   0.500040 0.500100 0.256190 -0.327120
O1    O     O_R   0.500000 0.319630 0.582270 -0.594914
O2    O     O_3   0.619454 0.125590 0.615884 -0.677173
O3    O     O_3   0.627166 0.357110 0.755794 -0.546641
O4    O     O_3   0.372831 0.642884 0.244207 -0.546668
O5    O     O_3   0.322801 0.743016 0.894877 -0.568042
O6    O     O_3   0.677201 0.256987 0.105123 -0.568042
O7    O     O_3   0.106575 0.353592 0.738489 -0.663450
O8    O     O_3   0.893425 0.646359 0.261501 -0.663394
O9    O     O_3   0.269310 0.135852 0.512132 -0.645439
O10   O     O_3   0.730735 0.863764 0.488134 -0.645630
O11   O     O_R   0.500000 0.680370 0.417730 -0.594954
O12   O     O_R   0.499990 0.319660 0.417730 -0.546906
O13   O     O_R   0.500010 0.680340 0.582270 -0.547048
O14   O     O_R   0.370260 0.499960 0.582280 -0.532882
O15   O     O_R   0.629740 0.500040 0.417720 -0.532930
O16   O     O_R   0.370250 0.499990 0.417740 -0.592793
O17   O     O_R   0.629750 0.500010 0.582260 -0.592828
O18   O     O_3   0.380589 0.874420 0.384082 -0.677157

loop_
_geom_bond_atom_site_label_1
_geom_bond_atom_site_label_2
_ccdc_geom_bond_type
H8    O3    S    
C40   C47   A    
C38   C40   A    
C22   C29   A    
H4    O10   S    
H3    O9    S    
C48   F15   S    
C30   O6    S    
C8    F2    S    
C7    F16   S    
Cu2   N2    S    
C39   C41   A    
Cu1   Cu2   S    
C45   F3    S    
C7    C45   A    
C35   C37   A    
C24   C26   A    
H2    O8    S    
C11   C14   A    
C33   C36   A    
H10   O5    S    
C17   O17   A    
C38   F12   S    
Cu1   O17   S    
C9    O18   S    
C49   C51   A    
C22   C25   A    
C50   C52   A    
C12   O11   A    
C17   C36   S    
Cu2   O12   S    
C16   C37   S    
C40   C42   A    
C23   C46   A    
H6    O18   S    
C41   C43   A    
Cu2   O16   S    
C42   C44   A    
C20   F1    S    
C29   O5    S    
H9    O4    S    
C34   O8    S    
C1    O1    A    
C23   C47   A    
C34   C44   A    
C4    C6    A    
C19   O4    S    
C10   C14   A    
C5    C7    A    
C33   H1    S    
C16   O16   A    
C6    C8    A    
Cu1   O13   S    
C25   C26   A    
H12   O7    S    
C2    C4    A    
C17   O15   A    
C21   N2    A    
C11   C12   S    
C35   H5    S    
C4    F6    S    
C18   N1    A    
C12   O13   A    
C5    F7    S    
C15   C52   S    
C19   C28   A    
C9    C11   A    
Cu2   O11   S    
H11   O6    S    
C20   C22   A    
H7    O2    S    
C13   C15   A    
C23   O7    S    
Cu2   O15   S    
C21   C24   A    
C1    C13   S    
C42   C43   A    
C19   N2    A    
C47   F14   S    
C10   O2    S    
C27   C32   A    
C33   C44   A    
C39   F13   S    
C31   F10   S    
C28   C31   A    
C18   C27   A    
C3    C5    A    
C10   C13   A    
C3    C52   A    
C50   O9    S    
Cu1   O14   S    
C25   C27   A    
C26   C28   A    
C18   O3    S    
Cu1   N1    S    
C6    F8    S    
C36   C38   A    
C9    C15   A    
C37   C39   A    
C30   C32   A    
C16   O14   A    
C45   C50   A    
C1    O12   A    
C41   C48   A    
C2    C14   S    
C43   C46   A    
C24   C30   A    
C21   F9    S    
C2    C51   A    
C49   F4    S    
C51   O10   S    
C34   C48   A    
C29   C31   A    
C20   N1    A    
Cu1   O1    S    
C35   C46   A    
C8    C49   A    
C32   F11   S    
C3    F5    S    
