data_mof_unit_65545.cif
_audit_creation_date              2012-12-10T20:24:55-0500
_audit_creation_method            fapswitch 2.2
_symmetry_space_group_name_H-M    P1
_symmetry_Int_Tables_number       1
_space_group_crystal_system       triclinic
_cell_length_a                    25.650641
_cell_length_b                    25.650643
_cell_length_c                    43.167665
_cell_angle_alpha                 90.000041
_cell_angle_beta                  90.00004
_cell_angle_gamma                 89.999973
_cell_volume                      28402.3998035

loop_
_atom_site_label
_atom_site_type_symbol
_atom_type_description
_atom_site_fract_x
_atom_site_fract_y
_atom_site_fract_z
_atom_type_partial_charge
C1    C     C_1   0.171752 0.328248 0.250000 -0.038685
C2    C     C_1   0.828248 0.328248 0.250000 -0.038727
C3    C     C_R   0.500000 0.000000 0.531478 0.358137
C4    C     C_R   0.500000 0.000000 0.968522 0.358137
C5    C     C_R   0.500000 1.000000 0.031478 0.358137
C6    C     C_R   0.000000 0.500000 0.968522 0.358137
C7    C     C_R   1.000000 0.500000 0.031478 0.358137
C8    C     C_R   0.500000 0.000000 0.334414 0.553674
C9    C     C_R   0.500000 1.000000 0.665586 0.553672
C10   C     C_R   0.000000 0.500000 0.334414 0.553672
C11   C     C_R   0.000000 0.500000 0.665586 0.553671
C12   C     C_R   0.000000 0.500000 0.834414 0.553671
C13   C     C_1   0.671752 0.828248 0.750000 -0.038675
C14   C     C_R   1.000000 0.500000 0.165586 0.553669
C15   C     C_R   0.500000 0.000000 0.834414 0.553671
C16   C     C_R   0.500000 1.000000 0.165586 0.553671
C17   C     C_R   0.599036 0.099036 0.250000 0.508689
C18   C     C_R   0.400964 0.900964 0.750000 0.508709
C19   C     C_R   0.900964 0.599036 0.250000 0.508773
C20   C     C_R   0.099036 0.400964 0.750000 0.508754
C21   C     C_R   0.400964 0.900964 0.250000 0.508689
C22   C     C_R   0.599036 0.099036 0.750000 0.508709
C23   C     C_R   0.099036 0.400964 0.250000 0.508772
C24   C     C_1   0.328248 0.171752 0.250000 -0.038659
C25   C     C_R   0.900964 0.599036 0.750000 0.508753
C26   C     C_R   0.599036 0.900964 0.750000 0.508785
C27   C     C_R   0.400964 0.099036 0.250000 0.508808
C28   C     C_R   0.900964 0.400964 0.750000 0.508741
C29   C     C_R   0.099036 0.599036 0.250000 0.508724
C30   C     C_R   0.400964 0.099036 0.750000 0.508786
C31   C     C_R   0.599036 0.900964 0.250000 0.508809
C32   C     C_R   0.099036 0.599036 0.750000 0.508741
C33   C     C_R   0.900964 0.400964 0.250000 0.508724
C34   C     C_R   0.207845 0.246391 0.270481 -0.095655
C35   C     C_1   0.828248 0.328248 0.750000 -0.038712
C36   C     C_R   0.792262 0.753717 0.729604 -0.095655
C37   C     C_R   0.753734 0.207721 0.270382 -0.095684
C38   C     C_R   0.246209 0.792337 0.729664 -0.095675
C39   C     C_R   0.792260 0.753714 0.270398 -0.095647
C40   C     C_R   0.207738 0.246283 0.729604 -0.095655
C41   C     C_R   0.246266 0.792279 0.270382 -0.095682
C42   C     C_R   0.753791 0.207663 0.729664 -0.095675
C43   C     C_R   0.207663 0.753791 0.729664 -0.095675
C44   C     C_R   0.792279 0.246266 0.270382 -0.095683
C45   C     C_R   0.753717 0.792262 0.729604 -0.095655
C46   C     C_1   0.171752 0.671752 0.250000 -0.038727
C47   C     C_R   0.246391 0.207845 0.270481 -0.095654
C48   C     C_R   0.792337 0.246209 0.729664 -0.095675
C49   C     C_R   0.207721 0.753734 0.270382 -0.095683
C50   C     C_R   0.246283 0.207738 0.729604 -0.095655
C51   C     C_R   0.753714 0.792260 0.270398 -0.095647
C52   C     C_R   0.707737 0.746283 0.770395 -0.095661
C53   C     C_R   0.292154 0.253609 0.229519 -0.095662
C54   C     C_R   0.253791 0.707663 0.770336 -0.095658
C55   C     C_R   0.746266 0.292279 0.229617 -0.095665
C56   C     C_R   0.292262 0.253717 0.770396 -0.095662
C57   C     C_1   0.328248 0.171752 0.750000 -0.038676
C58   C     C_R   0.707740 0.746286 0.229602 -0.095655
C59   C     C_R   0.746209 0.292336 0.770336 -0.095658
C60   C     C_R   0.253734 0.707721 0.229617 -0.095664
C61   C     C_R   0.707721 0.253734 0.229617 -0.095674
C62   C     C_R   0.292336 0.746209 0.770336 -0.095668
C63   C     C_R   0.253609 0.292154 0.229519 -0.095673
C64   C     C_R   0.746283 0.707737 0.770395 -0.095671
C65   C     C_R   0.292279 0.746266 0.229617 -0.095676
C66   C     C_R   0.707663 0.253791 0.770336 -0.095669
C67   C     C_R   0.746286 0.707740 0.229602 -0.095665
C68   C     C_1   0.671752 0.828248 0.250000 -0.038654
C69   C     C_R   0.253717 0.292262 0.770396 -0.095672
C70   C     C_R   0.211390 0.288610 0.250000 0.034881
C71   C     C_R   0.788610 0.711390 0.750000 0.034891
C72   C     C_R   0.711390 0.211390 0.250000 0.034895
C73   C     C_1   0.828248 0.671752 0.750000 -0.038699
C74   C     C_R   0.288610 0.788610 0.750000 0.034901
C75   C     C_R   0.788610 0.711390 0.250000 0.034891
C76   C     C_R   0.211390 0.288610 0.750000 0.034892
C77   C     C_R   0.288610 0.788610 0.250000 0.034895
C78   C     C_R   0.711390 0.211390 0.750000 0.034901
C79   C     C_R   0.211390 0.711390 0.750000 0.034901
C80   C     C_R   0.788610 0.288610 0.250000 0.034896
C81   C     C_R   0.711390 0.788610 0.750000 0.034892
C82   C     C_R   0.288610 0.211390 0.250000 0.034881
C83   C     C_R   0.788610 0.288610 0.750000 0.034901
C84   C     C_1   0.671752 0.171752 0.250000 -0.038754
C85   C     C_R   0.211390 0.711390 0.250000 0.034896
C86   C     C_R   0.288610 0.211390 0.750000 0.034892
C87   C     C_R   0.711390 0.788610 0.250000 0.034892
C88   C     C_R   0.499758 0.047318 0.114581 0.330065
C89   C     C_R   0.500146 0.952682 0.885419 0.330068
C90   C     C_R   0.952681 0.499991 0.114581 0.330068
C91   C     C_R   0.047318 0.500086 0.885419 0.330068
C92   C     C_R   0.500242 0.952682 0.114581 0.330067
C93   C     C_R   0.499853 0.047318 0.885419 0.330067
C94   C     C_R   0.047318 0.500009 0.114581 0.330065
C95   C     C_1   0.328248 0.828248 0.750000 -0.038736
C96   C     C_R   0.952682 0.499914 0.885419 0.330068
C97   C     C_R   0.999849 0.547318 0.614581 0.330068
C98   C     C_R   0.000246 0.452682 0.385419 0.330065
C99   C     C_R   0.452682 0.000229 0.614581 0.330067
C100  C     C_R   0.547317 0.999663 0.385419 0.330067
C101  C     C_R   0.000150 0.452682 0.614581 0.330068
C102  C     C_R   0.999754 0.547318 0.385419 0.330067
C103  C     C_R   0.547318 0.999771 0.614581 0.330068
C104  C     C_R   0.452683 0.000337 0.385419 0.330064
C105  C     C_1   0.361459 0.138541 0.250000 0.026317
C106  C     C_1   0.828248 0.671752 0.250000 -0.038681
C107  C     C_1   0.638541 0.861459 0.750000 0.026288
C108  C     C_1   0.861459 0.361459 0.250000 0.026208
C109  C     C_1   0.138541 0.638541 0.750000 0.026229
C110  C     C_1   0.638541 0.861459 0.250000 0.026319
C111  C     C_1   0.361459 0.138541 0.750000 0.026288
C112  C     C_1   0.138541 0.638541 0.250000 0.026208
C113  C     C_1   0.861459 0.361459 0.750000 0.026229
C114  C     C_1   0.361459 0.861459 0.750000 0.026190
C115  C     C_1   0.638541 0.138541 0.250000 0.026164
C116  C     C_1   0.861459 0.638541 0.750000 0.026248
C117  C     C_1   0.171752 0.328248 0.750000 -0.038699
C118  C     C_1   0.138541 0.361459 0.250000 0.026274
C119  C     C_1   0.638541 0.138541 0.750000 0.026189
C120  C     C_1   0.361459 0.861459 0.250000 0.026164
C121  C     C_1   0.138541 0.361459 0.750000 0.026248
C122  C     C_1   0.861459 0.638541 0.250000 0.026275
C123  C     C_R   0.500000 0.000000 0.065739 -0.087810
C124  C     C_R   0.500000 1.000000 0.934261 -0.087810
C125  C     C_R   0.000000 0.500000 0.065739 -0.087809
C126  C     C_R   0.000000 0.500000 0.934261 -0.087810
C127  C     C_R   0.000000 0.500000 0.565739 -0.087809
C128  C     C_1   0.328248 0.828248 0.250000 -0.038754
C129  C     C_R   0.000000 0.500000 0.434261 -0.087810
C130  C     C_R   0.500000 1.000000 0.565739 -0.087809
C131  C     C_R   0.500000 0.000000 0.434261 -0.087810
C132  C     C_R   0.499758 0.047133 0.082250 -0.094160
C133  C     C_R   0.500147 0.952866 0.917750 -0.094157
C134  C     C_R   0.952866 0.499991 0.082250 -0.094158
C135  C     C_R   0.047134 0.500085 0.917750 -0.094158
C136  C     C_R   0.500242 0.952866 0.082250 -0.094158
C137  C     C_R   0.499853 0.047134 0.917750 -0.094157
C138  C     C_R   0.047134 0.500009 0.082250 -0.094160
C139  C     C_1   0.671752 0.171752 0.750000 -0.038736
C140  C     C_R   0.952866 0.499915 0.917750 -0.094157
C141  C     C_R   0.999849 0.547134 0.582250 -0.094157
C142  C     C_R   0.000245 0.452866 0.417750 -0.094160
C143  C     C_R   0.452866 0.000230 0.582250 -0.094158
C144  C     C_R   0.547133 0.999663 0.417750 -0.094158
C145  C     C_R   0.000151 0.452866 0.582250 -0.094157
C146  C     C_R   0.999755 0.547133 0.417750 -0.094158
C147  C     C_R   0.547134 0.999770 0.582250 -0.094158
C148  C     C_R   0.452867 0.000336 0.417750 -0.094160
C149  C     C_R   0.500000 0.000000 0.131235 0.039930
C150  C     C_1   0.171752 0.671752 0.750000 -0.038712
C151  C     C_R   0.500000 0.000000 0.868765 0.039927
C152  C     C_R   1.000000 0.500000 0.131235 0.039927
C153  C     C_R   0.000000 0.500000 0.868765 0.039928
C154  C     C_R   0.000000 0.500000 0.631235 0.039928
C155  C     C_R   0.000000 0.500000 0.368765 0.039930
C156  C     C_R   0.500000 1.000000 0.631235 0.039929
C157  C     C_R   0.500000 1.000000 0.368765 0.039933
C158  C     C_R   0.000000 0.500000 0.468522 0.358137
C159  C     C_R   1.000000 0.500000 0.531478 0.358137
C160  C     C_R   0.500000 0.000000 0.468522 0.358137
F1    F     F_    0.499503 0.094019 0.129377 -0.590538
F2    F     F_    0.000504 0.405981 0.370623 -0.590538
F3    F     F_    0.405981 0.000468 0.629377 -0.590532
F4    F     F_    0.594017 0.999308 0.370623 -0.590535
F5    F     F_    0.000307 0.405980 0.629377 -0.590531
F6    F     F_    0.999496 0.594019 0.370623 -0.590534
F7    F     F_    0.594019 0.999532 0.629377 -0.590531
F8    F     F_    0.405983 0.000692 0.370623 -0.590538
F9    F     F_    0.500299 0.905980 0.870623 -0.590531
F10   F     F_    0.905979 0.499982 0.129377 -0.590532
F11   F     F_    0.094020 0.500178 0.870623 -0.590532
F12   F     F_    0.500497 0.905981 0.129377 -0.590534
F13   F     F_    0.499701 0.094020 0.870623 -0.590531
F14   F     F_    0.094020 0.500018 0.129377 -0.590536
F15   F     F_    0.905980 0.499822 0.870623 -0.590531
F16   F     F_    0.999693 0.594020 0.629377 -0.590531
H1    H     H_    0.499566 0.084141 0.070182 0.185364
H2    H     H_    0.000440 0.415859 0.429818 0.185364
H3    H     H_    0.415858 0.000410 0.570182 0.185364
H4    H     H_    0.584140 0.999395 0.429818 0.185365
H5    H     H_    0.000269 0.415858 0.570182 0.185364
H6    H     H_    0.999560 0.584141 0.429818 0.185365
H7    H     H_    0.584142 0.999590 0.570182 0.185365
H8    H     H_    0.415860 0.000605 0.429818 0.185363
H9    H     H_    0.243293 0.175350 0.286411 0.130036
H10   H     H_    0.756899 0.824842 0.713742 0.130002
H11   H     H_    0.824871 0.243072 0.286235 0.129943
H12   H     H_    0.500261 0.915858 0.929818 0.185365
H13   H     H_    0.175026 0.757030 0.713847 0.129941
H14   H     H_    0.756894 0.824837 0.286262 0.130017
H15   H     H_    0.243102 0.175159 0.713741 0.130002
H16   H     H_    0.175128 0.756928 0.286235 0.129941
H17   H     H_    0.824973 0.242970 0.713847 0.129941
H18   H     H_    0.242969 0.824973 0.713847 0.129935
H19   H     H_    0.756928 0.175129 0.286235 0.129935
H20   H     H_    0.824842 0.756899 0.713742 0.129996
H21   H     H_    0.175350 0.243294 0.286411 0.130029
H22   H     H_    0.757030 0.175026 0.713847 0.129935
H23   H     H_    0.915857 0.499983 0.070181 0.185365
H24   H     H_    0.243071 0.824871 0.286235 0.129936
H25   H     H_    0.175159 0.243102 0.713741 0.129996
H26   H     H_    0.824837 0.756893 0.286262 0.130011
H27   H     H_    0.743101 0.675158 0.786258 0.129968
H28   H     H_    0.256706 0.324650 0.213589 0.129999
H29   H     H_    0.324974 0.742970 0.786153 0.129949
H30   H     H_    0.675129 0.256928 0.213765 0.129951
H31   H     H_    0.256898 0.324841 0.786259 0.129968
H32   H     H_    0.743106 0.675163 0.213737 0.129981
H33   H     H_    0.675026 0.257030 0.786153 0.129949
H34   H     H_    0.084142 0.500155 0.929818 0.185365
H35   H     H_    0.324871 0.743072 0.213765 0.129950
H36   H     H_    0.743072 0.324871 0.213765 0.129971
H37   H     H_    0.257030 0.675027 0.786153 0.129969
H38   H     H_    0.324650 0.256706 0.213589 0.130021
H39   H     H_    0.675158 0.743101 0.786258 0.129988
H40   H     H_    0.256928 0.675129 0.213765 0.129973
H41   H     H_    0.742970 0.324973 0.786153 0.129969
H42   H     H_    0.675163 0.743106 0.213738 0.130002
H43   H     H_    0.324841 0.256898 0.786259 0.129988
H44   H     H_    0.500434 0.915859 0.070182 0.185365
H45   H     H_    0.499738 0.084142 0.929818 0.185365
H46   H     H_    0.084143 0.500017 0.070182 0.185364
H47   H     H_    0.915857 0.499845 0.929818 0.185365
H48   H     H_    0.999731 0.584142 0.570182 0.185365
N1    N     N_R   0.500227 0.954489 0.015415 -0.210067
N2    N     N_R   0.999767 0.545511 0.484585 -0.210067
N3    N     N_R   0.545510 0.999688 0.515415 -0.210067
N4    N     N_R   0.454490 0.000312 0.484585 -0.210068
N5    N     N_R   0.999768 0.545511 0.515415 -0.210067
N6    N     N_R   0.000233 0.454489 0.484585 -0.210068
N7    N     N_R   0.454490 0.000312 0.515415 -0.210068
N8    N     N_R   0.545510 0.999688 0.484585 -0.210067
N9    N     N_R   0.499773 0.045511 0.984585 -0.210068
N10   N     N_R   0.045511 0.500005 0.015415 -0.210068
N11   N     N_R   0.954489 0.499995 0.984585 -0.210067
N12   N     N_R   0.499773 0.045511 0.015415 -0.210069
N13   N     N_R   0.500227 0.954489 0.984585 -0.210067
N14   N     N_R   0.954489 0.499995 0.015415 -0.210067
N15   N     N_R   0.045511 0.500005 0.984585 -0.210068
N16   N     N_R   0.000232 0.454489 0.515415 -0.210068
O1    O     O_3   0.500000 0.000000 0.250000 -0.478610
O2    O     O_R   0.457240 0.000000 0.680670 -0.478108
O3    O     O_R   0.000000 0.542760 0.319330 -0.478108
O4    O     O_R   0.000000 0.457240 0.680670 -0.478107
O5    O     O_R   0.957240 0.500000 0.819330 -0.478106
O6    O     O_R   0.042760 0.500000 0.180670 -0.478108
O7    O     O_R   0.500000 0.957240 0.819330 -0.478106
O8    O     O_R   0.500000 0.042760 0.180670 -0.478109
O9    O     O_R   0.042760 0.500000 0.819330 -0.478107
O10   O     O_R   0.957240 0.500000 0.180670 -0.478107
O11   O     O_R   0.500000 0.042760 0.819330 -0.478107
O12   O     O_3   0.500000 1.000000 0.750000 -0.478609
O13   O     O_R   0.500000 0.957240 0.180670 -0.478108
O14   O     O_R   0.602780 0.060140 0.268190 -0.526536
O15   O     O_R   0.397220 0.939860 0.731810 -0.526502
O16   O     O_R   0.939860 0.602780 0.268190 -0.526334
O17   O     O_R   0.060140 0.397220 0.731810 -0.526366
O18   O     O_R   0.397220 0.939860 0.268190 -0.526533
O19   O     O_R   0.602780 0.060140 0.731810 -0.526501
O20   O     O_R   0.060140 0.397220 0.268190 -0.526334
O21   O     O_R   0.939860 0.602780 0.731810 -0.526366
O22   O     O_R   0.602780 0.939860 0.731810 -0.526351
O23   O     O_3   0.000000 0.500000 0.250000 -0.478610
O24   O     O_R   0.397220 0.060140 0.268190 -0.526316
O25   O     O_R   0.939860 0.397220 0.731810 -0.526487
O26   O     O_R   0.060140 0.602780 0.268190 -0.526518
O27   O     O_R   0.397220 0.060140 0.731810 -0.526351
O28   O     O_R   0.602780 0.939860 0.268190 -0.526316
O29   O     O_R   0.060140 0.602780 0.731810 -0.526487
O30   O     O_R   0.939860 0.397220 0.268190 -0.526515
O31   O     O_R   0.102780 0.560140 0.768190 -0.526385
O32   O     O_R   0.897220 0.439860 0.231810 -0.526408
O33   O     O_R   0.439860 0.102780 0.768190 -0.526387
O34   O     O_3   0.000000 0.500000 0.750000 -0.478609
O35   O     O_R   0.560140 0.897220 0.231810 -0.526357
O36   O     O_R   0.897220 0.439860 0.768190 -0.526385
O37   O     O_R   0.102780 0.560140 0.231810 -0.526405
O38   O     O_R   0.560140 0.897220 0.768190 -0.526387
O39   O     O_R   0.439860 0.102780 0.231810 -0.526358
O40   O     O_R   0.102780 0.439860 0.231810 -0.526444
O41   O     O_R   0.897220 0.560140 0.768190 -0.526468
O42   O     O_R   0.439860 0.897220 0.231810 -0.526494
O43   O     O_R   0.560140 0.102780 0.768190 -0.526465
O44   O     O_R   0.897220 0.560140 0.231810 -0.526444
O45   O     O_R   0.457240 0.000000 0.319330 -0.478110
O46   O     O_R   0.102780 0.439860 0.768190 -0.526468
O47   O     O_R   0.560140 0.102780 0.231810 -0.526491
O48   O     O_R   0.439860 0.897220 0.768190 -0.526465
O49   O     O_R   0.542760 0.000000 0.680670 -0.478107
O50   O     O_R   0.000000 0.457240 0.319330 -0.478109
O51   O     O_R   0.000000 0.542760 0.680670 -0.478107
O52   O     O_R   0.542760 0.000000 0.319330 -0.478109
Zn1   Zn    Zn3+2 0.500000 0.061050 0.224040 0.998182
Zn2   Zn    Zn3+2 0.000000 0.438950 0.275960 0.998182
Zn3   Zn    Zn3+2 0.438950 0.000000 0.724040 0.998181
Zn4   Zn    Zn3+2 0.561050 0.000000 0.275960 0.998182
Zn5   Zn    Zn3+2 0.000000 0.438950 0.724040 0.998181
Zn6   Zn    Zn3+2 0.000000 0.561050 0.275960 0.998182
Zn7   Zn    Zn3+2 0.561050 0.000000 0.724040 0.998181
Zn8   Zn    Zn3+2 0.438950 0.000000 0.275960 0.998181
Zn9   Zn    Zn3+2 0.500000 0.938950 0.775960 0.998181
Zn10  Zn    Zn3+2 0.938950 0.500000 0.224040 0.998182
Zn11  Zn    Zn3+2 0.061050 0.500000 0.775960 0.998181
Zn12  Zn    Zn3+2 0.500000 0.938950 0.224040 0.998182
Zn13  Zn    Zn3+2 0.500000 0.061050 0.775960 0.998181
Zn14  Zn    Zn3+2 0.061050 0.500000 0.224040 0.998182
Zn15  Zn    Zn3+2 0.938950 0.500000 0.775960 0.998181
Zn16  Zn    Zn3+2 0.000000 0.561050 0.724040 0.998181

loop_
_geom_bond_atom_site_label_1
_geom_bond_atom_site_label_2
_ccdc_geom_bond_type
C19   C122  S    
C53   H38   S    
C46   C112  T    
O26   Zn6   S    
N1    N13   A    
O31   Zn11  S    
C104  C157  A    
C23   C118  S    
C15   C151  S    
O34   Zn16  S    
C124  C133  A    
C99   C143  A    
C91   C153  A    
C59   C66   A    
C17   O47   A    
C18   O48   A    
C29   O37   A    
C12   O5    A    
C11   C154  S    
C9    C156  S    
C4    N13   A    
O21   Zn16  S    
C16   C149  S    
C158  N2    A    
C36   C71   A    
O42   Zn12  S    
C61   H30   S    
C29   O26   A    
C32   O29   A    
C41   H24   S    
C8    C157  S    
C41   C49   A    
O37   Zn14  S    
C98   F2    S    
C16   O8    A    
C65   C77   A    
C32   C109  S    
O46   Zn11  S    
C42   H22   S    
C90   C152  A    
C100  C144  A    
O32   Zn10  S    
C71   C73   S    
C129  C142  A    
C52   H39   S    
C12   O9    A    
C40   C76   A    
C53   C82   A    
C16   O13   A    
C56   C86   A    
C99   C156  A    
C68   C110  T    
C97   C154  A    
C50   H15   S    
C72   C84   S    
C51   H14   S    
C127  C145  A    
C14   O10   A    
C60   C65   A    
O34   Zn5   S    
C51   C87   A    
C26   O38   A    
C54   C79   A    
C45   C81   A    
C10   O3    A    
C125  C138  A    
C1    C70   S    
C91   F11   S    
C37   C44   A    
C89   F9    S    
C38   C43   A    
O10   Zn10  S    
C55   C80   A    
C57   C111  T    
C92   F12   S    
O3    Zn6   S    
C90   C134  A    
C27   O24   A    
C93   F13   S    
O23   Zn2   S    
C5    N1    A    
O8    Zn1   S    
C35   C113  T    
C58   C67   A    
C135  H34   S    
C30   O33   A    
C39   H26   S    
O51   Zn16  S    
C32   O31   A    
C30   O27   A    
C94   C152  A    
N4    N7    A    
C39   C51   A    
C103  F7    S    
C96   F15   S    
C13   C81   S    
C48   H17   S    
O48   Zn9   S    
C78   C139  S    
O1    Zn4   S    
O41   Zn15  S    
C103  C147  A    
O2    Zn3   S    
C10   O50   A    
O9    Zn11  S    
O19   Zn7   S    
O12   Zn13  S    
C73   C116  T    
C159  N5    A    
C138  H46   S    
C145  H5    S    
C4    C124  S    
C69   C76   A    
C127  C141  A    
O23   Zn6   S    
C2    C108  T    
C100  C157  A    
C31   C110  S    
C144  H4    S    
C159  N16   A    
C160  N8    A    
C143  H3    S    
C133  H12   S    
C20   O17   A    
C7    N10   A    
C102  F6    S    
C98   C142  A    
C33   C108  S    
C129  C158  S    
O1    Zn8   S    
C134  H23   S    
C17   O14   A    
C89   C133  A    
O49   Zn7   S    
O52   Zn4   S    
C25   C116  S    
C3    N7    A    
O35   Zn12  S    
O39   Zn1   S    
C28   O25   A    
O47   Zn1   S    
O28   Zn4   S    
C36   H20   S    
O16   Zn6   S    
O30   Zn2   S    
C103  C156  A    
O11   Zn13  S    
C106  C122  T    
C42   C48   A    
O27   Zn3   S    
C99   F3    S    
O20   Zn2   S    
C23   O20   A    
O45   Zn8   S    
N11   N14   A    
C67   C75   A    
C92   C149  A    
C17   C115  S    
C38   C74   A    
C130  C147  A    
O50   Zn2   S    
O24   Zn8   S    
C10   C155  S    
C96   C140  A    
O12   Zn9   S    
C6    N15   A    
C48   C83   A    
C109  C150  T    
C60   H40   S    
C53   C63   A    
C142  H2    S    
C101  C154  A    
C55   C61   A    
C52   C81   A    
N9    N12   A    
C28   C113  S    
C44   H11   S    
O38   Zn9   S    
C56   C69   A    
C14   C152  S    
C68   C87   S    
C67   H32   S    
O5    Zn15  S    
C125  C134  A    
C33   O30   A    
O12   Zn3   S    
C104  C148  A    
C31   O35   A    
O34   Zn11  S    
C49   H16   S    
C36   C45   A    
C59   C83   A    
O1    Zn1   S    
C123  C132  A    
C95   C114  T    
C137  H45   S    
C88   C149  A    
C64   C71   A    
C55   H36   S    
C5    N12   A    
C47   H9    S    
C34   C70   A    
C46   C85   S    
C11   O51   A    
C18   C114  S    
C92   C136  A    
O12   Zn7   S    
O34   Zn15  S    
C22   C119  S    
C66   C78   A    
C69   H31   S    
C146  H6    S    
O23   Zn10  S    
C44   C80   A    
C6    C126  S    
O15   Zn3   S    
C52   C64   A    
C35   C83   S    
C54   C62   A    
C38   H18   S    
C21   O42   A    
C25   O21   A    
C124  C137  A    
C96   C153  A    
C7    N14   A    
C101  C145  A    
C100  F4    S    
C7    C125  S    
C101  F5    S    
C97   C141  A    
C129  C146  A    
C79   C150  S    
C8    O45   A    
O6    Zn14  S    
C61   C72   A    
O17   Zn5   S    
C64   H27   S    
C15   O7    A    
C126  C135  A    
C33   O32   A    
C59   H41   S    
C94   C138  A    
C93   C151  A    
C3    N3    A    
C98   C155  A    
O23   Zn14  S    
C60   C85   A    
C120  C128  T    
C136  H44   S    
C18   O15   A    
C21   C120  S    
C30   C111  S    
O25   Zn5   S    
C76   C117  S    
C119  C139  T    
C40   C50   A    
C45   H10   S    
C160  N4    A    
C19   O16   A    
C89   C151  A    
C91   C135  A    
C40   H25   S    
C75   C106  S    
C37   C72   A    
C62   C74   A    
C34   C47   A    
O13   Zn12  S    
C56   H43   S    
C131  C144  A    
C54   H37   S    
C6    N11   A    
C3    C130  S    
C58   H42   S    
C4    N9    A    
C29   C112  S    
N6    N16   A    
C12   C153  S    
C13   C107  T    
C58   C87   A    
C158  N6    A    
C19   O44   A    
O44   Zn10  S    
O36   Zn15  S    
O14   Zn4   S    
C22   O43   A    
C41   C77   A    
C21   O18   A    
C28   O36   A    
C27   C105  S    
C43   C79   A    
C88   F1    S    
C57   C86   S    
C47   C82   A    
C117  C121  T    
C24   C82   S    
O18   Zn8   S    
C62   H29   S    
C132  H1    S    
N10   N15   A    
N3    N8    A    
C97   F16   S    
C11   O4    A    
C9    O2    A    
O4    Zn5   S    
O40   Zn14  S    
C63   H28   S    
C49   C85   A    
C93   C137  A    
O33   Zn13  S    
C27   O39   A    
C104  F8    S    
O29   Zn16  S    
C63   C70   A    
C148  H8    S    
C90   F10   S    
C131  C148  A    
C20   O46   A    
C66   H33   S    
C130  C143  A    
C20   C121  S    
C77   C128  S    
C94   F14   S    
C42   C78   A    
C84   C115  T    
C39   C75   A    
O22   Zn7   S    
O1    Zn12  S    
C88   C132  A    
C127  C159  S    
C8    O52   A    
C147  H7    S    
C31   O28   A    
C74   C95   S    
C126  C140  A    
C26   C107  S    
C23   O40   A    
C140  H47   S    
C26   O22   A    
C22   O19   A    
N2    N5    A    
C5    C123  S    
C123  C136  A    
C102  C146  A    
C9    O49   A    
C34   H21   S    
C15   O11   A    
C1    C118  T    
C37   H19   S    
C131  C160  S    
C65   H35   S    
C2    C80   S    
C50   C86   A    
C141  H48   S    
C43   H13   S    
C24   C105  T    
C25   O41   A    
C102  C155  A    
O7    Zn9   S    
O43   Zn13  S    
C14   O6    A    
