data_mof_unit_21627.cif
_audit_creation_date              2012-12-10T17:36:49-0500
_audit_creation_method            fapswitch 2.2
_symmetry_space_group_name_H-M    P1
_symmetry_Int_Tables_number       1
_space_group_crystal_system       triclinic
_cell_length_a                    10.67046
_cell_length_b                    12.406026
_cell_length_c                    13.405747
_cell_angle_alpha                 117.299595
_cell_angle_beta                  77.37168
_cell_angle_gamma                 101.98867
_cell_volume                      1526.96090475

loop_
_atom_site_label
_atom_site_type_symbol
_atom_type_description
_atom_site_fract_x
_atom_site_fract_y
_atom_site_fract_z
_atom_type_partial_charge
C1    C     C_R   0.503585 0.854663 0.287791 0.832832
C2    C     C_R   0.485874 0.560483 0.017702 0.065495
C3    C     C_R   0.452848 0.643175 0.131511 -0.045042
C4    C     C_R   0.740121 0.000833 0.501231 0.899995
C5    C     C_R   0.462710 0.432495 0.985598 -0.025796
C6    C     C_R   0.380623 0.387154 0.061839 -0.074461
C7    C     C_R   0.335598 0.472922 0.172394 0.425789
C8    C     C_R   0.372073 0.597227 0.204820 -0.166401
C9    C     C_R   0.517144 0.347940 0.878336 0.309338
C10   C     C_R   0.382741 0.181458 0.908863 -0.186937
C11   C     C_R   0.491962 0.770881 0.166558 -0.212004
C12   C     C_3   0.027368 0.884577 0.448499 0.285058
C13   C     C_R   0.672878 0.331831 0.306412 0.252260
C14   C     C_R   0.327170 0.761159 0.648314 0.484622
C15   C     C_R   0.297959 0.672005 0.688994 0.313457
C16   C     C_R   0.484392 0.145232 0.713092 0.903850
C17   C     C_R   0.365649 0.570442 0.638460 0.276762
C18   C     C_R   0.454312 0.550547 0.537044 -0.052049
C19   C     C_R   0.486300 0.649737 0.503685 0.176929
C20   C     C_R   0.517810 0.441098 0.469657 0.018130
C21   C     C_R   0.608649 0.435399 0.373225 -0.018151
C22   C     C_R   0.639767 0.535235 0.347163 -0.084451
C23   C     C_3   0.972558 0.945484 0.391796 -0.272260
C24   C     C_R   0.582592 0.639937 0.412248 -0.069551
C25   C     C_R   0.492515 0.333560 0.488272 0.064730
C26   C     C_R   0.673303 0.251101 0.353040 0.485566
C27   C     C_R   0.260441 0.998733 0.497925 0.913083
C28   C     C_3   0.973730 0.116768 0.550227 -0.163695
C29   C     C_3   0.070505 0.060742 0.441413 0.411840
C30   C     C_3   0.124527 0.999070 0.496736 -0.284502
C31   C     C_3   0.028617 0.053908 0.604829 0.235707
C32   C     C_3   0.931395 0.939157 0.556780 0.311401
C33   C     C_3   0.877114 0.000596 0.501432 -0.266348
C34   C     C_R   0.346495 0.258435 0.022007 0.468296
C35   C     C_R   0.463086 0.225919 0.835323 -0.172015
C36   C     C_R   0.525824 0.815369 0.082737 0.316738
C37   C     C_R   0.546502 0.732753 0.968156 0.366200
C38   C     C_R   0.529109 0.607826 0.937058 -0.153924
Cl1   Cl    Cl    0.163018 0.141815 0.363587 -0.383298
Cl2   Cl    Cl    0.256561 0.182291 0.103244 -0.321690
Cl3   Cl    Cl    0.672662 0.383007 0.811127 -0.521743
Cl4   Cl    Cl    0.528218 0.971903 0.117296 -0.423964
Cl5   Cl    Cl    0.233075 0.882955 0.715472 -0.444460
Cl6   Cl    Cl    0.345080 0.484582 0.717331 -0.537358
Cl7   Cl    Cl    0.177052 0.690624 0.808140 -0.322518
Cl8   Cl    Cl    0.069770 0.131358 0.745079 -0.473971
Cl9   Cl    Cl    0.062266 0.730412 0.379971 -0.465169
Cl10  Cl    Cl    0.229889 0.437314 0.277404 -0.385183
Cu1   Cu    Cu3+1 0.529830 0.098270 0.475420 1.118753
Cu2   Cu    Cu3+1 0.470170 0.901730 0.524580 1.062744
H1    H     H_    0.540359 0.548070 0.847874 0.250987
H2    H     H_    0.876797 0.008865 0.212182 0.388848
H3    H     H_    0.682144 0.310551 0.023702 0.395540
H4    H     H_    0.949468 0.920577 0.774517 0.411104
H5    H     H_    0.326104 0.657843 0.286208 0.227185
H6    H     H_    0.714909 0.536843 0.279003 0.216478
H7    H     H_    0.406633 0.314552 0.538748 0.223701
H8    H     H_    0.950946 0.212465 0.593920 0.253536
H9    H     H_    0.621649 0.714120 0.390932 0.194457
H10   H     H_    0.948539 0.900161 0.304049 0.210493
H11   H     H_    0.348341 0.085162 0.878738 0.254695
H12   H     H_    0.716212 0.964725 0.920102 0.419618
N1    N     N_R   0.575030 0.246270 0.438190 -0.268666
N2    N     N_R   0.425760 0.754330 0.561190 -0.265634
O1    O     O_R   0.537510 0.972500 0.318130 -0.494801
O2    O     O_2   0.504627 0.848756 0.855038 -0.250204
O3    O     O_3   0.739155 0.883623 0.901264 -0.426531
O4    O     O_2   0.923199 0.229452 0.247844 -0.136750
O5    O     O_2   0.872828 0.237203 0.434523 -0.235946
O6    O     O_3   0.796119 0.035427 0.264213 -0.517041
O7    O     O_2   0.869291 0.375165 0.159218 -0.186433
O8    O     O_2   0.757914 0.165821 0.095664 -0.200981
O9    O     O_3   0.640190 0.332464 0.102969 -0.550314
O10   O     O_2   0.733424 0.929859 0.714245 -0.252585
O11   O     O_2   0.785299 0.734860 0.555562 -0.202038
O12   O     O_R   0.487140 0.806530 0.359650 -0.649193
O13   O     O_3   0.937217 0.840219 0.708716 -0.359679
O14   O     O_R   0.708330 0.082950 0.479220 -0.498609
O15   O     O_R   0.657960 0.916980 0.520740 -0.574863
O16   O     O_R   0.512860 0.193470 0.640350 -0.546509
O17   O     O_R   0.462490 0.027500 0.681870 -0.544224
O18   O     O_R   0.342040 0.083020 0.479260 -0.576176
O19   O     O_R   0.291670 0.917050 0.520780 -0.521969
O20   O     O_2   0.638493 0.681251 0.749040 -0.194726
S1    S     S_3+6 0.605115 0.784966 0.862685 0.135577
S2    S     S_3+6 0.820742 0.189140 0.324592 0.147378
S3    S     S_3+6 0.740493 0.298683 0.162557 0.100445
S4    S     S_3+6 0.841122 0.858648 0.635217 0.151196

loop_
_geom_bond_atom_site_label_1
_geom_bond_atom_site_label_2
_ccdc_geom_bond_type
Cu1   N1    S    
Cu2   N2    S    
C36   Cl4   S    
C1    C11   S    
Cu2   O15   S    
O2    S1    D    
C7    C8    A    
C4    O14   A    
C12   C23   S    
C37   C38   A    
Cu1   O1    S    
H12   O3    S    
C34   Cl2   S    
C23   C29   S    
C37   S1    S    
C28   C29   S    
C16   C35   S    
C30   C31   S    
C20   C25   A    
C32   S4    S    
O4    S2    D    
Cu1   O14   S    
C18   C19   A    
C25   N1    A    
O9    S3    S    
O13   S4    S    
C23   C33   S    
C31   Cl8   S    
C1    O1    A    
C10   C35   A    
H4    O13   S    
C21   C22   A    
C12   C32   S    
C27   C30   S    
C13   S3    S    
C25   H7    S    
C12   Cl9   S    
C8    H5    S    
Cu2   O19   S    
C28   C31   S    
C23   H10   S    
O3    S1    S    
C3    C11   A    
O20   S1    D    
C4    O15   A    
C3    C8    A    
C22   H6    S    
C38   H1    S    
C6    C34   A    
C16   O16   A    
C11   C36   A    
Cu1   O18   S    
C26   N1    A    
C5    C9    A    
C29   C30   S    
Cu2   O12   S    
C2    C38   A    
C31   C32   S    
C19   N2    A    
C26   S2    S    
C14   N2    A    
C29   Cl1   S    
C17   C18   A    
C13   C21   A    
C10   C34   A    
O7    S3    D    
C28   C33   S    
C22   C24   A    
C13   C26   A    
C10   H11   S    
C15   Cl7   S    
O6    S2    S    
O8    S3    D    
C15   C17   A    
C4    C33   S    
C36   C37   A    
C12   C30   S    
C1    O12   A    
C27   O18   A    
H3    O9    S    
C6    C7    A    
C28   H8    S    
C9    Cl3   S    
Cu1   O16   S    
C7    Cl10  S    
C27   O19   A    
C2    C3    A    
C17   Cl6   S    
C32   C33   S    
C5    C6    A    
C24   H9    S    
C16   O17   A    
C19   C24   A    
C18   C20   A    
H2    O6    S    
C2    C5    A    
O11   S4    D    
C20   C21   A    
Cu1   Cu2   S    
C9    C35   A    
C14   C15   A    
O10   S4    D    
O5    S2    D    
Cu2   O17   S    
C14   Cl5   S    
