data_mof_unit_6767.cif
_audit_creation_date              2012-12-10T17:24:25-0500
_audit_creation_method            fapswitch 2.2
_symmetry_space_group_name_H-M    P1
_symmetry_Int_Tables_number       1
_space_group_crystal_system       triclinic
_cell_length_a                    31.543596
_cell_length_b                    18.311133
_cell_length_c                    25.780953
_cell_angle_alpha                 90.194681
_cell_angle_beta                  144.589451
_cell_angle_gamma                 89.736268
_cell_volume                      8628.24782048

loop_
_atom_site_label
_atom_site_type_symbol
_atom_type_description
_atom_site_fract_x
_atom_site_fract_y
_atom_site_fract_z
_atom_type_partial_charge
C1    C     C_R   0.860273 0.860164 0.110169 0.481342
C2    C     C_R   0.360975 0.087824 0.651384 -0.116370
C3    C     C_R   0.811727 0.256493 0.028482 0.016105
C4    C     C_R   0.242296 0.312216 0.024863 0.014249
C5    C     C_R   0.757768 0.687713 0.975274 0.014226
C6    C     C_R   0.688277 0.243507 0.971549 0.016112
C7    C     C_R   0.311826 0.756595 0.028670 0.016145
C8    C     C_R   0.195958 0.195887 0.946092 0.015396
C9    C     C_R   0.804046 0.804110 0.053905 0.015358
C10   C     C_R   0.804124 0.195910 0.054230 0.016782
C11   C     C_R   0.195877 0.804090 0.945779 0.016758
C12   C     C_R   0.695951 0.695891 0.946089 0.015482
C13   C     C_R   0.336170 0.889813 0.672293 -0.114865
C14   C     C_R   0.304046 0.304113 0.053908 0.015472
C15   C     C_R   0.304124 0.695912 0.054218 0.016619
C16   C     C_R   0.695872 0.304083 0.945782 0.016622
C17   C     C_R   0.936145 0.118362 0.991776 -0.115993
C18   C     C_R   0.063856 0.881638 0.008222 -0.115980
C19   C     C_R   0.436858 0.618885 0.992438 -0.116285
C20   C     C_R   0.563117 0.381203 0.007609 -0.117837
C21   C     C_R   0.897490 0.172940 0.927708 -0.127442
C22   C     C_R   0.102547 0.827081 0.072322 -0.127392
C23   C     C_R   0.398473 0.673625 0.928608 -0.127334
C24   C     C_R   0.663599 0.109770 0.327944 -0.119993
C25   C     C_R   0.600094 0.325625 0.070202 -0.124577
C26   C     C_R   0.888989 0.170153 0.865508 0.062411
C27   C     C_R   0.111090 0.829896 0.134560 0.062391
C28   C     C_R   0.389869 0.670757 0.866313 0.062469
C29   C     C_R   0.607134 0.327568 0.131033 0.062418
C30   C     C_R   0.923849 0.114300 0.872214 -0.104123
C31   C     C_R   0.076214 0.885734 0.127841 -0.104075
C32   C     C_R   0.424464 0.614721 0.872774 -0.103993
C33   C     C_R   0.573147 0.384185 0.125038 -0.107059
C34   C     C_R   0.962708 0.057418 0.936494 -0.017315
C35   C     C_R   0.139040 0.412177 0.348602 -0.116308
C36   C     C_R   0.037314 0.942593 0.063524 -0.017297
C37   C     C_R   0.463084 0.557710 0.936843 -0.017270
C38   C     C_R   0.536134 0.442058 0.062427 -0.015876
C39   C     C_R   0.966485 0.058235 0.994516 0.013127
C40   C     C_R   0.033520 0.941766 0.005487 0.013112
C41   C     C_R   0.466845 0.558571 0.994850 0.012680
C42   C     C_R   0.533003 0.441508 0.005031 0.013129
C43   C     C_R   0.998118 0.000038 0.944570 0.024753
C44   C     C_R   0.001886 0.999962 0.055433 0.024764
C45   C     C_R   0.498210 0.500119 0.944668 0.024893
C46   C     C_R   0.861119 0.587695 0.651096 -0.116362
C47   C     C_R   0.501652 0.500002 0.055212 0.025339
C48   C     C_R   0.000403 0.998627 0.109388 0.482043
C49   C     C_R   0.999597 0.001370 0.890612 0.482104
C50   C     C_R   0.500357 0.498827 0.109349 0.482586
C51   C     C_R   0.499618 0.501352 0.890636 0.482157
C52   C     C_R   0.000021 0.000033 0.391769 0.503880
C53   C     C_R   0.999972 0.999968 0.608224 0.503205
C54   C     C_R   0.500026 0.500148 0.391774 0.504039
C55   C     C_R   0.499973 0.499852 0.608225 0.503939
C56   C     C_3   0.000061 0.930734 0.482832 -0.101326
C57   C     C_R   0.836263 0.389966 0.672228 -0.115571
C58   C     C_3   0.999918 0.069268 0.517148 -0.102596
C59   C     C_3   0.939957 0.965590 0.457344 -0.124500
C60   C     C_3   0.060022 0.034412 0.542636 -0.122604
C61   C     C_3   0.560019 0.465304 0.542372 -0.120848
C62   C     C_3   0.439980 0.534696 0.457627 -0.120806
C63   C     C_3   0.499925 0.430610 0.516634 -0.102390
C64   C     C_3   0.500073 0.569389 0.483365 -0.102339
C65   C     C_3   0.060078 0.965322 0.577148 -0.120881
C66   C     C_3   0.939901 0.034681 0.422831 -0.123412
C67   C     C_3   0.560072 0.534195 0.577405 -0.123411
C68   C     C_R   0.163902 0.610252 0.327682 -0.115399
C69   C     C_3   0.439926 0.465804 0.422594 -0.123456
C70   C     C_3   0.999974 0.000106 0.550847 0.059787
C71   C     C_3   0.000006 0.999896 0.449134 0.060762
C72   C     C_3   0.499980 0.499553 0.550850 0.059657
C73   C     C_3   0.500019 0.500446 0.449149 0.059614
C74   C     C_R   0.104641 0.286553 0.325837 -0.086622
C75   C     C_R   0.895450 0.713367 0.673983 -0.086607
C76   C     C_R   0.882076 0.274207 0.686866 -0.061949
C77   C     C_R   0.118067 0.725964 0.313099 -0.062739
C78   C     C_R   0.604534 0.786627 0.326039 -0.086833
C79   C     C_R   0.710777 0.895116 0.433839 -0.088769
C80   C     C_R   0.395360 0.213454 0.674164 -0.086761
C81   C     C_R   0.382002 0.774105 0.686867 -0.062731
C82   C     C_R   0.617649 0.225356 0.313395 -0.040070
C83   C     C_R   0.086134 0.358051 0.294672 -0.117269
C84   C     C_R   0.914014 0.641826 0.705037 -0.117326
C85   C     C_R   0.891498 0.337731 0.725377 -0.093350
C86   C     C_R   0.108679 0.662500 0.274549 -0.093493
C87   C     C_R   0.585942 0.858180 0.295024 -0.117745
C88   C     C_R   0.413875 0.141955 0.705322 -0.117236
C89   C     C_R   0.391416 0.837592 0.725412 -0.093413
C90   C     C_R   0.289082 0.104989 0.566393 -0.088044
C91   C     C_R   0.608104 0.161686 0.274932 -0.080603
C92   C     C_2   0.158550 0.776173 0.208543 0.565597
C93   C     C_2   0.841604 0.223934 0.791588 0.565627
C94   C     C_2   0.651043 0.271080 0.201656 0.566691
C95   C     C_2   0.342511 0.724556 0.792433 0.565425
C96   C     C_R   0.271956 0.879776 0.580018 -0.101558
C97   C     C_R   0.139733 0.139830 0.889831 0.481257
C98   C     C_R   0.728062 0.120117 0.420110 -0.088710
C99   C     C_R   0.210929 0.395011 0.433598 -0.087662
C100  C     C_R   0.789181 0.604900 0.566210 -0.087781
C101  C     C_R   0.772040 0.379895 0.579960 -0.101766
C102  C     C_R   0.228081 0.620255 0.419968 -0.102183
C103  C     C_R   0.730889 0.822916 0.467823 0.012014
C104  C     C_R   0.269048 0.177132 0.532293 0.011985
C105  C     C_R   0.261075 0.815695 0.539274 0.004208
C106  C     C_R   0.738953 0.184254 0.460803 0.020687
C107  C     C_R   0.230955 0.322870 0.467704 0.012098
C108  C     C_R   0.139800 0.860264 0.889715 0.480485
C109  C     C_R   0.769097 0.677085 0.532198 0.011999
C110  C     C_R   0.761136 0.315762 0.539253 0.003923
C111  C     C_R   0.238946 0.684322 0.460714 0.004257
C112  C     C_R   0.176881 0.267973 0.413235 0.013811
C113  C     C_R   0.823164 0.731987 0.586669 0.013789
C114  C     C_R   0.816304 0.261669 0.593583 0.019091
C115  C     C_R   0.183793 0.738429 0.406408 0.019036
C116  C     C_R   0.676828 0.768008 0.413344 0.013708
C117  C     C_R   0.323120 0.232031 0.586765 0.013728
C118  C     C_R   0.316237 0.761598 0.593575 0.019075
C119  C     C_R   0.860198 0.139734 0.110286 0.480469
C120  C     C_R   0.683697 0.238241 0.406516 0.035293
C121  C     C_R   0.803731 0.804337 0.553874 0.009487
C122  C     C_R   0.196262 0.195667 0.446127 0.009619
C123  C     C_R   0.195818 0.804028 0.446048 0.026537
C124  C     C_R   0.804246 0.196009 0.553992 0.025718
C125  C     C_R   0.303738 0.304335 0.553873 0.009649
C126  C     C_R   0.696266 0.695658 0.446131 0.009458
C127  C     C_R   0.695811 0.303993 0.446056 0.022834
C128  C     C_R   0.304188 0.695977 0.553944 0.026592
C129  C     C_R   0.733528 0.874063 0.048711 -0.087461
C130  C     C_R   0.360270 0.360169 0.110170 0.481146
C131  C     C_R   0.266338 0.126093 0.950987 -0.087364
C132  C     C_R   0.126951 0.736079 0.943546 -0.099982
C133  C     C_R   0.872870 0.263743 0.056098 -0.099965
C134  C     C_R   0.233672 0.373906 0.049023 -0.088060
C135  C     C_R   0.766449 0.625957 0.951241 -0.088057
C136  C     C_R   0.627143 0.236263 0.943951 -0.100201
C137  C     C_R   0.373057 0.763934 0.056467 -0.099860
C138  C     C_R   0.672568 0.881091 0.020036 -0.114720
C139  C     C_R   0.327222 0.119152 0.979503 -0.114628
C140  C     C_R   0.120230 0.675857 0.969387 -0.125289
C141  C     C_R   0.639726 0.639835 0.889830 0.481148
C142  C     C_R   0.879507 0.323882 0.030086 -0.125262
C143  C     C_R   0.172765 0.380871 0.020459 -0.115094
C144  C     C_R   0.827409 0.618929 0.979916 -0.115064
C145  C     C_R   0.620539 0.176155 0.970028 -0.123865
C146  C     C_R   0.379773 0.824153 0.030617 -0.125285
C147  C     C_R   0.119407 0.326950 0.967508 -0.115185
C148  C     C_R   0.880764 0.672852 0.032854 -0.115168
C149  C     C_R   0.674229 0.122206 0.023678 -0.106373
C150  C     C_R   0.326100 0.878119 0.977001 -0.106691
C151  C     C_R   0.619228 0.827153 0.967129 -0.115360
C152  C     C_R   0.639795 0.360258 0.889715 0.480724
C153  C     C_R   0.380553 0.173100 0.032399 -0.115846
C154  C     C_R   0.173886 0.621875 0.022970 -0.105792
C155  C     C_R   0.825842 0.377855 0.976487 -0.105798
C156  C     C_R   0.126419 0.265949 0.942374 -0.087617
C157  C     C_R   0.873701 0.733915 0.057874 -0.087707
C158  C     C_R   0.734883 0.128164 0.051682 -0.086375
C159  C     C_R   0.265342 0.872058 0.948784 -0.085707
C160  C     C_R   0.626299 0.766083 0.942126 -0.087722
C161  C     C_R   0.373551 0.234089 0.057556 -0.088195
C162  C     C_R   0.234641 0.627930 0.051179 -0.084820
C163  C     C_R   0.360201 0.639738 0.110284 0.480674
C164  C     C_R   0.765168 0.371880 0.948441 -0.084901
C165  C     C_R   0.187846 0.257590 0.970617 0.014333
C166  C     C_R   0.812219 0.742338 0.029515 0.014265
C167  C     C_R   0.742888 0.188843 0.026216 0.014557
C168  C     C_R   0.257221 0.811266 0.974016 0.014547
C169  C     C_R   0.687778 0.757663 0.970478 0.014266
C170  C     C_R   0.312148 0.242422 0.029363 0.014257
C171  C     C_R   0.242774 0.688733 0.025970 0.014344
C172  C     C_R   0.757126 0.311167 0.973835 0.014318
C173  C     C_R   0.140166 0.139558 0.390353 0.479325
C174  C     C_R   0.638820 0.912323 0.348986 -0.117618
C175  C     C_R   0.859828 0.860447 0.609638 0.479196
C176  C     C_R   0.860174 0.139713 0.610140 0.485982
C177  C     C_R   0.139860 0.860311 0.389912 0.486909
C178  C     C_R   0.640171 0.639551 0.390363 0.479686
C179  C     C_R   0.359834 0.360443 0.609647 0.479648
C180  C     C_R   0.360140 0.639688 0.610085 0.486569
C181  C     C_R   0.639843 0.360284 0.389879 0.484498
C182  C     C_R   0.742222 0.812294 0.024706 0.014089
C183  C     C_R   0.257709 0.187785 0.975139 0.014104
C184  C     C_R   0.188176 0.743410 0.971330 0.016108
H1    H     H_    0.109399 0.936829 0.641316 0.126564
H2    H     H_    0.416514 0.274578 0.098904 0.104311
H3    H     H_    0.275007 0.584602 0.092848 0.105989
H4    H     H_    0.724797 0.415203 0.906762 0.105986
H5    H     H_    0.941499 0.124087 0.038696 0.128369
H6    H     H_    0.058480 0.875902 0.961283 0.128394
H7    H     H_    0.442151 0.624530 0.039309 0.127767
H8    H     H_    0.558574 0.375904 0.961424 0.128456
H9    H     H_    0.872751 0.216492 0.925618 0.151215
H10   H     H_    0.127290 0.783533 0.074414 0.151233
H11   H     H_    0.373912 0.717301 0.926673 0.150821
H12   H     H_    0.890578 0.063174 0.358663 0.122003
H13   H     H_    0.624240 0.281664 0.071791 0.158737
H14   H     H_    0.919804 0.116234 0.826427 0.164611
H15   H     H_    0.080288 0.883811 0.173656 0.164603
H16   H     H_    0.420337 0.616559 0.826903 0.164026
H17   H     H_    0.576090 0.381940 0.169780 0.156378
H18   H     H_    0.375735 0.032395 0.675876 0.115189
H19   H     H_    0.623987 0.967795 0.324612 0.114942
H20   H     H_    0.656719 0.061318 0.297465 0.099988
H21   H     H_    0.343015 0.938223 0.702785 0.112998
H22   H     H_    0.875914 0.532235 0.675509 0.115523
H23   H     H_    0.609414 0.562240 0.641823 0.119007
H24   H     H_    0.124291 0.467604 0.324101 0.115223
H25   H     H_    0.157068 0.561846 0.297194 0.112657
H26   H     H_    0.843121 0.438417 0.702690 0.112557
H27   H     H_    0.061646 0.246329 0.280170 0.122700
H28   H     H_    0.938444 0.753587 0.719678 0.122912
H29   H     H_    0.926117 0.234568 0.731174 0.111019
H30   H     H_    0.074037 0.765615 0.268802 0.111000
H31   H     H_    0.561549 0.746400 0.280329 0.122803
H32   H     H_    0.438352 0.253682 0.719835 0.122692
H33   H     H_    0.426046 0.734469 0.731158 0.111076
H34   H     H_    0.390585 0.437759 0.358176 0.118976
H35   H     H_    0.573430 0.264802 0.269146 0.104261
H36   H     H_    0.030570 0.371411 0.228164 0.117508
H37   H     H_    0.969615 0.628435 0.771469 0.117658
H38   H     H_    0.941357 0.345948 0.796900 0.109439
H39   H     H_    0.058861 0.654342 0.203010 0.109455
H40   H     H_    0.530331 0.871575 0.228610 0.117495
H41   H     H_    0.469441 0.128595 0.771828 0.117498
H42   H     H_    0.441263 0.845781 0.796939 0.109643
H43   H     H_    0.558007 0.153201 0.203502 0.104027
H44   H     H_    0.927723 0.667435 0.054402 0.104944
H45   H     H_    0.083439 0.225476 0.900991 0.104290
H46   H     H_    0.072483 0.332322 0.946032 0.105026
H47   H     H_    0.331499 0.924856 0.957092 0.109631
H48   H     H_    0.668920 0.075560 0.043771 0.108971
H49   H     H_    0.427446 0.167760 0.053811 0.105434
H50   H     H_    0.572274 0.832566 0.945591 0.104799
H51   H     H_    0.831183 0.424534 0.956459 0.110117
H52   H     H_    0.168479 0.575131 0.042863 0.110038
H53   H     H_    0.666813 0.928503 0.039174 0.103885
H54   H     H_    0.332923 0.071801 0.960247 0.104700
H55   H     H_    0.073166 0.671084 0.947699 0.109300
H56   H     H_    0.916681 0.774387 0.099249 0.104286
H57   H     H_    0.926512 0.328597 0.051654 0.109299
H58   H     H_    0.167062 0.428226 0.039710 0.104460
H59   H     H_    0.833153 0.571527 0.960757 0.104479
H60   H     H_    0.573544 0.171447 0.948481 0.110674
H61   H     H_    0.426843 0.828933 0.052318 0.109005
H62   H     H_    0.223891 0.754394 0.334718 0.349119
H63   H     H_    0.776424 0.245840 0.665511 0.348678
H64   H     H_    0.698171 0.171334 0.245886 0.339359
H65   H     H_    0.276683 0.746183 0.666009 0.349403
H66   H     H_    0.000124 0.873739 0.468078 0.142165
H67   H     H_    0.775273 0.084859 0.093397 0.104951
H68   H     H_    0.999855 0.126263 0.531902 0.142165
H69   H     H_    0.890681 0.937318 0.423172 0.118172
H70   H     H_    0.109298 0.062686 0.576807 0.120189
H71   H     H_    0.609316 0.436836 0.576345 0.129060
H72   H     H_    0.390683 0.563164 0.423654 0.129105
H73   H     H_    0.499869 0.373540 0.530966 0.141809
H74   H     H_    0.500130 0.626460 0.469033 0.141847
H75   H     H_    0.750058 0.939067 0.471815 0.123318
H76   H     H_    0.249774 0.061059 0.528402 0.123478
H77   H     H_    0.230673 0.922139 0.541344 0.106300
H78   H     H_    0.224964 0.915375 0.907092 0.105270
H79   H     H_    0.769480 0.077905 0.458749 0.101090
H80   H     H_    0.250241 0.438936 0.471588 0.123564
H81   H     H_    0.749885 0.560963 0.528238 0.123875
H82   H     H_    0.730754 0.422255 0.541268 0.106055
H83   H     H_    0.269353 0.577880 0.458649 0.105681
H84   H     H_    0.773670 0.917370 0.089919 0.106402
H85   H     H_    0.226201 0.082781 0.909783 0.106518
H86   H     H_    0.083799 0.776664 0.901772 0.097084
H87   H     H_    0.916028 0.223164 0.097882 0.097072
H88   H     H_    0.273826 0.417202 0.090261 0.106089
H89   H     H_    0.583327 0.725602 0.900768 0.104233
H90   H     H_    0.726296 0.582661 0.910010 0.106119
H91   H     H_    0.583973 0.276831 0.902142 0.096921
H92   H     H_    0.416219 0.723358 0.098260 0.097013
O1    O     O_3   0.999990 0.000000 0.249990 -0.448757
O2    O     O_R   0.585440 0.646160 0.804690 -0.539941
O3    O     O_R   0.585440 0.353840 0.804690 -0.541336
O4    O     O_R   0.414560 0.646160 0.195310 -0.541422
O5    O     O_R   0.085440 0.146150 0.366190 -0.542802
O6    O     O_R   0.914560 0.853850 0.633810 -0.543019
O7    O     O_R   0.914560 0.146150 0.633810 -0.541524
O8    O     O_R   0.085440 0.853850 0.366190 -0.544218
O9    O     O_R   0.585440 0.646150 0.366190 -0.542949
O10   O     O_R   0.414560 0.353850 0.633810 -0.543009
O11   O     O_R   0.414560 0.646150 0.633810 -0.544208
O12   O     O_3   0.000010 0.000000 0.750010 -0.448856
O13   O     O_R   0.585440 0.353850 0.366190 -0.545578
O14   O     O_R   0.853820 0.085430 0.073070 -0.540241
O15   O     O_R   0.146180 0.914570 0.926930 -0.540337
O16   O     O_R   0.146180 0.085430 0.926930 -0.536887
O17   O     O_R   0.853820 0.914570 0.073070 -0.536714
O18   O     O_R   0.353820 0.585430 0.073070 -0.540185
O19   O     O_R   0.646180 0.414570 0.926930 -0.540313
O20   O     O_R   0.646180 0.585430 0.926930 -0.536908
O21   O     O_R   0.353820 0.414570 0.073070 -0.536655
O22   O     O_R   0.146150 0.914540 0.365390 -0.528249
O23   O     O_3   0.499990 0.500000 0.249990 -0.448470
O24   O     O_R   0.853850 0.085460 0.634610 -0.530074
O25   O     O_R   0.853850 0.914540 0.634610 -0.541358
O26   O     O_R   0.146150 0.085460 0.365390 -0.541246
O27   O     O_R   0.646150 0.414540 0.365390 -0.529388
O28   O     O_R   0.353850 0.585460 0.634610 -0.528325
O29   O     O_R   0.353850 0.414540 0.634610 -0.541193
O30   O     O_R   0.646150 0.585460 0.365390 -0.541640
O31   O     O_R   0.939240 0.000000 0.071950 -0.541225
O32   O     O_R   0.060760 0.000000 0.928050 -0.541212
O33   O     O_R   0.439240 0.500000 0.071950 -0.541124
O34   O     O_3   0.500010 0.500000 0.750010 -0.448823
O35   O     O_R   0.560760 0.500000 0.928050 -0.541553
O36   O     O_R   0.000020 0.939290 0.367320 -0.542928
O37   O     O_R   0.999980 0.060710 0.632680 -0.542795
O38   O     O_R   0.999980 0.939290 0.632680 -0.538013
O39   O     O_R   0.000020 0.060710 0.367320 -0.538055
O40   O     O_R   0.500020 0.439290 0.367320 -0.537555
O41   O     O_R   0.499980 0.560710 0.632680 -0.537601
O42   O     O_R   0.499980 0.439290 0.632680 -0.542923
O43   O     O_R   0.500020 0.560710 0.367320 -0.542852
O44   O     O_R   0.060680 0.000000 0.193390 -0.543698
O45   O     O_R   0.914560 0.853840 0.195310 -0.540318
O46   O     O_R   0.939320 0.000000 0.806610 -0.543633
O47   O     O_R   0.560680 0.500000 0.193390 -0.544032
O48   O     O_R   0.439320 0.500000 0.806610 -0.543316
O49   O     O_2   0.173147 0.717717 0.202375 -0.532767
O50   O     O_R   0.189029 0.793526 0.287122 -0.698082
O51   O     O_2   0.826971 0.282357 0.797753 -0.532778
O52   O     O_R   0.811243 0.206676 0.713072 -0.698860
O53   O     O_2   0.674285 0.282583 0.268547 -0.521053
O54   O     O_R   0.667588 0.205214 0.193081 -0.716601
O55   O     O_2   0.328417 0.783240 0.798948 -0.532689
O56   O     O_R   0.085440 0.146160 0.804690 -0.540024
O57   O     O_R   0.311504 0.706998 0.713535 -0.697967
O58   O     O_R   0.085440 0.853840 0.804690 -0.541247
O59   O     O_R   0.914560 0.146160 0.195310 -0.541486
O60   O     O_R   0.414560 0.353840 0.195310 -0.540325
Zn1   Zn    Zn3+2 1.000000 0.086750 0.293940 0.926290
Zn2   Zn    Zn3+2 0.086780 0.000000 0.880710 0.926710
Zn3   Zn    Zn3+2 0.413220 0.500000 0.119290 0.927076
Zn4   Zn    Zn3+2 0.586780 0.500000 0.880710 0.926599
Zn5   Zn    Zn3+2 0.086730 0.000000 0.292800 0.935320
Zn6   Zn    Zn3+2 0.913270 0.000000 0.707200 0.934504
Zn7   Zn    Zn3+2 0.586730 0.500000 0.292800 0.934044
Zn8   Zn    Zn3+2 0.413270 0.500000 0.707200 0.935405
Zn9   Zn    Zn3+2 1.000000 0.913250 0.706060 0.926166
Zn10  Zn    Zn3+2 1.000000 0.086750 0.706060 0.927841
Zn11  Zn    Zn3+2 1.000000 0.913250 0.293940 0.926367
Zn12  Zn    Zn3+2 0.500000 0.586750 0.293940 0.924972
Zn13  Zn    Zn3+2 0.500000 0.413250 0.706060 0.924888
Zn14  Zn    Zn3+2 0.500000 0.586750 0.706060 0.928342
Zn15  Zn    Zn3+2 0.500000 0.413250 0.293940 0.927657
Zn16  Zn    Zn3+2 0.913220 0.000000 0.119290 0.926777

loop_
_geom_bond_atom_site_label_1
_geom_bond_atom_site_label_2
_ccdc_geom_bond_type
C21   C26   A    
C107  C112  A    
C2    H18   S    
C82   C120  A    
C74   C83   A    
C14   C170  A    
C90   H76   S    
C80   H32   S    
C24   C98   A    
C15   C163  S    
C176  O7    A    
O10   Zn13  S    
C84   H37   S    
C59   C66   S    
C132  H86   S    
C108  O15   A    
C133  H87   S    
C68   H25   S    
C58   C60   S    
O21   Zn3   S    
C29   C33   A    
C181  O27   A    
C17   C39   A    
C2    C90   A    
C18   C40   A    
C62   C64   S    
C9    C182  A    
C134  C143  A    
C146  C150  A    
C76   H29   S    
C40   C43   A    
C162  C171  A    
O43   Zn12  S    
C125  C179  S    
O23   Zn15  S    
C128  C180  S    
C85   H38   S    
C26   C93   S    
C7    C15   A    
C100  C109  A    
C102  C111  A    
C55   O41   A    
C93   O51   D    
C77   H30   S    
O1    Zn5   S    
C178  O9    A    
C25   C29   A    
C75   H28   S    
C115  C123  A    
C150  C159  A    
C27   C31   A    
C69   H34   S    
C137  C146  A    
C28   C32   A    
C158  H67   S    
C5    C12   A    
C7    C137  A    
C5    C135  A    
C58   C70   S    
C101  C110  A    
C151  H50   S    
C17   C21   A    
C82   C91   A    
C153  C161  A    
C42   C45   A    
C19   C23   A    
C20   H8    S    
C161  H2    S    
C60   H70   S    
C143  H58   S    
O22   Zn5   S    
C90   C104  A    
C46   C84   A    
O1    Zn1   S    
C60   C65   S    
C22   C27   A    
C177  O22   A    
C105  C118  A    
C36   C44   A    
C37   C45   A    
C103  C121  A    
C48   O44   A    
C163  O18   A    
C99   C107  A    
C96   C105  A    
C104  C117  A    
C14   C130  S    
C87   C174  A    
C80   C117  A    
C18   H6    S    
C149  H48   S    
O39   Zn1   S    
C68   C102  A    
C164  H4    S    
C141  O2    A    
C20   C42   A    
O1    Zn16  S    
C138  C151  A    
C180  O28   A    
C33   C38   A    
C98   C106  A    
C56   C59   S    
C74   H27   S    
O33   Zn3   S    
C79   H75   S    
C103  C116  A    
C80   C88   A    
C74   C112  A    
C121  C175  S    
C159  H78   S    
C57   C85   A    
C126  C178  S    
C4    C14   A    
C169  C182  A    
O34   Zn14  S    
C6    C16   A    
C35   H24   S    
C106  C124  A    
C31   C36   A    
C77   C115  A    
C76   C85   A    
C44   C48   S    
C19   H7    S    
C78   C87   A    
C101  H82   S    
C52   O39   A    
O18   Zn3   S    
C59   H69   S    
C148  H44   S    
C89   H42   S    
C49   O32   A    
C120  C127  A    
O6    Zn9   S    
C146  H61   S    
C105  C123  A    
C133  C142  A    
C138  H53   S    
C9    C166  A    
C178  O30   A    
C162  H3    S    
C75   C84   A    
C104  C122  A    
C134  H88   S    
C65   C70   S    
C12   C141  S    
C61   C63   S    
C67   C72   S    
C10   C119  S    
O12   Zn10  S    
C82   H35   S    
C63   C69   S    
O16   Zn2   S    
C64   C73   S    
C75   C113  A    
C149  C158  A    
C110  C114  A    
O31   Zn16  S    
O12   Zn6   S    
C61   H71   S    
C94   O53   D    
C173  O26   A    
O56   Zn10  S    
C79   C103  A    
O24   Zn6   S    
O13   Zn15  S    
C47   C50   S    
C51   O48   A    
O37   Zn10  S    
C30   C34   A    
C13   C96   A    
C34   C39   A    
C1    C9    S    
C107  C125  A    
C141  O20   A    
C5    C166  A    
C52   O36   A    
O17   Zn16  S    
C152  O3    A    
C61   C67   S    
C157  H56   S    
C53   O38   A    
C81   H33   S    
C41   C47   A    
C54   O40   A    
C32   C37   A    
O32   Zn2   S    
C129  H84   S    
C8    C183  A    
C30   H14   S    
C26   C30   A    
C102  H83   S    
O48   Zn8   S    
C164  C172  A    
C136  H91   S    
C86   H39   S    
O44   Zn5   S    
C4    C134  A    
O45   Zn11  S    
C18   C22   A    
C154  C162  A    
C48   O31   A    
C78   C116  A    
C34   C43   A    
C78   H31   S    
C39   C44   A    
C124  C176  S    
C57   C101  A    
O47   Zn7   S    
C1    O17   A    
O23   Zn7   S    
C180  O11   A    
O34   Zn8   S    
C148  C157  A    
C37   C41   A    
C50   O33   A    
C131  C139  A    
C8    C165  A    
C95   O55   D    
C92   O49   D    
C109  C126  A    
C113  C121  A    
O42   Zn13  S    
C23   H11   S    
C11   C108  S    
C21   H9    S    
C117  C125  A    
C129  C182  A    
H65   O57   S    
C123  C177  S    
C31   H15   S    
C175  O25   A    
O14   Zn16  S    
O19   Zn4   S    
C63   H73   S    
C3    C172  A    
C20   C25   A    
C139  C153  A    
C68   C86   A    
C4    C165  A    
O7    Zn10  S    
C108  O58   A    
C131  C183  A    
C56   H66   S    
C158  C167  A    
C160  C169  A    
C69   C73   S    
C175  O6    A    
C81   C89   A    
C139  H54   S    
O5    Zn1   S    
O2    Zn14  S    
C79   C174  A    
C181  O13   A    
C53   C70   S    
C51   O35   A    
O58   Zn9   S    
C11   C184  A    
C171  C184  A    
C152  O19   A    
C119  O59   A    
C35   C83   A    
O41   Zn14  S    
C60   C71   S    
C61   C73   S    
C81   C118  A    
C140  H55   S    
C150  H47   S    
O3    Zn13  S    
C62   C69   S    
O27   Zn7   S    
C143  C147  A    
C54   C73   S    
C177  O8    A    
C66   C71   S    
C56   C71   S    
C153  H49   S    
C16   C152  S    
O60   Zn15  S    
C147  C156  A    
C12   C169  A    
C99   H80   S    
C11   C168  A    
C13   H21   S    
C54   O43   A    
C122  C173  S    
C55   O42   A    
C93   O52   S    
O59   Zn1   S    
C57   H26   S    
C91   H43   S    
C176  O24   A    
O46   Zn6   S    
C1    O45   A    
C132  C140  A    
O11   Zn14  S    
O12   Zn2   S    
C50   O47   A    
C137  H92   S    
C87   H40   S    
C135  H90   S    
C32   H16   S    
C52   C71   S    
C132  C184  A    
C29   C94   S    
C156  C165  A    
O38   Zn9   S    
C59   C70   S    
H63   O52   S    
O40   Zn15  S    
C173  O5    A    
C63   C72   S    
C145  H60   S    
C100  H81   S    
C179  O29   A    
C145  C149  A    
C19   C41   A    
C96   H77   S    
C94   O54   S    
C170  C183  A    
O23   Zn3   S    
O20   Zn4   S    
C58   H68   S    
C144  C148  A    
O34   Zn4   S    
C62   H72   S    
C28   C95   S    
C119  O14   A    
C38   C42   A    
C147  H46   S    
C130  O60   A    
C163  O4    A    
C45   C51   S    
C56   C65   S    
C144  H59   S    
C159  C168  A    
O34   Zn13  S    
C6    C136  A    
C98   H79   S    
C58   C66   S    
O36   Zn11  S    
C129  C138  A    
C10   C167  A    
C76   C114  A    
O28   Zn8   S    
C2    C88   A    
C142  C155  A    
C156  H45   S    
C136  C145  A    
C109  C113  A    
C110  C127  A    
O26   Zn5   S    
C114  C124  A    
C116  C126  A    
O29   Zn8   S    
C118  C128  A    
C35   C99   A    
C46   H22   S    
O4    Zn12  S    
O15   Zn2   S    
C64   H74   S    
C13   C89   A    
C65   H1    S    
C130  O21   A    
C15   C171  A    
C64   C67   S    
C36   C40   A    
C43   C49   S    
C17   H5    S    
C3    C133  A    
C8    C97   S    
C112  C122  A    
H64   O54   S    
C16   C172  A    
C88   H41   S    
C131  H85   S    
O12   Zn9   S    
C155  H51   S    
C62   C72   S    
C27   C92   S    
C38   C47   A    
O30   Zn7   S    
C92   O50   S    
C161  C170  A    
C7    C168  A    
C135  C144  A    
C77   C86   A    
C127  C181  S    
C23   C28   A    
C24   C91   A    
C111  C128  A    
C67   H23   S    
O1    Zn11  S    
C46   C100  A    
C6    C167  A    
C24   H20   S    
C106  C120  A    
C55   C72   S    
C157  C166  A    
C95   O57   S    
C66   H12   S    
C155  C164  A    
C142  H57   S    
C179  O10   A    
O23   Zn12  S    
C97   O16   A    
C151  C160  A    
O25   Zn6   S    
C3    C10   A    
C83   H36   S    
C33   H17   S    
C174  H19   S    
O8    Zn11  S    
C25   H13   S    
C49   O46   A    
C97   O56   A    
C154  H52   S    
C53   O37   A    
C22   H10   S    
C111  C115  A    
C160  H89   S    
O35   Zn4   S    
O9    Zn12  S    
C140  C154  A    
H62   O50   S    
