data_mof_unit_30336.cif
_audit_creation_date              2012-12-10T18:12:08-0500
_audit_creation_method            fapswitch 2.2
_symmetry_space_group_name_H-M    P1
_symmetry_Int_Tables_number       1
_space_group_crystal_system       triclinic
_cell_length_a                    18.356224
_cell_length_b                    18.356225
_cell_length_c                    43.106843
_cell_angle_alpha                 90.000014
_cell_angle_beta                  90.0
_cell_angle_gamma                 89.781159
_cell_volume                      14524.7869544

loop_
_atom_site_label
_atom_site_type_symbol
_atom_type_description
_atom_site_fract_x
_atom_site_fract_y
_atom_site_fract_z
_atom_type_partial_charge
C1    C     C_R   0.002004 0.433960 0.884668 -0.132710
C2    C     C_R   0.499894 0.066077 0.615338 -0.127865
C3    C     C_R   0.263590 0.683954 0.265314 0.200772
C4    C     C_R   0.708537 0.760821 0.723087 0.203578
C5    C     C_R   0.287229 0.232617 0.277705 0.209745
C6    C     C_R   0.265283 0.680668 0.737584 0.195984
C7    C     C_R   0.736408 0.316047 0.265313 0.200802
C8    C     C_R   0.319331 0.734717 0.262416 0.195987
C9    C     C_R   0.683953 0.263591 0.734687 0.200778
C10   C     C_R   0.760821 0.708537 0.276913 0.203573
C11   C     C_R   0.232609 0.287222 0.722294 0.209733
C12   C     C_R   0.680668 0.265283 0.262415 0.195981
C13   C     C_R   0.066077 0.499894 0.384662 -0.127866
C14   C     C_R   0.316047 0.736409 0.734687 0.200775
C15   C     C_R   0.239186 0.291471 0.276911 0.203577
C16   C     C_R   0.767392 0.712780 0.722294 0.209740
C17   C     C_R   0.791462 0.739178 0.223086 0.203605
C18   C     C_R   0.212775 0.267388 0.777706 0.209764
C19   C     C_R   0.234711 0.819339 0.237591 0.196026
C20   C     C_R   0.763600 0.183945 0.765305 0.200781
C21   C     C_R   0.208530 0.260815 0.223087 0.203605
C22   C     C_R   0.787220 0.732607 0.777707 0.209751
C23   C     C_R   0.765288 0.180662 0.237590 0.196032
C24   C     C_R   0.933959 0.502312 0.615332 -0.132829
C25   C     C_R   0.236401 0.816055 0.765306 0.200764
C26   C     C_R   0.819339 0.234712 0.762409 0.196028
C27   C     C_R   0.183944 0.763600 0.234695 0.200782
C28   C     C_R   0.260819 0.208535 0.776913 0.203606
C29   C     C_R   0.732609 0.787222 0.222293 0.209762
C30   C     C_R   0.180661 0.765288 0.762409 0.196034
C31   C     C_R   0.816054 0.236401 0.234694 0.200777
C32   C     C_R   0.739177 0.791461 0.776914 0.203598
C33   C     C_R   0.267382 0.212770 0.222294 0.209765
C34   C     C_R   0.195811 0.304188 0.750000 -0.060691
C35   C     C_R   0.497687 0.066041 0.384668 -0.132835
C36   C     C_R   0.803417 0.696581 0.249999 -0.061377
C37   C     C_R   0.696466 0.196460 0.749997 -0.060175
C38   C     C_R   0.303993 0.803997 0.250002 -0.053450
C39   C     C_R   0.804187 0.695811 0.750001 -0.060695
C40   C     C_R   0.196583 0.303419 0.249999 -0.061382
C41   C     C_R   0.303534 0.803540 0.749997 -0.060167
C42   C     C_R   0.696007 0.196003 0.250001 -0.053471
C43   C     C_R   0.196459 0.696467 0.250003 -0.060174
C44   C     C_R   0.803997 0.303993 0.749998 -0.053453
C45   C     C_R   0.695812 0.804188 0.250000 -0.060691
C46   C     C_R   0.500106 0.933923 0.615338 -0.127866
C47   C     C_R   0.303418 0.196583 0.750000 -0.061378
C48   C     C_R   0.803540 0.303534 0.250002 -0.060183
C49   C     C_R   0.196003 0.696007 0.749998 -0.053433
C50   C     C_R   0.304189 0.195812 0.249999 -0.060683
C51   C     C_R   0.696581 0.803417 0.750001 -0.061378
C52   C     C_3   0.392671 0.274124 0.695521 0.059232
C53   C     C_3   0.376777 0.344437 0.677576 -0.264560
C54   C     C_3   0.446139 0.388299 0.672297 -0.510270
C55   C     C_3   0.711529 0.848083 0.318465 0.034887
C56   C     C_3   0.776792 0.827269 0.338823 -0.255591
C57   C     C_R   0.933923 0.500106 0.384662 -0.127865
C58   C     C_3   0.805319 0.892944 0.356732 -0.500706
C59   C     C_3   0.680945 0.427426 0.749583 0.034571
C60   C     C_3   0.662589 0.503176 0.737111 -0.254730
C61   C     C_3   0.622454 0.549113 0.761198 -0.500144
C62   C     C_3   0.256663 0.625734 0.312325 0.049441
C63   C     C_3   0.320321 0.650116 0.332804 -0.260607
C64   C     C_3   0.302170 0.641755 0.367169 -0.508742
C65   C     C_3   0.607332 0.725880 0.695520 0.059231
C66   C     C_3   0.623224 0.655567 0.677575 -0.264567
C67   C     C_3   0.553861 0.611703 0.672299 -0.510263
C68   C     C_R   0.066041 0.497688 0.615332 -0.132833
C69   C     C_3   0.288492 0.151937 0.318468 0.034892
C70   C     C_3   0.223230 0.172753 0.338825 -0.255596
C71   C     C_3   0.194709 0.107082 0.356738 -0.500708
C72   C     C_3   0.319061 0.572577 0.749583 0.034556
C73   C     C_3   0.337382 0.496813 0.737118 -0.254734
C74   C     C_3   0.377520 0.450878 0.761205 -0.500146
C75   C     C_3   0.743331 0.374276 0.312322 0.049452
C76   C     C_3   0.679670 0.349905 0.332801 -0.260602
C77   C     C_3   0.697823 0.358268 0.367167 -0.508745
C78   C     C_3   0.427420 0.680934 0.250418 0.034553
C79   C     C_R   0.000000 0.500000 0.933354 0.030674
C80   C     C_3   0.503185 0.662612 0.262883 -0.254737
C81   C     C_3   0.549115 0.622464 0.238798 -0.500148
C82   C     C_3   0.625730 0.256667 0.687676 0.049455
C83   C     C_3   0.650079 0.320335 0.667197 -0.260608
C84   C     C_3   0.641720 0.302180 0.632832 -0.508742
C85   C     C_3   0.725877 0.607330 0.304478 0.059233
C86   C     C_3   0.655564 0.623220 0.322424 -0.264566
C87   C     C_3   0.611699 0.553858 0.327697 -0.510266
C88   C     C_3   0.151922 0.288478 0.681533 0.034887
C89   C     C_3   0.172734 0.223207 0.661180 -0.255595
C90   C     C_R   1.000000 0.500000 0.066675 0.030351
C91   C     C_3   0.107063 0.194689 0.643266 -0.500706
C92   C     C_3   0.572563 0.319015 0.250406 0.034600
C93   C     C_3   0.496830 0.337425 0.262883 -0.254708
C94   C     C_3   0.450872 0.377486 0.238781 -0.500122
C95   C     C_3   0.374273 0.743334 0.687677 0.049448
C96   C     C_3   0.349905 0.679672 0.667197 -0.260609
C97   C     C_3   0.358266 0.697825 0.632832 -0.508743
C98   C     C_3   0.274130 0.392685 0.304472 0.059242
C99   C     C_3   0.344444 0.376803 0.322418 -0.264568
C100  C     C_3   0.388306 0.446170 0.327687 -0.510256
C101  C     C_R   0.500000 0.000000 0.933324 0.030351
C102  C     C_3   0.848083 0.711543 0.681536 0.034880
C103  C     C_3   0.827255 0.776780 0.661166 -0.255572
C104  C     C_3   0.892925 0.805309 0.643254 -0.500703
C105  C     C_3   0.892666 0.774122 0.195518 0.059165
C106  C     C_3   0.876768 0.844436 0.177574 -0.264710
C107  C     C_3   0.946127 0.888304 0.172297 -0.510388
C108  C     C_3   0.211512 0.348060 0.818472 0.034971
C109  C     C_3   0.276727 0.327222 0.838853 -0.256019
C110  C     C_3   0.305248 0.392887 0.856770 -0.501285
C111  C     C_3   0.180941 0.927434 0.249591 0.034520
C112  C     C_R   0.000180 0.566086 0.115337 -0.127862
C113  C     C_R   0.500000 0.000001 0.066646 0.030675
C114  C     C_3   0.162609 0.003193 0.237122 -0.254701
C115  C     C_3   0.122480 0.049133 0.261209 -0.500177
C116  C     C_3   0.756694 0.125711 0.812314 0.049397
C117  C     C_3   0.820373 0.150056 0.832789 -0.261170
C118  C     C_3   0.802239 0.141681 0.867155 -0.507363
C119  C     C_3   0.107317 0.225866 0.195526 0.059179
C120  C     C_3   0.123205 0.155552 0.177581 -0.264711
C121  C     C_3   0.053842 0.111689 0.172307 -0.510381
C122  C     C_3   0.788483 0.651929 0.818471 0.034972
C123  C     C_3   0.723249 0.672757 0.838843 -0.256027
C124  C     C_R   0.499999 0.000000 0.433331 0.030241
C125  C     C_3   0.694729 0.607089 0.856758 -0.501287
C126  C     C_3   0.819069 0.072569 0.249584 0.034515
C127  C     C_3   0.837387 0.996807 0.237115 -0.254709
C128  C     C_3   0.877536 0.950868 0.261197 -0.500180
C129  C     C_3   0.243309 0.874285 0.812315 0.049390
C130  C     C_3   0.179632 0.849933 0.832790 -0.261175
C131  C     C_3   0.197766 0.858308 0.867156 -0.507361
C132  C     C_3   0.927433 0.180939 0.750411 0.034521
C133  C     C_3   0.003191 0.162605 0.762881 -0.254705
C134  C     C_3   0.049132 0.122473 0.738795 -0.500180
C135  C     C_R   0.500000 1.000000 0.566653 0.030797
C136  C     C_3   0.125710 0.756695 0.187686 0.049396
C137  C     C_3   0.150056 0.820374 0.167212 -0.261170
C138  C     C_3   0.141684 0.802239 0.132845 -0.507363
C139  C     C_3   0.225872 0.107328 0.804478 0.059169
C140  C     C_3   0.155557 0.123222 0.822422 -0.264710
C141  C     C_3   0.111691 0.053861 0.827698 -0.510381
C142  C     C_3   0.651932 0.788479 0.181529 0.034969
C143  C     C_3   0.672769 0.723265 0.161148 -0.256017
C144  C     C_3   0.607102 0.694743 0.143232 -0.501285
C145  C     C_3   0.072575 0.819089 0.750418 0.034484
C146  C     C_R   1.000000 0.500000 0.433347 0.030797
C147  C     C_3   0.996788 0.837340 0.762877 -0.254722
C148  C     C_3   0.950864 0.877531 0.738803 -0.500199
C149  C     C_3   0.874280 0.243312 0.187683 0.049390
C150  C     C_3   0.849922 0.179637 0.167209 -0.261169
C151  C     C_3   0.858295 0.197771 0.132843 -0.507362
C152  C     C_3   0.774125 0.892666 0.804480 0.059164
C153  C     C_3   0.844438 0.876767 0.822425 -0.264711
C154  C     C_3   0.888309 0.946125 0.827700 -0.510386
C155  C     C_3   0.348044 0.211479 0.181524 0.034982
C156  C     C_3   0.327221 0.276725 0.161158 -0.256042
C157  C     C_R   0.000000 0.499999 0.566669 0.030240
C158  C     C_3   0.392886 0.305232 0.143237 -0.501289
C159  C     C_R   0.001977 0.433980 0.916961 -0.128171
C160  C     C_R   0.000096 0.566053 0.083043 -0.126704
C161  C     C_R   0.566053 0.000098 0.916957 -0.126704
C162  C     C_R   0.433980 0.001976 0.083038 -0.128171
C163  C     C_R   0.998023 0.566020 0.916961 -0.128171
C164  C     C_R   0.566086 0.000181 0.884663 -0.127862
C165  C     C_R   0.999903 0.433947 0.083043 -0.126705
C166  C     C_R   0.433946 0.999903 0.916957 -0.126705
C167  C     C_R   0.566020 0.998025 0.083038 -0.128171
C168  C     C_R   0.502232 0.933983 0.416962 -0.128361
C169  C     C_R   0.499861 0.066050 0.583045 -0.126519
C170  C     C_R   0.066050 0.499861 0.416955 -0.126520
C171  C     C_R   0.933983 0.502232 0.583038 -0.128360
C172  C     C_R   0.497767 0.066018 0.416962 -0.128361
C173  C     C_R   0.500139 0.933950 0.583045 -0.126520
C174  C     C_R   0.933950 0.500139 0.416955 -0.126519
C175  C     C_R   0.433960 0.002004 0.115332 -0.132716
C176  C     C_R   0.066018 0.497767 0.583038 -0.128361
C177  C     C_R   0.000000 0.500000 0.868262 0.030488
C178  C     C_R   1.000000 0.500000 0.131741 0.038919
C179  C     C_R   0.500000 1.000000 0.868259 0.038920
C180  C     C_R   0.500000 0.000000 0.131738 0.030488
C181  C     C_R   0.500000 1.000000 0.368262 0.030464
C182  C     C_R   0.500000 1.000000 0.631741 0.038823
C183  C     C_R   1.000000 0.500000 0.368259 0.038822
C184  C     C_R   1.000000 0.500000 0.631738 0.030465
C185  C     C_R   0.953872 0.547466 0.983896 -0.116989
C186  C     C_R   0.997996 0.566040 0.884668 -0.132710
C187  C     C_R   0.046067 0.452484 0.016190 -0.116955
C188  C     C_R   0.452483 0.046067 0.983810 -0.116955
C189  C     C_R   0.547466 0.953874 0.016104 -0.116988
C190  C     C_R   0.046128 0.452534 0.983896 -0.116988
C191  C     C_R   0.953932 0.547516 0.016190 -0.116955
C192  C     C_R   0.547517 0.953934 0.983810 -0.116955
C193  C     C_R   0.452533 0.046127 0.016104 -0.116989
C194  C     C_R   0.544503 0.048643 0.483816 -0.116958
C195  C     C_R   0.455436 0.951404 0.516110 -0.116592
C196  C     C_R   0.951404 0.455436 0.483890 -0.116592
C197  C     C_R   0.999819 0.433914 0.115337 -0.127863
C198  C     C_R   0.048643 0.544503 0.516184 -0.116958
C199  C     C_R   0.455496 0.951357 0.483816 -0.116958
C200  C     C_R   0.544563 0.048596 0.516110 -0.116592
C201  C     C_R   0.048596 0.544563 0.483890 -0.116592
C202  C     C_R   0.951357 0.455496 0.516184 -0.116959
C203  C     C_R   0.499999 0.000000 0.532505 0.031893
C204  C     C_R   0.499999 0.000000 0.467446 0.031134
C205  C     C_R   0.000000 0.499999 0.532554 0.031134
C206  C     C_R   1.000000 0.500000 0.467494 0.031893
C207  C     C_R   1.000000 0.500000 0.032560 0.030985
C208  C     C_R   0.433914 0.999819 0.884663 -0.127862
C209  C     C_R   1.000000 0.500000 0.967501 0.031573
C210  C     C_R   0.500000 0.000001 0.032499 0.031573
C211  C     C_R   0.500000 0.000000 0.967440 0.030986
C212  C     C_R   0.500000 1.000000 0.834207 0.502437
C213  C     C_R   0.500000 1.000000 0.165792 0.484879
C214  C     C_R   1.000000 0.500000 0.834207 0.484882
C215  C     C_R   1.000000 0.500000 0.165793 0.502436
C216  C     C_R   0.000000 0.500000 0.334207 0.502438
C217  C     C_R   1.000000 0.500000 0.665793 0.484797
C218  C     C_R   0.500000 0.000000 0.334207 0.484795
C219  C     C_R   0.566040 0.997997 0.115332 -0.132708
C220  C     C_R   0.500000 0.000000 0.665793 0.502439
C221  C     C_R   0.640156 0.140154 0.749999 0.535361
C222  C     C_R   0.360014 0.860014 0.250000 0.527590
C223  C     C_R   0.860139 0.639860 0.750000 0.514125
C224  C     C_R   0.140161 0.359839 0.250000 0.550089
C225  C     C_R   0.359844 0.859846 0.749999 0.535360
C226  C     C_R   0.639986 0.139985 0.250000 0.527563
C227  C     C_R   0.139861 0.360140 0.750000 0.514122
C228  C     C_R   0.859839 0.640161 0.250000 0.550099
C229  C     C_R   0.639860 0.860139 0.250000 0.514126
C230  C     C_R   0.502312 0.933959 0.384668 -0.132831
C231  C     C_R   0.359839 0.140161 0.750000 0.550096
C232  C     C_R   0.859846 0.359844 0.250001 0.535355
C233  C     C_R   0.139986 0.639987 0.750000 0.527611
C234  C     C_R   0.360140 0.139861 0.250000 0.514116
C235  C     C_R   0.640161 0.859839 0.750000 0.550099
C236  C     C_R   0.140153 0.640156 0.250001 0.535357
C237  C     C_R   0.860014 0.360014 0.750000 0.527581
C238  C     C_R   0.291465 0.239181 0.723087 0.203575
C239  C     C_R   0.712780 0.767392 0.277706 0.209732
C240  C     C_R   0.734717 0.319332 0.737584 0.195988
H1    H     H_    0.003464 0.382238 0.872588 0.137288
H2    H     H_    0.499647 0.117828 0.627417 0.123938
H3    H     H_    0.630417 0.382855 0.327305 0.186717
H4    H     H_    0.667483 0.291696 0.328242 0.197893
H5    H     H_    0.746182 0.324583 0.373216 0.146597
H6    H     H_    0.650890 0.339875 0.381363 0.150257
H7    H     H_    0.709183 0.416165 0.372801 0.137654
H8    H     H_    0.433392 0.716149 0.229494 0.109764
H9    H     H_    0.399824 0.629217 0.243798 0.154111
H10   H     H_    0.531335 0.713752 0.269548 0.205528
H11   H     H_    0.497795 0.627876 0.283875 0.164642
H12   H     H_    0.523438 0.569684 0.232693 0.144321
H13   H     H_    0.117828 0.499647 0.372582 0.123941
H14   H     H_    0.604201 0.611602 0.248373 0.142357
H15   H     H_    0.554943 0.656042 0.217548 0.136770
H16   H     H_    0.570882 0.238958 0.679937 0.150428
H17   H     H_    0.662682 0.208874 0.684137 0.113311
H18   H     H_    0.617115 0.369578 0.672693 0.186692
H19   H     H_    0.708285 0.332541 0.671756 0.197913
H20   H     H_    0.675431 0.253840 0.626781 0.146599
H21   H     H_    0.660085 0.349124 0.618635 0.150253
H22   H     H_    0.583828 0.290787 0.627199 0.137653
H23   H     H_    0.755829 0.563206 0.316721 0.162090
H24   H     H_    0.882256 0.504400 0.627411 0.137298
H25   H     H_    0.712675 0.585697 0.280933 0.128274
H26   H     H_    0.668978 0.648084 0.345220 0.186377
H27   H     H_    0.621317 0.661951 0.309101 0.197505
H28   H     H_    0.599058 0.527132 0.305210 0.159912
H29   H     H_    0.559671 0.567535 0.339522 0.145630
H30   H     H_    0.642841 0.515491 0.342577 0.146606
H31   H     H_    0.124981 0.330238 0.666758 0.156916
H32   H     H_    0.110846 0.271956 0.699222 0.096902
H33   H     H_    0.215695 0.239697 0.644444 0.189984
H34   H     H_    0.194604 0.178650 0.675975 0.180690
H35   H     H_    0.495598 0.117744 0.372589 0.137291
H36   H     H_    0.063494 0.177478 0.659536 0.138386
H37   H     H_    0.123695 0.146978 0.629067 0.151167
H38   H     H_    0.085347 0.237551 0.627555 0.149245
H39   H     H_    0.566537 0.283728 0.229507 0.109821
H40   H     H_    0.600177 0.370694 0.243744 0.153988
H41   H     H_    0.468670 0.286326 0.269597 0.205519
H42   H     H_    0.502274 0.372253 0.283844 0.164613
H43   H     H_    0.476575 0.430214 0.232615 0.144288
H44   H     H_    0.395818 0.388439 0.248369 0.142350
H45   H     H_    0.444967 0.343803 0.217564 0.136769
H46   H     H_    0.500353 0.882172 0.627417 0.123938
H47   H     H_    0.429123 0.761029 0.679936 0.150420
H48   H     H_    0.337331 0.791136 0.684138 0.113324
H49   H     H_    0.382858 0.630420 0.672693 0.186710
H50   H     H_    0.291697 0.667481 0.671757 0.197898
H51   H     H_    0.324579 0.746182 0.626783 0.146597
H52   H     H_    0.339875 0.650891 0.618636 0.150256
H53   H     H_    0.416163 0.709188 0.627197 0.137654
H54   H     H_    0.244176 0.436809 0.316713 0.162102
H55   H     H_    0.287329 0.414312 0.280926 0.128264
H56   H     H_    0.331033 0.351946 0.345216 0.186368
H57   H     H_    0.882172 0.500352 0.372582 0.123940
H58   H     H_    0.378693 0.338070 0.309098 0.197495
H59   H     H_    0.400941 0.472892 0.305199 0.159904
H60   H     H_    0.440338 0.432499 0.339510 0.145630
H61   H     H_    0.357165 0.484537 0.342567 0.146609
H62   H     H_    0.875054 0.669778 0.666773 0.156914
H63   H     H_    0.889140 0.728107 0.699227 0.096900
H64   H     H_    0.784313 0.760251 0.644428 0.189953
H65   H     H_    0.805353 0.821343 0.675949 0.180739
H66   H     H_    0.936472 0.822563 0.659527 0.138377
H67   H     H_    0.876279 0.852993 0.629042 0.151165
H68   H     H_    0.117744 0.495599 0.627411 0.137294
H69   H     H_    0.914675 0.762438 0.627558 0.149244
H70   H     H_    0.936788 0.744174 0.183273 0.161990
H71   H     H_    0.914303 0.787323 0.219063 0.128350
H72   H     H_    0.851897 0.831023 0.154779 0.185714
H73   H     H_    0.838042 0.878683 0.190899 0.197585
H74   H     H_    0.972862 0.900942 0.194782 0.159980
H75   H     H_    0.932444 0.940334 0.160475 0.145539
H76   H     H_    0.984487 0.857165 0.157413 0.146472
H77   H     H_    0.169733 0.375027 0.833229 0.156705
H78   H     H_    0.228093 0.389121 0.800786 0.096995
H79   H     H_    0.917039 0.583783 0.971735 0.100374
H80   H     H_    0.260176 0.284282 0.855588 0.188826
H81   H     H_    0.321301 0.305315 0.824077 0.180910
H82   H     H_    0.322526 0.436430 0.840499 0.138987
H83   H     H_    0.352915 0.376235 0.870991 0.150523
H84   H     H_    0.262364 0.414645 0.872459 0.148369
H85   H     H_    0.216170 0.933415 0.270510 0.109651
H86   H     H_    0.129230 0.899838 0.256218 0.154055
H87   H     H_    0.213743 0.031341 0.230447 0.205536
H88   H     H_    0.127854 0.997793 0.216136 0.164632
H89   H     H_    0.069710 0.023454 0.267328 0.144263
H90   H     H_    0.082767 0.416088 0.028386 0.101667
H91   H     H_    0.111602 0.104212 0.251630 0.142356
H92   H     H_    0.156081 0.054980 0.282452 0.136764
H93   H     H_    0.738988 0.070863 0.820053 0.150399
H94   H     H_    0.708903 0.162663 0.815859 0.113529
H95   H     H_    0.869616 0.117097 0.827284 0.186658
H96   H     H_    0.832571 0.208264 0.828233 0.198136
H97   H     H_    0.753898 0.175382 0.873213 0.148231
H98   H     H_    0.849189 0.160047 0.881347 0.151222
H99   H     H_    0.790859 0.083785 0.872785 0.137619
H100  H     H_    0.063192 0.255817 0.183284 0.162004
H101  H     H_    0.416087 0.082766 0.971614 0.101667
H102  H     H_    0.085689 0.212668 0.219072 0.128338
H103  H     H_    0.148071 0.168963 0.154785 0.185715
H104  H     H_    0.161932 0.121302 0.190904 0.197584
H105  H     H_    0.027110 0.099055 0.194794 0.159986
H106  H     H_    0.067518 0.059657 0.160486 0.145536
H107  H     H_    0.015481 0.142829 0.157424 0.146475
H108  H     H_    0.830256 0.624971 0.833234 0.156703
H109  H     H_    0.771922 0.610863 0.800784 0.096998
H110  H     H_    0.739780 0.715703 0.855579 0.188844
H111  H     H_    0.678681 0.694654 0.824061 0.180884
H112  H     H_    0.000543 0.617834 0.127416 0.123699
H113  H     H_    0.583785 0.917041 0.028265 0.100373
H114  H     H_    0.677471 0.563540 0.840486 0.138988
H115  H     H_    0.647048 0.623734 0.870972 0.150525
H116  H     H_    0.737606 0.585342 0.872453 0.148370
H117  H     H_    0.783855 0.066594 0.270508 0.109645
H118  H     H_    0.870788 0.100162 0.256204 0.154074
H119  H     H_    0.786245 0.968660 0.230449 0.205529
H120  H     H_    0.872123 0.002201 0.216123 0.164638
H121  H     H_    0.930316 0.976542 0.267303 0.144271
H122  H     H_    0.888394 0.895785 0.251620 0.142359
H123  H     H_    0.843957 0.945035 0.282447 0.136765
H124  H     H_    0.082961 0.416217 0.971735 0.100373
H125  H     H_    0.261012 0.929133 0.820056 0.150399
H126  H     H_    0.291102 0.837334 0.815859 0.113536
H127  H     H_    0.130387 0.882888 0.827286 0.186665
H128  H     H_    0.167439 0.791724 0.828234 0.198130
H129  H     H_    0.246112 0.824613 0.873213 0.148231
H130  H     H_    0.150820 0.839934 0.881349 0.151223
H131  H     H_    0.209139 0.916205 0.872787 0.137620
H132  H     H_    0.933417 0.216166 0.729492 0.109654
H133  H     H_    0.899836 0.129228 0.743784 0.154055
H134  H     H_    0.031340 0.213738 0.769555 0.205526
H135  H     H_    0.917232 0.583912 0.028386 0.101667
H136  H     H_    0.997789 0.127852 0.783867 0.164632
H137  H     H_    0.023450 0.069704 0.732676 0.144250
H138  H     H_    0.104209 0.111592 0.748375 0.142355
H139  H     H_    0.054981 0.156073 0.717552 0.136771
H140  H     H_    0.070862 0.738990 0.179947 0.150398
H141  H     H_    0.162662 0.708904 0.184141 0.113530
H142  H     H_    0.117096 0.869616 0.172716 0.186657
H143  H     H_    0.208264 0.832573 0.171768 0.198138
H144  H     H_    0.175385 0.753898 0.126788 0.148231
H145  H     H_    0.160050 0.849189 0.118653 0.151223
H146  H     H_    0.583913 0.917235 0.971614 0.101667
H147  H     H_    0.083788 0.790858 0.127215 0.137618
H148  H     H_    0.255821 0.063205 0.816723 0.161996
H149  H     H_    0.212673 0.085693 0.780933 0.128342
H150  H     H_    0.168968 0.148091 0.845218 0.185714
H151  H     H_    0.121311 0.161949 0.809098 0.197579
H152  H     H_    0.099056 0.027127 0.805212 0.159977
H153  H     H_    0.059660 0.067542 0.839519 0.145539
H154  H     H_    0.142829 0.015502 0.842582 0.146473
H155  H     H_    0.624960 0.830256 0.166773 0.156704
H156  H     H_    0.610875 0.771895 0.199216 0.096994
H157  H     H_    0.416215 0.082960 0.028265 0.100372
H158  H     H_    0.715706 0.739818 0.144412 0.188826
H159  H     H_    0.694680 0.678691 0.175923 0.180912
H160  H     H_    0.563562 0.677463 0.159504 0.138986
H161  H     H_    0.623755 0.647077 0.129010 0.150523
H162  H     H_    0.585342 0.737627 0.127544 0.148370
H163  H     H_    0.066643 0.783913 0.729481 0.109599
H164  H     H_    0.100150 0.870835 0.743824 0.154152
H165  H     H_    0.968655 0.786168 0.769512 0.205555
H166  H     H_    0.002136 0.872022 0.783887 0.164656
H167  H     H_    0.976486 0.930371 0.732750 0.144287
H168  H     H_    0.580005 0.085936 0.471620 0.100867
H169  H     H_    0.895739 0.888276 0.748361 0.142349
H170  H     H_    0.945133 0.844037 0.717524 0.136760
H171  H     H_    0.929129 0.261011 0.179942 0.150392
H172  H     H_    0.837333 0.291107 0.184141 0.113535
H173  H     H_    0.882873 0.130389 0.172712 0.186670
H174  H     H_    0.791712 0.167449 0.171766 0.198123
H175  H     H_    0.824603 0.246120 0.126786 0.148230
H176  H     H_    0.839918 0.150826 0.118650 0.151222
H177  H     H_    0.916192 0.209141 0.127211 0.137621
H178  H     H_    0.744177 0.936790 0.816725 0.161991
H179  H     H_    0.419800 0.914182 0.528270 0.100219
H180  H     H_    0.787326 0.914301 0.780936 0.128351
H181  H     H_    0.831025 0.851900 0.845221 0.185714
H182  H     H_    0.878683 0.838038 0.809101 0.197596
H183  H     H_    0.900948 0.972856 0.805214 0.159990
H184  H     H_    0.940338 0.932442 0.839522 0.145538
H185  H     H_    0.857172 0.984489 0.842583 0.146473
H186  H     H_    0.374978 0.169702 0.166754 0.156708
H187  H     H_    0.389128 0.228020 0.199206 0.097000
H188  H     H_    0.284260 0.260212 0.144426 0.188854
H189  H     H_    0.305347 0.321295 0.175945 0.180867
H190  H     H_    0.914182 0.419800 0.471729 0.100219
H191  H     H_    0.436450 0.322474 0.159505 0.138994
H192  H     H_    0.376245 0.352922 0.129027 0.150527
H193  H     H_    0.414612 0.262354 0.127538 0.148368
H194  H     H_    0.085936 0.580006 0.528380 0.100867
H195  H     H_    0.419993 0.914064 0.471620 0.100867
H196  H     H_    0.617834 0.000545 0.872584 0.123700
H197  H     H_    0.580199 0.085818 0.528270 0.100219
H198  H     H_    0.085818 0.580199 0.471730 0.100219
H199  H     H_    0.914064 0.419993 0.528380 0.100867
H200  H     H_    0.002614 0.382356 0.929125 0.103691
H201  H     H_    0.001009 0.617629 0.070845 0.102682
H202  H     H_    0.617629 0.001012 0.929155 0.102682
H203  H     H_    0.382356 0.002612 0.070875 0.103691
H204  H     H_    0.997387 0.617644 0.929125 0.103691
H205  H     H_    0.998990 0.382371 0.070845 0.102682
H206  H     H_    0.382371 0.998988 0.929155 0.102682
H207  H     H_    0.382238 0.003462 0.127411 0.137283
H208  H     H_    0.617644 0.997389 0.070875 0.103690
H209  H     H_    0.504821 0.882452 0.429160 0.104285
H210  H     H_    0.498835 0.117671 0.570882 0.102404
H211  H     H_    0.117671 0.498836 0.429118 0.102405
H212  H     H_    0.882452 0.504821 0.570840 0.104285
H213  H     H_    0.495177 0.117548 0.429160 0.104284
H214  H     H_    0.501164 0.882329 0.570882 0.102404
H215  H     H_    0.882329 0.501163 0.429118 0.102405
H216  H     H_    0.117548 0.495178 0.570840 0.104284
H217  H     H_    0.436794 0.244173 0.683278 0.162092
H218  H     H_    0.996537 0.617762 0.872588 0.137289
H219  H     H_    0.414305 0.287326 0.719066 0.128271
H220  H     H_    0.351906 0.331023 0.654781 0.186387
H221  H     H_    0.338052 0.378686 0.690900 0.197498
H222  H     H_    0.472875 0.400938 0.694783 0.159903
H223  H     H_    0.432460 0.440329 0.660474 0.145633
H224  H     H_    0.484498 0.357157 0.657415 0.146607
H225  H     H_    0.669768 0.875032 0.333237 0.156914
H226  H     H_    0.728061 0.889153 0.300775 0.096901
H227  H     H_    0.760291 0.784319 0.355562 0.189967
H228  H     H_    0.821347 0.805383 0.324031 0.180711
H229  H     H_    0.999456 0.382165 0.127416 0.123702
H230  H     H_    0.822546 0.936498 0.340457 0.138383
H231  H     H_    0.853021 0.876310 0.370935 0.151167
H232  H     H_    0.762456 0.914680 0.372436 0.149244
H233  H     H_    0.716180 0.433422 0.770498 0.109786
H234  H     H_    0.629243 0.399820 0.756216 0.154077
H235  H     H_    0.713713 0.531337 0.730432 0.205508
H236  H     H_    0.627830 0.497762 0.716127 0.164638
H237  H     H_    0.569706 0.523405 0.767330 0.144294
H238  H     H_    0.611530 0.604176 0.751612 0.142357
H239  H     H_    0.656071 0.554999 0.782435 0.136780
H240  H     H_    0.382165 0.999455 0.872584 0.123700
H241  H     H_    0.238974 0.570883 0.320068 0.150412
H242  H     H_    0.208855 0.662670 0.315862 0.113328
H243  H     H_    0.369578 0.617172 0.327308 0.186725
H244  H     H_    0.332500 0.708326 0.328243 0.197882
H245  H     H_    0.253806 0.675432 0.373218 0.146596
H246  H     H_    0.349100 0.660158 0.381365 0.150257
H247  H     H_    0.290820 0.583856 0.372805 0.137657
H248  H     H_    0.563210 0.755832 0.683277 0.162091
H249  H     H_    0.585696 0.712678 0.719065 0.128270
H250  H     H_    0.648090 0.668981 0.654779 0.186373
H251  H     H_    0.617762 0.996539 0.127411 0.137289
H252  H     H_    0.661952 0.621319 0.690898 0.197496
H253  H     H_    0.527134 0.599059 0.694785 0.159899
H254  H     H_    0.567538 0.559676 0.660474 0.145633
H255  H     H_    0.515496 0.642847 0.657420 0.146606
H256  H     H_    0.330257 0.124996 0.333241 0.156918
H257  H     H_    0.271962 0.110860 0.300780 0.096898
H258  H     H_    0.239730 0.215709 0.355562 0.189969
H259  H     H_    0.178672 0.194632 0.324033 0.180710
H260  H     H_    0.177482 0.063522 0.340466 0.138386
H261  H     H_    0.147007 0.123717 0.370942 0.151168
H262  H     H_    0.504401 0.882256 0.372589 0.137295
H263  H     H_    0.237574 0.085352 0.372443 0.149244
H264  H     H_    0.283840 0.566605 0.770505 0.109765
H265  H     H_    0.370777 0.600171 0.756206 0.154107
H266  H     H_    0.286243 0.468665 0.730449 0.205536
H267  H     H_    0.372127 0.502202 0.716129 0.164638
H268  H     H_    0.430299 0.476553 0.767314 0.144307
H269  H     H_    0.388383 0.395792 0.751630 0.142351
H270  H     H_    0.343934 0.445049 0.782453 0.136771
H271  H     H_    0.761023 0.429128 0.320062 0.150413
H272  H     H_    0.791135 0.337338 0.315861 0.113320
O1    O     O_3   0.500000 1.000000 0.750000 -0.446569
O2    O     O_R   0.439140 0.000000 0.180550 -0.547720
O3    O     O_R   1.000000 0.560860 0.819450 -0.547712
O4    O     O_R   1.000000 0.439140 0.180550 -0.556436
O5    O     O_R   0.939140 0.500000 0.319450 -0.556437
O6    O     O_R   0.060860 0.500000 0.680550 -0.547743
O7    O     O_R   0.500000 0.939140 0.319450 -0.547741
O8    O     O_R   0.500000 0.060860 0.680550 -0.556438
O9    O     O_R   0.060860 0.500000 0.319450 -0.556436
O10   O     O_R   0.939140 0.500000 0.680550 -0.547740
O11   O     O_R   0.500000 0.060860 0.319450 -0.547747
O12   O     O_3   0.500000 1.000000 0.250000 -0.457927
O13   O     O_R   0.500000 0.939140 0.680550 -0.556438
O14   O     O_R   0.646030 0.085480 0.768310 -0.526496
O15   O     O_R   0.353970 0.914520 0.231690 -0.506811
O16   O     O_R   0.914520 0.646030 0.768310 -0.523007
O17   O     O_R   0.085480 0.353970 0.231690 -0.526853
O18   O     O_R   0.353970 0.914520 0.768310 -0.526493
O19   O     O_R   0.646030 0.085480 0.231690 -0.506806
O20   O     O_R   0.085480 0.353970 0.768310 -0.522967
O21   O     O_R   0.914520 0.646030 0.231690 -0.526856
O22   O     O_R   0.646030 0.914520 0.231690 -0.522973
O23   O     O_3   1.000000 0.500000 0.750000 -0.457927
O24   O     O_R   0.353970 0.085480 0.768310 -0.526855
O25   O     O_R   0.914520 0.353970 0.231690 -0.526492
O26   O     O_R   0.085480 0.646030 0.768310 -0.506805
O27   O     O_R   0.353970 0.085480 0.231690 -0.522977
O28   O     O_R   0.646030 0.914520 0.768310 -0.526854
O29   O     O_R   0.085480 0.646030 0.231690 -0.526497
O30   O     O_R   0.914520 0.353970 0.768310 -0.506811
O31   O     O_R   0.146030 0.585480 0.268310 -0.526508
O32   O     O_R   0.853970 0.414520 0.731690 -0.506880
O33   O     O_R   0.414520 0.146030 0.268310 -0.522931
O34   O     O_3   1.000000 0.500000 0.250000 -0.446569
O35   O     O_R   0.585480 0.853970 0.731690 -0.526842
O36   O     O_R   0.853970 0.414520 0.268310 -0.526515
O37   O     O_R   0.146030 0.585480 0.731690 -0.506882
O38   O     O_R   0.585480 0.853970 0.268310 -0.522960
O39   O     O_R   0.414520 0.146030 0.731690 -0.526838
O40   O     O_R   0.146030 0.414520 0.731690 -0.522964
O41   O     O_R   0.853970 0.585480 0.268310 -0.526840
O42   O     O_R   0.414520 0.853970 0.731690 -0.526511
O43   O     O_R   0.585480 0.146030 0.268310 -0.506894
O44   O     O_R   0.853970 0.585480 0.731690 -0.522939
O45   O     O_R   0.439140 1.000000 0.819450 -0.556437
O46   O     O_R   0.146030 0.414520 0.268310 -0.526841
O47   O     O_R   0.585480 0.146030 0.731690 -0.526510
O48   O     O_R   0.414520 0.853970 0.268310 -0.506878
O49   O     O_3   0.330975 0.227778 0.696100 -0.543112
O50   O     O_3   0.679062 0.785217 0.305477 -0.544331
O51   O     O_3   0.717687 0.387816 0.726232 -0.534114
O52   O     O_3   0.278240 0.619401 0.280824 -0.542540
O53   O     O_3   0.669028 0.772225 0.696100 -0.543120
O54   O     O_3   0.320954 0.214800 0.305475 -0.544333
O55   O     O_3   0.282314 0.612184 0.726233 -0.534116
O56   O     O_R   0.560860 0.000000 0.180550 -0.547713
O57   O     O_3   0.721755 0.380603 0.280820 -0.542489
O58   O     O_3   0.387816 0.717687 0.273767 -0.534113
O59   O     O_3   0.619399 0.278242 0.719178 -0.542528
O60   O     O_3   0.772223 0.669026 0.303900 -0.543112
O61   O     O_3   0.214788 0.320942 0.694523 -0.544337
O62   O     O_3   0.612184 0.282318 0.273765 -0.534106
O63   O     O_3   0.380602 0.721758 0.719178 -0.542535
O64   O     O_3   0.227788 0.330985 0.303898 -0.543112
O65   O     O_3   0.785222 0.679066 0.694523 -0.544331
O66   O     O_3   0.830972 0.727774 0.196099 -0.543318
O67   O     O_R   1.000000 0.439140 0.819450 -0.547715
O68   O     O_3   0.179046 0.285204 0.805476 -0.544422
O69   O     O_3   0.217682 0.887824 0.226240 -0.534078
O70   O     O_3   0.778253 0.119386 0.780810 -0.542530
O71   O     O_3   0.169014 0.272212 0.196101 -0.543310
O72   O     O_3   0.820947 0.714789 0.805477 -0.544422
O73   O     O_3   0.782315 0.112178 0.226237 -0.534078
O74   O     O_3   0.221749 0.880613 0.780812 -0.542565
O75   O     O_3   0.887823 0.217683 0.773761 -0.534077
O76   O     O_3   0.119386 0.778254 0.219190 -0.542530
O77   O     O_3   0.272220 0.169022 0.803900 -0.543316
O78   O     O_R   1.000000 0.560860 0.180550 -0.556438
O79   O     O_3   0.714789 0.820948 0.194524 -0.544424
O80   O     O_3   0.112177 0.782313 0.773762 -0.534086
O81   O     O_3   0.880610 0.221749 0.219187 -0.542541
O82   O     O_3   0.727775 0.830973 0.803901 -0.543310
O83   O     O_3   0.285185 0.179029 0.194525 -0.544426
O84   O     O_R   0.560860 1.000000 0.819450 -0.556437
Zn1   Zn    Zn3+2 0.500000 0.086800 0.724180 0.928144
Zn2   Zn    Zn3+2 1.000000 0.413200 0.775820 0.931045
Zn3   Zn    Zn3+2 0.413200 0.000000 0.224180 0.931038
Zn4   Zn    Zn3+2 0.586800 1.000000 0.775820 0.928127
Zn5   Zn    Zn3+2 1.000000 0.413200 0.224180 0.928125
Zn6   Zn    Zn3+2 1.000000 0.586800 0.775820 0.931039
Zn7   Zn    Zn3+2 0.586800 0.000000 0.224180 0.931042
Zn8   Zn    Zn3+2 0.413200 1.000000 0.775820 0.928125
Zn9   Zn    Zn3+2 0.500000 0.913200 0.275820 0.930973
Zn10  Zn    Zn3+2 0.913200 0.500000 0.724180 0.930979
Zn11  Zn    Zn3+2 0.086800 0.500000 0.275820 0.928141
Zn12  Zn    Zn3+2 0.500000 0.913200 0.724180 0.928142
Zn13  Zn    Zn3+2 0.500000 0.086800 0.275820 0.930967
Zn14  Zn    Zn3+2 0.086800 0.500000 0.724180 0.930971
Zn15  Zn    Zn3+2 0.913200 0.500000 0.275820 0.928143
Zn16  Zn    Zn3+2 1.000000 0.586800 0.224180 0.928125

loop_
_geom_bond_atom_site_label_1
_geom_bond_atom_site_label_2
_ccdc_geom_bond_type
C112  H112  S    
C28   C47   A    
O16   Zn6   S    
C126  C127  S    
C24   C184  A    
C137  H142  S    
C55   C56   S    
C114  C115  S    
C68   C176  A    
C215  O78   A    
C178  C215  S    
C135  C173  A    
C180  C213  S    
C96   H50   S    
C113  C210  S    
C54   H224  S    
C43   C236  S    
C126  O73   S    
O40   Zn14  S    
C21   C33   A    
C106  C107  S    
O10   Zn10  S    
C18   O68   S    
C212  O45   A    
O24   Zn8   S    
C183  C216  S    
C197  H229  S    
C108  C109  S    
C51   C235  S    
C24   C171  A    
O37   Zn14  S    
C12   C42   A    
C153  H181  S    
C124  C168  A    
O5    Zn15  S    
C110  H82   S    
C103  H65   S    
C80   H11   S    
C141  H153  S    
C232  O36   A    
O34   Zn16  S    
O22   Zn7   S    
O41   Zn15  S    
C194  H168  S    
C193  H157  S    
C87   H28   S    
C115  H92   S    
C127  H119  S    
C59   C60   S    
C35   H35   S    
C142  O79   S    
C89   H33   S    
C35   C172  A    
C155  H186  S    
C84   H22   S    
C111  C114  S    
C8    C38   A    
C85   H23   S    
C118  H97   S    
C143  H159  S    
C192  H146  S    
C69   H256  S    
C61   H237  S    
O48   Zn9   S    
C109  H80   S    
C46   H46   S    
O43   Zn13  S    
C5    O54   S    
C1    C159  A    
O17   Zn5   S    
O34   Zn11  S    
C99   H56   S    
C25   C41   A    
C131  H131  S    
O13   Zn12  S    
C54   H222  S    
C33   C50   A    
C101  C211  S    
C221  O14   A    
C72   O55   S    
C29   C45   A    
C73   H267  S    
C23   C31   A    
C91   H38   S    
C75   C76   S    
C78   O58   S    
C102  H62   S    
C47   C238  A    
C124  C172  A    
C85   O60   S    
O23   Zn6   S    
C114  H88   S    
C111  H85   S    
C164  C179  A    
C231  O24   A    
C138  H144  S    
C65   H249  S    
C149  H172  S    
C213  O56   A    
C31   C48   A    
C90   C165  A    
C199  C204  A    
C232  O25   A    
C97   H53   S    
O26   Zn6   S    
C86   H26   S    
C30   C49   A    
O6    Zn14  S    
C32   O82   S    
C112  C178  A    
O4    Zn5   S    
C234  O33   A    
C68   C184  A    
C112  C160  A    
C92   O62   S    
C72   C73   S    
C11   O61   S    
C53   H221  S    
C139  C140  S    
C162  C175  A    
C129  H126  S    
C35   C181  A    
C116  O70   S    
O25   Zn5   S    
C31   O81   S    
C168  H209  S    
C7    C48   A    
C156  C158  S    
C233  O26   A    
C37   C221  S    
C157  C171  A    
C128  H122  S    
C154  H184  S    
C119  H100  S    
C176  H216  S    
C146  C174  A    
C145  H163  S    
C130  C131  S    
O33   Zn13  S    
C139  H149  S    
C196  C206  A    
C69   C70   S    
C132  H133  S    
C5    C15   A    
C53   H220  S    
O44   Zn10  S    
C2    C169  A    
C102  O65   S    
C107  H75   S    
C195  C203  A    
C88   C89   S    
C144  H162  S    
C75   H272  S    
C187  C207  A    
C155  C156  S    
C132  O75   S    
C62   H242  S    
C121  H105  S    
C221  O47   A    
C225  O42   A    
C95   H48   S    
C154  H185  S    
C117  H95   S    
C131  H130  S    
C215  O4    A    
O32   Zn10  S    
C61   H239  S    
C231  O39   A    
C147  C148  S    
C133  H134  S    
C26   C44   A    
C172  H213  S    
C53   C54   S    
C199  H195  S    
C22   C32   A    
C21   O71   S    
O3    Zn6   S    
C158  H192  S    
C91   H36   S    
C73   H266  S    
C57   H57   S    
C189  C210  A    
C201  H198  S    
C105  O66   S    
C123  H110  S    
C78   C80   S    
C214  O3    A    
C83   H18   S    
C91   H37   S    
C196  H190  S    
C198  H194  S    
C217  O6    A    
C150  H174  S    
C173  H214  S    
C125  H115  S    
C194  C200  A    
O46   Zn11  S    
C171  H212  S    
C239  O50   S    
C78   H8    S    
C169  H210  S    
C17   C36   A    
C89   C91   S    
C235  O28   A    
C66   C67   S    
C102  H63   S    
C10   C239  A    
C80   H10   S    
C70   H258  S    
C55   H226  S    
C110  H84   S    
C130  H128  S    
C101  C166  A    
C44   C240  A    
C167  C219  A    
C93   H42   S    
C126  H118  S    
C94   H45   S    
C195  C199  A    
C42   C226  S    
C7    C12   A    
C108  H77   S    
C3    C8    A    
C74   H269  S    
C4    C51   A    
C155  H187  S    
C76   H3    S    
C18   C28   A    
O21   Zn16  S    
C236  O29   A    
C179  C212  S    
O23   Zn2   S    
C152  H178  S    
C125  H114  S    
C97   H51   S    
C58   H232  S    
C104  H67   S    
C92   H40   S    
C10   O60   S    
C45   C239  A    
C224  O17   A    
C214  O67   A    
C6    C14   A    
C2    H2    S    
C88   H31   S    
C83   C84   S    
C148  H167  S    
C95   O63   S    
C181  C230  A    
C201  C206  A    
C194  C204  A    
C155  O83   S    
C191  C207  A    
C81   H15   S    
C100  H59   S    
C167  H208  S    
C121  H107  S    
C1    H1    S    
C134  H139  S    
C14   C41   A    
C226  O43   A    
C103  H64   S    
O56   Zn7   S    
C178  C197  A    
C188  C193  A    
C56   H228  S    
C175  H207  S    
C133  H136  S    
C27   O76   S    
C52   C53   S    
C98   O64   S    
C129  C130  S    
O12   Zn3   S    
C68   H68   S    
C136  C137  S    
C216  O5    A    
C10   C36   A    
C3    O52   S    
C185  H79   S    
C175  C180  A    
C230  H262  S    
O23   Zn10  S    
C84   H21   S    
C46   C182  A    
C60   H236  S    
C20   C26   A    
C117  C118  S    
C105  H71   S    
C20   C37   A    
C106  H72   S    
C193  C210  A    
C21   C40   A    
C95   H47   S    
C14   O63   S    
O38   Zn9   S    
C144  H160  S    
C56   C58   S    
C102  C103  S    
C156  H189  S    
C157  C176  A    
C63   C64   S    
C136  O76   S    
C147  H166  S    
C152  C153  S    
C59   H233  S    
C60   H235  S    
C138  H147  S    
C180  C219  A    
C166  H206  S    
C132  H132  S    
C189  H113  S    
C106  H73   S    
C66   H252  S    
C94   H43   S    
C115  H91   S    
C64   H246  S    
C188  H101  S    
C17   C29   A    
C73   C74   S    
O12   Zn7   S    
C82   O59   S    
C118  H98   S    
C39   C223  S    
C133  C134  S    
C61   H238  S    
C236  O31   A    
C140  H150  S    
C111  O69   S    
C11   C238  A    
C152  H180  S    
C166  C208  A    
C163  C186  A    
O42   Zn12  S    
C55   O50   S    
O47   Zn1   S    
C94   H44   S    
C52   H217  S    
C87   H30   S    
C79   C159  A    
C88   O61   S    
C70   H259  S    
C123  C125  S    
C148  H169  S    
C98   C99   S    
C77   H6    S    
C100  H61   S    
C50   C234  S    
C187  C190  A    
C202  H199  S    
C134  H137  S    
C228  O41   A    
C191  H135  S    
C123  H111  S    
C145  O80   S    
C116  H93   S    
C149  O81   S    
C13   C183  A    
C202  C205  A    
O20   Zn2   S    
C212  O84   A    
C83   H19   S    
C70   C71   S    
C228  O21   A    
O9    Zn11  S    
C67   H254  S    
C140  H151  S    
C52   H219  S    
C30   O80   S    
C151  H176  S    
O1    Zn4   S    
C149  H171  S    
C223  O16   A    
C198  C205  A    
C20   O70   S    
C137  H143  S    
C122  H108  S    
C86   H27   S    
C23   O73   S    
C119  O71   S    
C22   O72   S    
C145  C147  S    
C185  C191  A    
C90   C160  A    
C229  O38   A    
O7    Zn9   S    
C41   C225  S    
C216  O9    A    
C96   H49   S    
C54   H223  S    
C128  H121  S    
C86   C87   S    
C80   C81   S    
C129  H125  S    
O35   Zn12  S    
C104  H66   S    
C141  H152  S    
C60   C61   S    
C122  H109  S    
C32   C51   A    
C62   C63   S    
C19   C38   A    
C165  C197  A    
C153  H182  S    
C108  O68   S    
C225  O18   A    
C71   H263  S    
C108  H78   S    
C141  H154  S    
C59   O51   S    
O34   Zn15  S    
C46   C173  A    
C157  C205  S    
C75   O57   S    
C140  C141  S    
C28   O77   S    
C85   C86   S    
C66   H250  S    
C115  H89   S    
C184  C217  S    
C124  C204  S    
C217  O10   A    
O1    Zn8   S    
C75   H271  S    
C240  O51   S    
O78   Zn16  S    
C170  H211  S    
C5    C50   A    
C19   O69   S    
O39   Zn1   S    
C81   H12   S    
C127  C128  S    
C161  C164  A    
C142  H155  S    
C186  H218  S    
C119  H102  S    
C227  O40   A    
C131  H129  S    
C25   C30   A    
C79   C209  S    
C179  C208  A    
C136  H140  S    
O67   Zn2   S    
C82   H16   S    
O29   Zn16  S    
C122  O72   S    
C22   C39   A    
C177  C214  S    
C116  H94   S    
O84   Zn4   S    
C151  H177  S    
C33   O83   S    
C113  C167  A    
C135  C203  S    
C119  C120  S    
C59   H234  S    
C105  C106  S    
C58   H230  S    
C38   C222  S    
C89   H34   S    
C143  C144  S    
O14   Zn4   S    
C149  C150  S    
C58   H231  S    
C120  H103  S    
C187  H90   S    
O31   Zn11  S    
C237  O30   A    
C92   C93   S    
C200  H197  S    
O36   Zn15  S    
C114  H87   S    
C135  C169  A    
C111  H86   S    
C62   O52   S    
C15   C40   A    
O19   Zn7   S    
C177  C186  A    
C16   C39   A    
C57   C174  A    
C27   C43   A    
C120  H104  S    
C82   C83   S    
C103  C104  S    
C78   H9    S    
C142  C143  S    
C63   H243  S    
C77   H7    S    
C156  H188  S    
O30   Zn2   S    
C222  O48   A    
C163  H204  S    
C227  O20   A    
C182  C220  S    
C161  H202  S    
C218  O7    A    
C4    O53   S    
C55   H225  S    
C95   C96   S    
C6    O55   S    
C146  C206  S    
C44   C237  S    
C128  H123  S    
C93   H41   S    
C218  O11   A    
C220  O8    A    
C220  O13   A    
C233  O37   A    
C3    C43   A    
C17   O66   S    
C74   H270  S    
C23   C42   A    
C129  O74   S    
C40   C224  S    
C222  O15   A    
C76   H4    S    
C190  C209  A    
O8    Zn1   S    
O1    Zn12  S    
C213  O2    A    
C188  C211  A    
C154  H183  S    
C47   C231  S    
C226  O19   A    
C71   H261  S    
C158  H193  S    
C136  H141  S    
C145  H164  S    
C116  C117  S    
C25   O74   S    
C2    C182  A    
C110  H83   S    
O45   Zn8   S    
C49   C233  S    
C65   H248  S    
C8    O58   S    
C113  C162  A    
C1    C177  A    
C107  H76   S    
C88   H32   S    
C144  H161  S    
O28   Zn4   S    
C64   H247  S    
C15   O64   S    
C81   H14   S    
C100  H60   S    
C62   H241  S    
C19   C27   A    
C223  O44   A    
C77   H5    S    
C117  H96   S    
C72   H264  S    
C36   C228  S    
C65   O53   S    
C82   H17   S    
C98   H55   S    
C69   H257  S    
C98   H54   S    
C45   C229  S    
C9    C240  A    
C67   H255  S    
C4    C16   A    
C26   O75   S    
O1    Zn1   S    
C138  H145  S    
C190  H124  S    
C85   H25   S    
C158  H191  S    
C76   C77   S    
C234  O27   A    
C142  H156  S    
C52   O49   S    
C132  C133  S    
C237  O32   A    
C9    O59   S    
C189  C192  A    
C192  C211  A    
C109  H81   S    
C150  H173  S    
C105  H70   S    
C125  H116  S    
C12   O62   S    
C74   H268  S    
C99   C100  S    
C29   O79   S    
C69   O54   S    
C13   H13   S    
C96   C97   S    
C24   H24   S    
C198  C201  A    
C9    C37   A    
C104  H69   S    
O12   Zn13  S    
O2    Zn3   S    
C93   C94   S    
O27   Zn3   S    
C18   C34   A    
C63   H244  S    
C224  O46   A    
C13   C170  A    
C147  H165  S    
C235  O35   A    
C71   H260  S    
C146  C170  A    
C162  H203  S    
C130  H127  S    
C208  H240  S    
C196  C202  A    
C143  H158  S    
C195  H179  S    
C229  O22   A    
C57   C183  A    
C126  H117  S    
O15   Zn3   S    
C121  H106  S    
C127  H120  S    
C150  C151  S    
C84   H20   S    
C11   C34   A    
C159  H200  S    
C79   C163  A    
C118  H99   S    
C165  H205  S    
C72   H265  S    
C137  C138  S    
C164  H196  S    
O11   Zn13  S    
C97   H52   S    
O18   Zn8   S    
C139  H148  S    
C92   H39   S    
C101  C161  A    
C34   C227  S    
C153  C154  S    
O34   Zn5   S    
C99   H58   S    
C87   H29   S    
C107  H74   S    
C64   H245  S    
C148  H170  S    
C160  H201  S    
C200  C203  A    
C7    O57   S    
C185  C209  A    
C6    C49   A    
O12   Zn9   S    
C174  H215  S    
C134  H138  S    
C168  C230  A    
C90   C207  S    
C48   C232  S    
C219  H251  S    
O23   Zn14  S    
C56   H227  S    
C65   C66   S    
C109  C110  S    
C181  C218  S    
C152  O82   S    
C120  C121  S    
C16   O65   S    
C139  O77   S    
C238  O49   S    
C122  C123  S    
C67   H253  S    
C151  H175  S    
