data_mof_unit_9666.cif
_audit_creation_date              2012-12-11T14:24:47-0500
_audit_creation_method            fapswitch 2.2
_symmetry_space_group_name_H-M    P1
_symmetry_Int_Tables_number       1
_space_group_crystal_system       triclinic
_cell_length_a                    19.026487
_cell_length_b                    11.132092
_cell_length_c                    18.792944
_cell_angle_alpha                 89.842287
_cell_angle_beta                  90.544621
_cell_angle_gamma                 89.485649
_cell_volume                      3980.07582477

loop_
_atom_site_label
_atom_site_type_symbol
_atom_type_description
_atom_site_fract_x
_atom_site_fract_y
_atom_site_fract_z
_atom_type_partial_charge
C1    C     C_R   0.727641 0.366454 0.142549 0.539615
C2    C     C_R   0.272011 0.367101 0.857099 0.527460
C3    C     C_R   0.227641 0.866454 0.142549 0.539614
C4    C     C_R   0.772011 0.867101 0.857099 0.527460
C5    C     C_3   0.472938 0.069193 0.029753 0.011855
C6    C     C_3   0.527469 0.068631 0.970982 0.011046
C7    C     C_3   0.972938 0.569193 0.029753 0.011854
C8    C     C_3   0.027470 0.568631 0.970982 0.011046
C9    C     C_R   0.759189 0.880934 0.934671 -0.019132
C10   C     C_R   0.240264 0.879291 0.064960 -0.019376
C11   C     C_R   0.259189 0.380934 0.934671 -0.019132
C12   C     C_R   0.740264 0.379291 0.064960 -0.019376
C13   C     C_R   0.707337 0.815960 0.974805 0.005210
C14   C     C_R   0.293797 0.815698 0.025653 0.006509
C15   C     C_R   0.207337 0.315961 0.974805 0.005210
C16   C     C_R   0.793796 0.315698 0.025653 0.006509
C17   C     C_R   0.708110 0.826015 0.050681 0.009415
C18   C     C_R   0.293590 0.825736 0.949794 0.010634
C19   C     C_R   0.208110 0.326015 0.050681 0.009415
C20   C     C_R   0.793590 0.325736 0.949794 0.010634
C21   C     C_R   0.813974 0.943175 0.045271 -0.156796
C22   C     C_R   0.185132 0.939448 0.953653 -0.155948
C23   C     C_R   0.313973 0.443175 0.045271 -0.156796
C24   C     C_R   0.685132 0.439447 0.953653 -0.155948
C25   C     C_R   0.813748 0.936554 0.972403 -0.147339
C26   C     C_R   0.184606 0.932305 0.026545 -0.146975
C27   C     C_R   0.313748 0.436554 0.972403 -0.147339
C28   C     C_R   0.684606 0.432305 0.026545 -0.146975
C29   C     C_R   0.654661 0.741813 0.943870 -0.105384
C30   C     C_R   0.347528 0.742799 0.057405 -0.107369
C31   C     C_R   0.154661 0.241813 0.943870 -0.105384
C32   C     C_R   0.847528 0.242799 0.057405 -0.107369
C33   C     C_R   0.104249 0.185517 0.985719 -0.161523
C34   C     C_R   0.899163 0.187005 0.016278 -0.164509
C35   C     C_R   0.604249 0.685517 0.985719 -0.161522
C36   C     C_R   0.399163 0.687005 0.016278 -0.164509
C37   C     C_R   0.607103 0.694082 0.059182 -0.136283
C38   C     C_R   0.396986 0.695761 0.942778 -0.139380
C39   C     C_R   0.107103 0.194082 0.059182 -0.136283
C40   C     C_R   0.896986 0.195761 0.942778 -0.139380
C41   C     C_R   0.659884 0.759912 0.091539 -0.082755
C42   C     C_R   0.343488 0.760850 0.909659 -0.084515
C43   C     C_R   0.159884 0.259912 0.091539 -0.082755
C44   C     C_R   0.843489 0.260850 0.909659 -0.084515
C45   C     C_R   0.532995 0.156122 0.144494 0.547444
C46   C     C_R   0.466863 0.155468 0.855541 0.542081
C47   C     C_R   0.032995 0.656123 0.144494 0.547444
C48   C     C_R   0.966863 0.655468 0.855541 0.542081
C49   C     C_R   0.757591 0.901934 0.084016 -0.016033
C50   C     C_R   0.243014 0.900539 0.915785 -0.016432
C51   C     C_R   0.257591 0.401934 0.084016 -0.016033
C52   C     C_R   0.743014 0.400539 0.915785 -0.016431
C53   C     C_R   0.494801 0.167749 0.575592 0.001161
C54   C     C_R   0.509400 0.148238 0.428062 0.004253
C55   C     C_R   0.994795 0.667747 0.575590 0.001169
C56   C     C_R   0.009399 0.648235 0.428062 0.004270
C57   C     C_R   0.534632 0.072266 0.547926 0.018512
C58   C     C_R   0.530873 0.050750 0.474280 0.033426
C59   C     C_R   0.034632 0.572268 0.547926 0.018515
C60   C     C_R   0.030877 0.550751 0.474280 0.033427
C61   C     C_R   0.470573 0.242672 0.456082 -0.168257
C62   C     C_R   0.459662 0.247902 0.528982 -0.147905
C63   C     C_R   0.970563 0.742660 0.456078 -0.168256
C64   C     C_R   0.959649 0.747889 0.528979 -0.147913
C65   C     C_R   0.567062 0.986382 0.593319 -0.090155
C66   C     C_R   0.540862 0.929373 0.452116 -0.089237
C67   C     C_R   0.067065 0.486391 0.593320 -0.090159
C68   C     C_R   0.040875 0.429375 0.452118 -0.089239
C69   C     C_R   0.076533 0.369185 0.570414 -0.117905
C70   C     C_R   0.061241 0.339938 0.500378 -0.145794
C71   C     C_R   0.576524 0.869175 0.570411 -0.117905
C72   C     C_R   0.561227 0.839932 0.500375 -0.145797
C73   C     C_R   0.751375 0.910319 0.573594 -0.012002
C74   C     C_R   0.219171 0.858418 0.435723 -0.003265
C75   C     C_R   0.251376 0.410317 0.573594 -0.011993
C76   C     C_R   0.719167 0.358406 0.435725 -0.003277
C77   C     C_R   0.784245 0.010361 0.544377 0.016223
C78   C     C_R   0.162075 0.888384 0.480965 0.010303
C79   C     C_R   0.284238 0.510366 0.544380 0.016225
C80   C     C_R   0.662072 0.388393 0.480963 0.010311
C81   C     C_R   0.802211 0.004812 0.472817 0.023568
C82   C     C_R   0.175509 0.894474 0.554396 0.009202
C83   C     C_R   0.302205 0.504825 0.472820 0.023567
C84   C     C_R   0.675504 0.394485 0.554395 0.009201
C85   C     C_R   0.727793 0.828390 0.455898 -0.035348
C86   C     C_R   0.300444 0.912299 0.527212 -0.043484
C87   C     C_R   0.227800 0.328388 0.455897 -0.035355
C88   C     C_R   0.800444 0.412253 0.527219 -0.043476
C89   C     C_R   0.743528 0.964729 0.151281 0.532156
C90   C     C_R   0.256681 0.964192 0.848714 0.530523
C91   C     C_R   0.243528 0.464729 0.151281 0.532156
C92   C     C_R   0.756681 0.464192 0.848714 0.530524
C93   C     C_R   0.726568 0.817277 0.529395 -0.124458
C94   C     C_R   0.287672 0.869037 0.460317 -0.114337
C95   C     C_R   0.226575 0.317271 0.529395 -0.124465
C96   C     C_R   0.787668 0.368988 0.460325 -0.114333
C97   C     C_R   0.810735 0.103619 0.587576 -0.077262
C98   C     C_R   0.094557 0.925388 0.456650 -0.107690
C99   C     C_R   0.310720 0.603630 0.587580 -0.077275
C100  C     C_R   0.594557 0.425409 0.456645 -0.107685
C101  C     C_R   0.867844 0.169746 0.565338 -0.106027
C102  C     C_R   0.044431 0.966793 0.504323 -0.147382
C103  C     C_R   0.367820 0.669778 0.565342 -0.106033
C104  C     C_R   0.544432 0.466829 0.504316 -0.147393
C105  C     C_R   0.893405 0.154087 0.497105 -0.149830
C106  C     C_R   0.054566 0.950832 0.576883 -0.104638
C107  C     C_R   0.393386 0.654121 0.497110 -0.149817
C108  C     C_R   0.554564 0.450871 0.576877 -0.104642
C109  C     C_R   0.861234 0.072850 0.451047 -0.096291
C110  C     C_R   0.118280 0.905112 0.601589 -0.083572
C111  C     C_R   0.361224 0.572875 0.451051 -0.096281
C112  C     C_R   0.618274 0.405138 0.601586 -0.083561
C113  C     C_R   0.761933 0.927715 0.427141 0.019379
C114  C     C_R   0.245407 0.912897 0.577170 0.014772
C115  C     C_R   0.261933 0.427721 0.427143 0.019385
C116  C     C_R   0.745403 0.412887 0.577172 0.014759
C117  C     C_R   0.710425 0.331755 0.361234 0.567772
C118  C     C_R   0.269017 0.377759 0.645855 0.529551
C119  C     C_R   0.210426 0.831757 0.361235 0.567768
C120  C     C_R   0.769017 0.877760 0.645855 0.529552
C121  C     C_R   0.534176 0.154329 0.354197 0.539039
C122  C     C_R   0.467547 0.157865 0.647525 0.520747
C123  C     C_R   0.034176 0.654328 0.354196 0.539039
C124  C     C_R   0.967545 0.657864 0.647524 0.520757
C125  C     C_R   0.744470 0.970494 0.355701 0.541589
C126  C     C_R   0.257491 0.969920 0.644757 0.531631
C127  C     C_R   0.244470 0.470496 0.355701 0.541590
C128  C     C_R   0.757491 0.469920 0.644756 0.531645
C129  C     C_3   0.527827 0.265024 0.969726 -0.136587
C130  C     C_3   0.470872 0.265592 0.029499 -0.136161
C131  C     C_3   0.027827 0.765024 0.969726 -0.136587
C132  C     C_3   0.970872 0.765592 0.029499 -0.136161
C133  C     C_3   0.568687 0.165040 0.010596 -0.005024
C134  C     C_3   0.430920 0.165242 0.989361 -0.003789
C135  C     C_3   0.068687 0.665040 0.010596 -0.005024
C136  C     C_3   0.930920 0.665242 0.989361 -0.003789
C137  C     C_3   0.512648 0.165897 0.069268 0.060269
C138  C     C_3   0.486983 0.164916 0.930752 0.061856
C139  C     C_3   0.012648 0.665897 0.069268 0.060269
C140  C     C_3   0.986983 0.664916 0.930752 0.061856
Cr1   Cr    Cr6+3 0.772820 0.169820 0.252640 0.983764
Cr2   Cr    Cr6+3 0.227180 0.169820 0.747360 0.978139
Cr3   Cr    Cr6+3 0.272820 0.669820 0.252640 0.983763
Cr4   Cr    Cr6+3 0.727180 0.669820 0.747360 0.978143
Cr5   Cr    Cr6+3 0.615040 0.323610 0.249150 0.983751
Cr6   Cr    Cr6+3 0.384960 0.323610 0.750850 0.991061
Cr7   Cr    Cr6+3 0.115040 0.823610 0.249150 0.983751
Cr8   Cr    Cr6+3 0.884960 0.823610 0.750850 0.991061
Cr9   Cr    Cr6+3 0.616720 0.011130 0.250660 0.984655
Cr10  Cr    Cr6+3 0.383280 0.011130 0.749340 0.981367
Cr11  Cr    Cr6+3 0.116720 0.511130 0.250660 0.984654
Cr12  Cr    Cr6+3 0.883280 0.511130 0.749340 0.981364
H1    H     H_    0.448466 0.311800 0.421651 0.113202
H2    H     H_    0.424095 0.316162 0.549061 0.151304
H3    H     H_    0.948451 0.811782 0.421647 0.113196
H4    H     H_    0.924078 0.816142 0.549056 0.151300
H5    H     H_    0.578226 0.006243 0.648653 0.122583
H6    H     H_    0.526186 0.896769 0.400253 0.142988
H7    H     H_    0.078227 0.506255 0.648655 0.122582
H8    H     H_    0.026204 0.396767 0.400254 0.142996
H9    H     H_    0.094338 0.300452 0.607407 0.127117
H10   H     H_    0.065873 0.247535 0.483183 0.107737
H11   H     H_    0.594327 0.800439 0.607402 0.127110
H12   H     H_    0.565855 0.747530 0.483179 0.107735
H13   H     H_    0.792216 0.116835 0.641361 0.117145
H14   H     H_    0.078908 0.930342 0.401813 0.166562
H15   H     H_    0.292199 0.616838 0.641365 0.117139
H16   H     H_    0.578908 0.430358 0.401809 0.166562
H17   H     H_    0.707190 0.734476 0.552153 0.150918
H18   H     H_    0.331648 0.859352 0.424449 0.146587
H19   H     H_    0.207202 0.234465 0.552151 0.150916
H20   H     H_    0.831646 0.359277 0.424460 0.146604
H21   H     H_    0.893266 0.230309 0.601989 0.114371
H22   H     H_    0.994857 0.999664 0.484308 0.110437
H23   H     H_    0.393231 0.730358 0.601991 0.114399
H24   H     H_    0.494861 0.499712 0.484300 0.110423
H25   H     H_    0.938480 0.204279 0.479784 0.102378
H26   H     H_    0.012815 0.972106 0.613635 0.126306
H27   H     H_    0.438457 0.704326 0.479790 0.102382
H28   H     H_    0.512813 0.472155 0.613627 0.126295
H29   H     H_    0.886930 0.058347 0.400744 0.133301
H30   H     H_    0.124788 0.891713 0.658371 0.122805
H31   H     H_    0.386923 0.558378 0.400750 0.133302
H32   H     H_    0.624779 0.391737 0.658368 0.122811
H33   H     H_    0.549656 0.345262 0.943372 0.102661
H34   H     H_    0.448462 0.346339 0.055238 0.104196
H35   H     H_    0.049656 0.845262 0.943372 0.102661
H36   H     H_    0.948462 0.846338 0.055238 0.104196
H37   H     H_    0.856977 0.987721 0.071627 0.139809
H38   H     H_    0.141512 0.982868 0.926648 0.136230
H39   H     H_    0.356977 0.487721 0.071627 0.139809
H40   H     H_    0.641512 0.482867 0.926647 0.136230
H41   H     H_    0.645309 0.733353 0.887875 0.167241
H42   H     H_    0.356357 0.734241 0.113528 0.166337
H43   H     H_    0.145309 0.233353 0.887875 0.167241
H44   H     H_    0.856357 0.234241 0.113528 0.166337
H45   H     H_    0.859273 0.971219 0.945815 0.161072
H46   H     H_    0.137837 0.964434 0.052624 0.157801
H47   H     H_    0.359273 0.471219 0.945815 0.161072
H48   H     H_    0.637837 0.464433 0.052624 0.157801
H49   H     H_    0.062296 0.135319 0.960777 0.095229
H50   H     H_    0.941425 0.136881 0.041843 0.096687
H51   H     H_    0.562296 0.635319 0.960777 0.095229
H52   H     H_    0.441425 0.636881 0.041843 0.096687
H53   H     H_    0.069037 0.147439 0.091298 0.103234
H54   H     H_    0.936023 0.149525 0.911212 0.102119
H55   H     H_    0.569037 0.647439 0.091298 0.103234
H56   H     H_    0.436023 0.649525 0.911212 0.102119
H57   H     H_    0.663205 0.756430 0.148955 0.133484
H58   H     H_    0.340836 0.757365 0.852231 0.130876
H59   H     H_    0.163205 0.256430 0.148955 0.133484
H60   H     H_    0.840836 0.257365 0.852231 0.130875
O1    O     O_R   0.788190 0.043000 0.172520 -0.534548
O2    O     O_R   0.211810 0.043000 0.827480 -0.535915
O3    O     O_R   0.288190 0.543000 0.172520 -0.534547
O4    O     O_R   0.711810 0.543000 0.827480 -0.535916
O5    O     O_R   0.556550 0.253260 0.323480 -0.529834
O6    O     O_R   0.443450 0.253260 0.676520 -0.508676
O7    O     O_R   0.056550 0.753260 0.323480 -0.529835
O8    O     O_R   0.943450 0.753260 0.676520 -0.508677
O9    O     O_R   0.545830 0.051610 0.330160 -0.535999
O10   O     O_R   0.454170 0.051610 0.669840 -0.537070
O11   O     O_R   0.045830 0.551610 0.330160 -0.536001
O12   O     O_R   0.954170 0.551610 0.669840 -0.537078
O13   O     O_R   0.681920 0.959720 0.327070 -0.502465
O14   O     O_R   0.318080 0.959720 0.672930 -0.515853
O15   O     O_R   0.181920 0.459720 0.327070 -0.502467
O16   O     O_R   0.818080 0.459720 0.672930 -0.515858
O17   O     O_3   0.668190 0.168190 0.250820 -0.266898
O18   O     O_3   0.331810 0.168190 0.749180 -0.245196
O19   O     O_3   0.168190 0.668190 0.250820 -0.266896
O20   O     O_3   0.831810 0.668190 0.749180 -0.245192
O21   O     O_R   0.766240 0.292300 0.176860 -0.517361
O22   O     O_R   0.233760 0.292300 0.823140 -0.523329
O23   O     O_R   0.266240 0.792300 0.176860 -0.517362
O24   O     O_R   0.733760 0.792300 0.823140 -0.523330
O25   O     O_R   0.670310 0.409160 0.168720 -0.521970
O26   O     O_R   0.329690 0.409160 0.831280 -0.526874
O27   O     O_R   0.170310 0.909160 0.168720 -0.521969
O28   O     O_R   0.829690 0.909160 0.831280 -0.526875
O29   O     O_R   0.556160 0.251900 0.173380 -0.512382
O30   O     O_R   0.443840 0.251900 0.826620 -0.512390
O31   O     O_R   0.056160 0.751900 0.173380 -0.512382
O32   O     O_R   0.943840 0.751900 0.826620 -0.512390
O33   O     O_R   0.545410 0.050140 0.168240 -0.520045
O34   O     O_R   0.454590 0.050140 0.831760 -0.523083
O35   O     O_R   0.045410 0.550140 0.168240 -0.520044
O36   O     O_R   0.954590 0.550140 0.831760 -0.523083
O37   O     O_R   0.681530 0.958350 0.176970 -0.511511
O38   O     O_R   0.318470 0.958350 0.823030 -0.511675
O39   O     O_R   0.181530 0.458350 0.176970 -0.511511
O40   O     O_R   0.818470 0.458350 0.823030 -0.511676
O41   O     O_R   0.788610 0.044480 0.334450 -0.546698
O42   O     O_R   0.211390 0.044480 0.665550 -0.533930
O43   O     O_R   0.288610 0.544480 0.334450 -0.546700
O44   O     O_R   0.711390 0.544480 0.665550 -0.533931
O45   O     O_R   0.766630 0.293670 0.326970 -0.505798
O46   O     O_R   0.233370 0.293670 0.673030 -0.515707
O47   O     O_R   0.266630 0.793670 0.326970 -0.505795
O48   O     O_R   0.733370 0.793670 0.673030 -0.515702
O49   O     O_R   0.670730 0.410640 0.330640 -0.541785
O50   O     O_R   0.329270 0.410640 0.669360 -0.522721
O51   O     O_R   0.170730 0.910640 0.330640 -0.541786
O52   O     O_R   0.829270 0.910640 0.669360 -0.522724
C141  C     C_3   0.646900 0.148903 0.022558 -0.364125
H61   H     H_    0.662414 0.194201 0.072069 0.158299
H62   H     H_    0.659192 0.052944 0.030124 0.146126
H63   H     H_    0.675861 0.181533 0.975648 0.141337
C142  C     C_3   0.352947 0.148734 0.977221 -0.362313
H64   H     H_    0.337055 0.194584 0.927759 0.160030
H65   H     H_    0.341676 0.052831 0.969341 0.145177
H66   H     H_    0.323632 0.180577 0.024175 0.142558
C143  C     C_3   0.146900 0.648904 0.022558 -0.364125
H67   H     H_    0.162414 0.694201 0.072069 0.158299
H68   H     H_    0.159192 0.552944 0.030124 0.146125
H69   H     H_    0.175861 0.681534 0.975648 0.141336
C144  C     C_3   0.852947 0.648733 0.977221 -0.362313
H70   H     H_    0.837055 0.694584 0.927759 0.160030
H71   H     H_    0.841676 0.552831 0.969341 0.145177
H72   H     H_    0.823632 0.680577 0.024175 0.142559
C145  C     C_3   0.699432 0.729102 0.409572 -0.383585
H73   H     H_    0.652580 0.760442 0.379093 0.150071
H74   H     H_    0.740564 0.698759 0.371969 0.139495
H75   H     H_    0.683666 0.650169 0.441750 0.136592
C146  C     C_3   0.369369 0.974686 0.538382 -0.350568
H76   H     H_    0.359208 0.066569 0.558717 0.157186
H77   H     H_    0.403888 0.923179 0.575048 0.178857
H78   H     H_    0.397806 0.985695 0.487686 0.114847
C147  C     C_3   0.199444 0.229096 0.409570 -0.383590
H79   H     H_    0.152591 0.260431 0.379090 0.150067
H80   H     H_    0.240578 0.198761 0.371968 0.139492
H81   H     H_    0.183680 0.150161 0.441746 0.136594
C148  C     C_3   0.869381 0.474605 0.538389 -0.350567
H82   H     H_    0.859232 0.566516 0.558677 0.157167
H83   H     H_    0.903874 0.423131 0.575091 0.178879
H84   H     H_    0.897843 0.485520 0.487705 0.114838
C149  C     C_3   0.443508 0.957157 0.061319 -0.396141
H85   H     H_    0.485377 0.901060 0.086456 0.160195
H86   H     H_    0.401656 0.979279 0.100007 0.136847
H87   H     H_    0.422341 0.910026 0.014961 0.162946
C150  C     C_3   0.557330 0.955927 0.940118 -0.398045
H88   H     H_    0.515731 0.900837 0.914914 0.160091
H89   H     H_    0.599338 0.977048 0.901591 0.133537
H90   H     H_    0.578202 0.908444 0.986886 0.163784
C151  C     C_3   0.943508 0.457157 0.061318 -0.396141
H91   H     H_    0.985377 0.401060 0.086456 0.160195
H92   H     H_    0.901657 0.479279 0.100007 0.136848
H93   H     H_    0.922341 0.410026 0.014960 0.162946
C152  C     C_3   0.057330 0.455927 0.940118 -0.398045
H94   H     H_    0.015731 0.400837 0.914914 0.160090
H95   H     H_    0.099338 0.477049 0.901591 0.133537
H96   H     H_    0.078202 0.408445 0.986886 0.163784

loop_
_geom_bond_atom_site_label_1
_geom_bond_atom_site_label_2
_ccdc_geom_bond_type
C99   C103  A    
C124  O8    A    
C133  C137  S    
C129  H33   S    
C4    O24   A    
Cr11  O15   S    
C73   C93   A    
C136  C140  S    
C132  H36   S    
C47   O35   A    
C75   C95   A    
C112  H32   S    
C150  H88   S    
C134  C142  S    
C135  C139  S    
C90   O38   A    
C84   C112  A    
C71   H11   S    
C79   C99   A    
C55   C59   A    
C5    C6    S    
C100  C104  A    
C143  H69   S    
Cr2   O46   S    
C9    C13   A    
C91   O3    A    
C131  C140  S    
C3    O23   A    
Cr7   O19   S    
C50   C90   S    
C66   C72   A    
C12   C16   A    
C1    O21   A    
C22   H38   S    
C43   H59   S    
C87   C115  A    
C80   C84   A    
C92   O40   A    
C59   C60   A    
C85   C145  S    
C8    C135  S    
C130  C134  S    
C70   H10   S    
C99   H15   S    
C56   C123  S    
C120  O48   A    
C123  O11   A    
C145  H75   S    
C32   C34   A    
C6    C150  S    
C78   C82   A    
C11   C27   A    
C16   C20   A    
Cr3   O47   S    
C133  C141  S    
C129  C133  S    
C72   H12   S    
Cr7   O51   S    
C90   O2    A    
Cr3   O3    S    
C150  H90   S    
C107  H27   S    
Cr8   O28   S    
C105  H25   S    
C5    C137  S    
C118  O46   A    
C54   C61   A    
C6    C133  S    
C29   C35   A    
Cr10  O18   S    
C30   C36   A    
C8    C140  S    
C146  H77   S    
C76   C96   A    
C31   H43   S    
C29   H41   S    
C69   C70   A    
Cr6   O6    S    
C48   O36   A    
C122  O10   A    
C73   C77   A    
C103  C107  A    
C44   H60   S    
C68   H8    S    
C75   C79   A    
C94   H18   S    
C131  H35   S    
C47   O31   A    
C6    C138  S    
C101  H21   S    
C21   C49   A    
C7    C8    S    
C104  H24   S    
C132  C139  S    
C21   C25   A    
C127  O43   A    
C53   C122  S    
C18   C42   A    
C114  C126  S    
Cr2   O18   S    
C88   C148  S    
C59   C67   A    
C85   C93   A    
Cr11  O19   S    
C124  O12   A    
C151  H92   S    
C87   C95   A    
C77   C97   A    
C132  C136  S    
C84   C116  A    
Cr3   O43   S    
C144  H70   S    
C149  H86   S    
C1    C12   S    
C11   C15   A    
C2    C11   S    
C20   C44   A    
Cr10  O38   S    
C152  H95   S    
C48   C140  S    
C83   C115  A    
C27   H47   S    
C46   O34   A    
C126  O42   A    
C10   C14   A    
C17   C49   A    
Cr4   O4    S    
C1    O25   A    
C135  C143  S    
C148  H82   S    
C21   H37   S    
C128  O16   A    
Cr6   O30   S    
C111  H31   S    
C147  H79   S    
C24   H40   S    
Cr8   O52   S    
C141  H62   S    
C110  H30   S    
C98   H14   S    
Cr1   O21   S    
C54   C121  S    
Cr5   O49   S    
C81   C113  A    
Cr12  O40   S    
C129  C130  S    
C109  H29   S    
Cr10  O34   S    
Cr5   O17   S    
C121  O5    A    
C24   C28   A    
C67   H7    S    
C15   C31   A    
Cr7   O27   S    
C145  H74   S    
Cr2   O42   S    
C13   C17   A    
Cr9   O17   S    
C85   C113  A    
C7    C136  S    
C57   C58   A    
C34   H50   S    
C128  O44   A    
Cr11  O11   S    
C37   C41   A    
C61   C62   A    
C26   H46   S    
C63   C64   A    
C40   C44   A    
C7    C151  S    
C144  H72   S    
Cr8   O32   S    
Cr1   O45   S    
Cr3   O19   S    
C4    C9    S    
C106  H26   S    
Cr12  O20   S    
C24   C52   A    
C119  O47   A    
C88   C96   A    
Cr10  O14   S    
Cr10  O10   S    
C74   C94   A    
C48   O32   A    
C9    C25   A    
C91   O39   A    
C15   C19   A    
Cr4   O44   S    
C93   H17   S    
C89   O37   A    
C12   C28   A    
C13   C29   A    
C148  H84   S    
Cr11  O35   S    
Cr1   O17   S    
C147  H81   S    
C5    C149  S    
C123  O7    A    
C51   C91   S    
C2    O22   A    
Cr8   O20   S    
C92   O4    A    
C42   H58   S    
C22   C50   A    
C117  O49   A    
C73   C120  S    
C142  H64   S    
C127  O15   A    
C37   H55   S    
C75   C118  S    
C107  C111  A    
C32   H44   S    
C125  O13   A    
C19   C43   A    
C150  H89   S    
Cr9   O37   S    
Cr4   O24   S    
C76   C80   A    
Cr2   O2    S    
C65   H5    S    
C45   O33   A    
C53   C57   A    
Cr11  O39   S    
C108  C112  A    
C146  H76   S    
C77   C81   A    
C103  H23   S    
C4    O28   A    
C28   H48   S    
Cr8   O8    S    
C81   C109  A    
Cr12  O12   S    
C54   C58   A    
C86   C146  S    
C83   C111  A    
C52   C92   S    
C16   C32   A    
C46   O30   A    
C131  C132  S    
C104  C108  A    
C18   C50   A    
C89   O1    A    
C55   C124  S    
Cr9   O33   S    
Cr4   O20   S    
C57   C65   A    
C76   C117  S    
C86   C114  A    
Cr1   O41   S    
C36   C38   A    
C98   C102  A    
C79   C83   A    
C30   H42   S    
C105  C109  A    
C97   H13   S    
C87   C147  S    
Cr6   O50   S    
Cr12  O36   S    
C56   C60   A    
C71   C72   A    
Cr5   O5    S    
C60   C68   A    
C148  H83   S    
C151  H91   S    
C22   C26   A    
C142  H66   S    
C47   C139  S    
C121  O9    A    
C130  C137  S    
C95   H19   S    
C3    O27   A    
Cr9   O13   S    
C149  H85   S    
C14   C18   A    
C23   H39   S    
C152  H94   S    
C74   C119  S    
C33   C39   A    
C38   H56   S    
C34   C40   A    
C82   C110  A    
C35   C37   A    
C69   H9    S    
C38   C42   A    
C146  H78   S    
C131  C135  S    
C113  C125  S    
C115  C127  S    
C108  H28   S    
Cr3   O23   S    
C86   C94   A    
C143  H68   S    
Cr12  O16   S    
C58   C66   A    
C119  O51   A    
C129  C138  S    
C120  O52   A    
Cr5   O25   S    
C8    C152  S    
C78   C98   A    
C31   C33   A    
C23   C27   A    
C141  H61   S    
C74   C78   A    
C46   C138  S    
C41   H57   S    
C10   C26   A    
C80   C100  A    
Cr9   O9    S    
C14   C30   A    
C101  C105  A    
C5    C134  S    
C40   H54   S    
Cr6   O26   S    
Cr7   O7    S    
C82   C114  A    
Cr1   O1    S    
C2    O26   A    
C39   C43   A    
C145  H73   S    
C65   C71   A    
C62   H2    S    
C67   C69   A    
C88   C116  A    
C117  O45   A    
C53   C62   A    
C23   C51   A    
C118  O50   A    
C151  H93   S    
C55   C64   A    
C45   C137  S    
C143  H67   S    
C56   C63   A    
Cr5   O29   S    
C125  O41   A    
C68   C70   A    
Cr7   O31   S    
C144  H71   S    
C116  C128  S    
C149  H87   S    
C45   O29   A    
C66   H6    S    
Cr6   O18   S    
C152  H96   S    
C122  O6    A    
C49   C89   S    
C61   H1    S    
C134  C138  S    
C130  H34   S    
C126  O14   A    
C102  H22   S    
C64   H4    S    
C100  H16   S    
C142  H65   S    
C136  C144  S    
C63   H3    S    
C20   C52   A    
C3    C10   S    
C7    C139  S    
C35   H51   S    
C39   H53   S    
C33   H49   S    
C147  H80   S    
C102  C106  A    
Cr4   O48   S    
C141  H63   S    
C17   C41   A    
C25   H45   S    
C19   C51   A    
Cr2   O22   S    
C106  C110  A    
C96   H20   S    
C36   H52   S    
C97   C101  A    
