data_mof_unit_40957.cif
_audit_creation_date              2012-12-11T17:43:56-0500
_audit_creation_method            fapswitch 2.2
_symmetry_space_group_name_H-M    P1
_symmetry_Int_Tables_number       1
_space_group_crystal_system       triclinic
_cell_length_a                    20.264985
_cell_length_b                    22.733919
_cell_length_c                    6.937857
_cell_angle_alpha                 90.000214
_cell_angle_beta                  86.611417
_cell_angle_gamma                 90.000069
_cell_volume                      3190.69994739

loop_
_atom_site_label
_atom_site_type_symbol
_atom_type_description
_atom_site_fract_x
_atom_site_fract_y
_atom_site_fract_z
_atom_type_partial_charge
O1    O     O_R   0.751270 0.447300 0.600030 -0.513397
O2    O     O_R   0.248730 0.947300 0.399970 -0.513397
O3    O     O_R   0.613530 0.440160 0.952150 -0.541884
O4    O     O_R   0.386470 0.940160 0.047850 -0.541885
O5    O     O_R   0.613050 0.552700 0.122560 -0.539880
O6    O     O_R   0.386950 0.052700 0.877440 -0.539880
C1    C     C_R   0.591609 0.425362 0.787273 0.683038
C2    C     C_R   0.408391 0.925362 0.212727 0.683038
O7    O     O_R   0.750780 0.440350 0.929820 -0.533358
O8    O     O_R   0.249220 0.940350 0.070180 -0.533359
O9    O     O_R   0.751280 0.552900 0.100070 -0.539755
O10   O     O_R   0.248720 0.052900 0.899930 -0.539760
C3    C     C_R   0.774679 0.426816 0.756829 0.761236
C4    C     C_R   0.225321 0.926817 0.243171 0.761235
O11   O     O_R   0.613040 0.447100 0.622520 -0.538999
O12   O     O_R   0.386960 0.947100 0.377480 -0.538999
O13   O     O_3   0.682160 0.536920 0.777780 -0.376726
O14   O     O_3   0.317840 0.036920 0.222220 -0.376725
V1    V     V_3+5 0.682160 0.493150 0.052630 1.462752
V2    V     V_3+5 0.317840 0.993150 0.947370 1.462751
O15   O     O_R   0.750790 0.559840 0.429870 -0.539072
O16   O     O_R   0.249210 0.059840 0.570130 -0.539070
C5    C     C_R   0.773721 0.574219 0.257085 0.744507
C6    C     C_R   0.226279 0.074219 0.742916 0.744508
O17   O     O_R   0.613540 0.559650 0.452200 -0.540523
O18   O     O_R   0.386460 0.059650 0.547800 -0.540523
C7    C     C_R   0.591655 0.574459 0.287308 0.675536
C8    C     C_R   0.408345 0.074459 0.712693 0.675538
V3    V     V_3+5 0.682160 0.506850 0.552630 1.463830
V4    V     V_3+5 0.317840 0.006850 0.447370 1.463831
O19   O     O_3   0.682150 0.463080 0.277610 -0.355901
O20   O     O_3   0.317850 0.963080 0.722390 -0.355901
C9    C     C_R   0.578794 0.859935 0.151495 -0.157888
C10   C     C_R   0.421203 0.359938 0.848448 -0.157887
H1    H     H_    0.537512 0.946359 0.130943 0.107689
H2    H     H_    0.462485 0.446362 0.868999 0.107688
H3    H     H_    0.669554 0.775967 0.138535 0.128735
H4    H     H_    0.330441 0.275971 0.861381 0.128735
H5    H     H_    0.628446 0.875520 0.113959 0.117323
H6    H     H_    0.371550 0.375524 0.885957 0.117322
C11   C     C_R   0.462594 0.882030 0.210352 -0.037758
C12   C     C_R   0.537406 0.382030 0.789643 -0.037756
C13   C     C_R   0.473000 0.596001 0.337113 -0.166343
C14   C     C_R   0.527001 0.095999 0.662924 -0.166346
C15   C     C_R   0.419173 0.633974 0.348905 -0.118088
C16   C     C_R   0.580829 0.133972 0.651149 -0.118086
C17   C     C_R   0.427702 0.694028 0.315741 -0.156816
C18   C     C_R   0.572300 0.194026 0.684299 -0.156816
C19   C     C_R   0.491087 0.717962 0.268917 0.077136
C20   C     C_R   0.508913 0.217962 0.731091 0.077136
C21   C     C_R   0.546277 0.678441 0.255013 0.068679
C22   C     C_R   0.453722 0.178442 0.744976 0.068678
C23   C     C_R   0.501512 0.779684 0.235775 0.074068
C24   C     C_R   0.498488 0.279684 0.764220 0.074068
C25   C     C_R   0.566764 0.800004 0.187614 0.137993
C26   C     C_R   0.433234 0.300005 0.812346 0.137993
C27   C     C_R   0.619759 0.760515 0.174887 -0.198246
C28   C     C_R   0.380238 0.260518 0.825055 -0.198245
C29   C     C_R   0.609835 0.700820 0.208386 -0.194685
C30   C     C_R   0.390162 0.200822 0.791571 -0.194681
C31   C     C_R   0.449745 0.822178 0.247782 -0.215670
C32   C     C_R   0.550256 0.322177 0.752231 -0.215668
C33   C     C_R   0.527134 0.900434 0.161570 -0.171187
C34   C     C_R   0.472864 0.400436 0.838389 -0.171190
C35   C     C_R   0.536623 0.617259 0.289968 -0.082162
C36   C     C_R   0.463377 0.117258 0.710036 -0.082159
H7    H     H_    0.399001 0.810322 0.283345 0.092722
H8    H     H_    0.601001 0.310320 0.716694 0.092720
H9    H     H_    0.465002 0.549579 0.365385 0.106490
H10   H     H_    0.535000 0.049577 0.634667 0.106489
H11   H     H_    0.383589 0.720487 0.328088 0.108627
H12   H     H_    0.616414 0.220484 0.671967 0.108628
H13   H     H_    0.370208 0.616714 0.385111 0.122503
H14   H     H_    0.629796 0.116710 0.614968 0.122503
H15   H     H_    0.652613 0.672212 0.196999 0.106773
H16   H     H_    0.347384 0.172214 0.802942 0.106769
C37   C     C_R   0.170199 0.883046 0.261518 -0.146826
C38   C     C_R   0.829801 0.383046 0.738482 -0.146826
C39   C     C_R   0.160850 0.844129 0.107463 -0.216274
C40   C     C_R   0.839150 0.344130 0.892538 -0.216275
C41   C     C_R   0.110130 0.801595 0.116510 0.154091
C42   C     C_R   0.889872 0.301598 0.883494 0.154094
C43   C     C_R   0.066673 0.798099 0.284911 0.366789
C44   C     C_R   0.933329 0.298101 0.715093 0.366785
C45   C     C_R   0.076646 0.836319 0.438535 -0.240152
C46   C     C_R   0.923355 0.336321 0.561468 -0.240156
C47   C     C_R   0.126699 0.878814 0.428512 0.236806
C48   C     C_R   0.873301 0.378814 0.571488 0.236805
C49   C     C_R   0.911700 0.679083 0.381062 -0.140596
C50   C     C_R   0.088327 0.179111 0.618929 -0.140584
C51   C     C_R   0.860102 0.638023 0.400328 -0.191544
C52   C     C_R   0.139925 0.138051 0.599660 -0.191569
C53   C     C_R   0.932582 0.701542 0.197490 0.423018
C54   C     C_R   0.067415 0.201540 0.802520 0.423024
N1    N     N_2   0.015425 0.755169 0.313908 -0.299730
N2    N     N_2   0.984580 0.255174 0.686097 -0.299722
N3    N     N_2   0.984269 0.744065 0.168209 -0.290999
N4    N     N_2   0.015725 0.244059 0.831806 -0.291004
C55   C     C_R   0.828213 0.618216 0.237523 -0.044048
C56   C     C_R   0.171786 0.118215 0.762480 -0.044049
H17   H     H_    0.845415 0.621623 0.542994 0.135307
H18   H     H_    0.154636 0.121675 0.456979 0.135282
H19   H     H_    0.934797 0.693262 0.509916 0.134678
H20   H     H_    0.065252 0.193313 0.490064 0.134663
H21   H     H_    0.044039 0.833517 0.567714 0.167138
H22   H     H_    0.955962 0.333519 0.432290 0.167136
C57   C     C_R   0.849181 0.640754 0.055088 -0.192300
C58   C     C_R   0.150790 0.140725 0.944933 -0.192256
C59   C     C_R   0.900468 0.681981 0.036016 -0.179567
C60   C     C_R   0.099502 0.181951 0.964010 -0.179567
H23   H     H_    0.825771 0.626766 0.926471 0.133001
H24   H     H_    0.174176 0.126714 0.073564 0.133005
H25   H     H_    0.915437 0.698760 0.893990 0.120413
H26   H     H_    0.084509 0.198706 0.106050 0.120404
H27   H     H_    0.194131 0.846282 0.979533 0.169844
H28   H     H_    0.805868 0.346283 0.020467 0.169846
Br1   Br    Br    0.129360 0.930974 0.646209 -0.556791
Br2   Br    Br    0.870640 0.430973 0.353790 -0.556801
C61   C     C_3   0.105741 0.759610 0.949416 -0.692613
H29   H     H_    0.148173 0.764728 0.841823 0.189916
H30   H     H_    0.105909 0.713522 0.002368 0.214182
H31   H     H_    0.060035 0.768120 0.873415 0.224963
C62   C     C_3   0.894261 0.259615 0.050595 -0.692602
H32   H     H_    0.851829 0.264734 0.158189 0.189916
H33   H     H_    0.894092 0.213526 0.997652 0.214183
H34   H     H_    0.939967 0.268127 0.126594 0.224962

loop_
_geom_bond_atom_site_label_1
_geom_bond_atom_site_label_2
_ccdc_geom_bond_type
C9    C25   A    
C5    C55   S    
C10   C26   A    
C39   H27   S    
O13   V3    S    
C14   C36   A    
C11   C31   A    
O4    C2    A    
V1    O19   S    
C62   H32   S    
C17   C19   A    
O9    V1    S    
C9    H5    S    
C10   H6    S    
C18   H12   S    
C47   Br1   S    
O3    C1    A    
C44   N2    S    
C38   C40   A    
C4    C37   S    
C54   N4    S    
C28   C30   A    
C46   C48   A    
C15   H13   S    
O10   C6    A    
C21   C35   A    
C15   C17   A    
O7    C3    A    
C22   C30   A    
H4    C28   S    
C23   C31   A    
O7    V1    S    
O6    C8    A    
C40   H28   S    
C26   C28   A    
C19   C21   A    
N2    N4    D    
C20   C22   A    
O11   V3    S    
O14   V4    S    
C49   C51   A    
C60   H26   S    
C52   H18   S    
C61   H30   S    
C2    O12   A    
O5    C7    A    
C49   H19   S    
C57   C59   A    
C46   H22   S    
C29   H15   S    
C51   H17   S    
C45   H21   S    
O1    V3    S    
C41   C43   A    
C14   C16   A    
C50   C54   A    
C16   C18   A    
C23   C25   A    
O17   V3    S    
C24   C26   A    
C9    C33   A    
C56   C58   A    
C45   C47   A    
C2    C11   S    
C40   C42   A    
O8    C4    A    
O8    V2    S    
C39   C41   A    
C62   H34   S    
C1    O11   A    
C24   C32   A    
O15   V3    S    
C30   H16   S    
C58   H24   S    
C8    C36   S    
C1    C12   S    
C7    C35   S    
C31   H7    S    
C50   C52   A    
C13   C35   A    
C43   N1    S    
O10   V2    S    
C10   C34   A    
C37   C39   A    
C20   C24   A    
O3    V1    S    
C18   C20   A    
C13   C15   A    
C50   H20   S    
C43   C45   A    
O18   V4    S    
C42   C44   A    
O15   C5    A    
O16   C6    A    
C27   C29   A    
O1    C3    A    
C17   H11   S    
C48   Br2   S    
C53   N3    S    
C42   C62   S    
C16   H14   S    
C22   C36   A    
C14   H10   S    
C52   C56   A    
V2    O20   S    
C61   H31   S    
C38   C48   A    
C12   C32   A    
C3    C38   S    
O16   V4    S    
C6    C56   S    
C57   H23   S    
C44   C46   A    
C12   C34   A    
C61   H29   S    
N1    N3    D    
O5    V1    S    
C59   H25   S    
O17   C7    A    
C55   C57   A    
C41   C61   S    
O18   C8    A    
C32   H8    S    
O2    V4    S    
C25   C27   A    
V3    O19   S    
V4    O20   S    
C58   C60   A    
O6    V2    S    
C19   C23   A    
O9    C5    A    
O13   V1    S    
C54   C60   A    
O14   V2    S    
C49   C53   A    
O2    C4    A    
C62   H33   S    
O4    V2    S    
C21   C29   A    
C37   C47   A    
C13   H9    S    
C11   C33   A    
H1    C33   S    
C51   C55   A    
H2    C34   S    
O12   V4    S    
H3    C27   S    
C53   C59   A    
