data_mof_unit_44895.cif
_audit_creation_date              2012-12-10T16:52:06-0500
_audit_creation_method            fapswitch 2.2
_symmetry_space_group_name_H-M    P1
_symmetry_Int_Tables_number       1
_space_group_crystal_system       triclinic
_cell_length_a                    7.765049
_cell_length_b                    8.57879
_cell_length_c                    14.944148
_cell_angle_alpha                 90.317913
_cell_angle_beta                  87.192221
_cell_angle_gamma                 93.033553
_cell_volume                      992.907536466

loop_
_atom_site_label
_atom_site_type_symbol
_atom_type_description
_atom_site_fract_x
_atom_site_fract_y
_atom_site_fract_z
_atom_type_partial_charge
C1    C     C_R   0.544482 0.794464 0.497860 0.934663
C2    C     C_R   0.455518 0.205536 0.502140 0.934664
C3    C     C_R   0.663401 0.754616 0.954076 0.174553
C4    C     C_R   0.336602 0.245382 0.045924 0.174553
C5    C     C_2   0.561189 0.955072 0.481727 -0.071705
C6    C     C_2   0.438811 0.044928 0.518273 -0.071705
C7    C     C_R   0.504858 0.503790 0.672881 0.905281
C8    C     C_R   0.495141 0.496210 0.327119 0.905281
C9    C     C_R   0.381811 0.387564 0.187090 0.137411
C10   C     C_R   0.618191 0.612435 0.812910 0.137411
C11   C     C_R   0.488015 0.496377 0.231639 -0.111707
C12   C     C_R   0.511985 0.503623 0.768361 -0.111707
C13   C     C_R   0.596631 0.605110 0.185411 -0.183656
C14   C     C_R   0.403368 0.394890 0.814589 -0.183656
C15   C     C_R   0.593860 0.615456 0.093014 0.039983
C16   C     C_R   0.406141 0.384543 0.906986 0.039983
C17   C     C_R   0.498998 0.498006 0.046648 -0.005190
C18   C     C_R   0.501004 0.501993 0.953352 -0.005190
C19   C     C_R   0.404735 0.375063 0.093733 -0.012256
C20   C     C_R   0.595267 0.624935 0.906267 -0.012256
C21   C     C_R   0.677378 0.743251 0.046801 0.139439
C22   C     C_R   0.322625 0.256748 0.953199 0.139439
H1    H     H_    0.674386 0.686987 0.223632 0.191161
H2    H     H_    0.325611 0.313015 0.776368 0.191161
H3    H     H_    0.012470 0.376032 0.437607 0.229063
H4    H     H_    0.987530 0.623968 0.562392 0.229063
N1    N     N_2   0.950330 0.457950 0.475660 -0.151716
N2    N     N_2   0.049670 0.542050 0.524340 -0.151716
O1    O     O_R   0.389250 0.738570 0.505970 -0.598855
O2    O     O_R   0.610750 0.261430 0.494030 -0.598855
O3    O     O_R   0.678390 0.711620 0.490370 -0.608071
O4    O     O_R   0.321610 0.288380 0.509630 -0.608072
O5    O     O_R   0.355420 0.513510 0.639950 -0.597703
O6    O     O_R   0.644580 0.486490 0.360050 -0.597702
O7    O     O_R   0.644560 0.486560 0.624350 -0.608321
O8    O     O_R   0.355440 0.513440 0.375650 -0.608321
Zn1   Zn    Zn3+2 0.306940 0.517990 0.510420 1.029829
Zn2   Zn    Zn3+2 0.693060 0.482010 0.489580 1.029829
I1    I     I_    0.159079 0.280227 0.257623 -0.230212
I2    I     I_    0.840924 0.719770 0.742377 -0.230212
I3    I     I_    0.819762 0.924576 0.115359 -0.183718
I4    I     I_    0.180242 0.075421 0.884641 -0.183719
I5    I     I_    0.678222 0.984607 0.896660 -0.200150
I6    I     I_    0.321781 0.015391 0.103340 -0.200150
I7    I     I_    0.750949 0.019549 0.376982 -0.218125
I8    I     I_    0.249050 0.980451 0.623018 -0.218125

loop_
_geom_bond_atom_site_label_1
_geom_bond_atom_site_label_2
_ccdc_geom_bond_type
C14   C16   A    
H3    N1    S    
C11   C13   A    
H4    N2    S    
O3    Zn2   S    
C1    O3    A    
C2    O2    A    
C1    O1    A    
C17   C18   A    
C3    C20   A    
C5    I7    S    
C22   I4    S    
O4    Zn1   S    
C9    C11   A    
C3    I5    S    
C2    C6    S    
C10   C12   A    
N2    Zn1   S    
C8    C11   S    
C1    C5    S    
C16   C18   A    
O8    Zn1   S    
C17   C19   A    
C12   C14   A    
C18   C20   A    
C13   C15   A    
C5    C6    D    
C21   I3    S    
C7    C12   S    
C3    C21   A    
C7    O5    A    
N1    Zn2   S    
O1    Zn1   S    
C15   C21   A    
O7    Zn2   S    
C4    C22   A    
C13   H1    S    
C2    O4    A    
C8    O8    A    
C14   H2    S    
N1    N2    D    
C15   C17   A    
C10   I2    S    
C16   C22   A    
C6    I8    S    
O2    Zn2   S    
C10   C20   A    
C8    O6    A    
C4    C19   A    
C7    O7    A    
C9    C19   A    
C9    I1    S    
O5    Zn1   S    
C4    I6    S    
O6    Zn2   S    
