data_mof_unit_58665.cif
_audit_creation_date              2012-12-11T14:29:43-0500
_audit_creation_method            fapswitch 2.2
_symmetry_space_group_name_H-M    P1
_symmetry_Int_Tables_number       1
_space_group_crystal_system       triclinic
_cell_length_a                    6.93227
_cell_length_b                    14.791972
_cell_length_c                    16.317479
_cell_angle_alpha                 90.536467
_cell_angle_beta                  89.769677
_cell_angle_gamma                 89.712776
_cell_volume                      1673.11780904

loop_
_atom_site_label
_atom_site_type_symbol
_atom_type_description
_atom_site_fract_x
_atom_site_fract_y
_atom_site_fract_z
_atom_type_partial_charge
O1    O     O_R   0.494400 0.416610 0.413880 -0.548121
O2    O     O_R   0.823920 0.406790 0.585520 -0.522222
O3    O     O_R   0.994250 0.583390 0.586120 -0.512852
C1    C     C_R   0.656060 0.388413 0.615805 0.673918
O4    O     O_R   0.824110 0.405730 0.414490 -0.511048
O5    O     O_R   0.994440 0.582310 0.413870 -0.500334
C2    C     C_R   0.655452 0.382811 0.387257 0.810291
O6    O     O_R   0.494210 0.417690 0.586130 -0.536486
O7    O     O_3   0.660810 0.557940 0.500000 -0.367405
V1    V     V_3+5 0.935650 0.489250 0.500000 1.704713
O8    O     O_R   0.324160 0.593210 0.414480 -0.559158
C3    C     C_R   0.155429 0.616035 0.387220 0.718341
O9    O     O_R   0.323970 0.594270 0.585510 -0.555812
C4    C     C_R   0.153129 0.618159 0.612313 0.847191
V2    V     V_3+5 0.435660 0.510750 0.500000 1.603619
O10   O     O_3   0.160630 0.442060 0.500000 -0.355185
C5    C     C_R   0.110249 0.557326 0.782471 0.234847
C6    C     C_R   0.099214 0.528386 0.863608 -0.228289
C7    C     C_R   0.088327 0.589212 0.927963 0.356411
C8    C     C_R   0.086564 0.682831 0.913216 0.236950
C9    C     C_R   0.108831 0.716228 0.831398 -0.078918
C10   C     C_R   0.119552 0.652063 0.764680 -0.013437
C11   C     C_R   0.121256 0.811450 0.814954 -0.078768
C12   C     C_R   0.140272 0.841979 0.732253 -0.066979
C13   C     C_R   0.127089 0.778304 0.666395 -0.150622
C14   C     C_R   0.133738 0.683767 0.682244 -0.071283
C15   C     C_R   0.165887 0.935353 0.712315 0.224563
C16   C     C_R   0.198348 0.961025 0.630446 0.233289
C17   C     C_R   0.155716 0.900549 0.566627 0.345684
C18   C     C_R   0.103554 0.812373 0.585658 0.259736
H1    H     H_    0.097754 0.456787 0.877105 0.214710
C19   C     C_2   0.994727 0.706095 0.278454 0.383648
C20   C     C_2   0.147294 0.693354 0.328913 0.266790
C21   C     C_2   0.984325 0.787424 0.224717 0.280346
C22   C     C_2   0.123063 0.804322 0.168014 0.171186
C23   C     C_2   0.774136 0.220374 0.788874 0.316263
C24   C     C_2   0.615223 0.172794 0.810404 0.191845
C25   C     C_2   0.780254 0.270521 0.710423 0.347310
C26   C     C_2   0.648991 0.335947 0.693148 0.187106
C27   C     C_2   0.765376 0.199507 0.222859 0.207122
C28   C     C_2   0.617987 0.190795 0.168676 0.162936
C29   C     C_2   0.786705 0.281660 0.276940 0.336096
C30   C     C_2   0.641557 0.307858 0.327126 -0.238750
H2    H     H_    0.505941 0.271371 0.325374 0.133937
O11   O     O_R   0.770210 0.079270 0.910680 -0.527087
O12   O     O_R   0.440150 0.091160 0.082270 -0.529417
O13   O     O_R   0.269970 0.914530 0.082860 -0.547126
C31   C     C_R   0.608738 0.114205 0.109632 0.799202
O14   O     O_R   0.440480 0.090100 0.911240 -0.528398
O15   O     O_R   0.270310 0.913460 0.910610 -0.537196
C32   C     C_R   0.609350 0.112026 0.883129 0.683859
O16   O     O_R   0.769870 0.080340 0.082930 -0.516723
O17   O     O_3   0.603660 0.938980 0.996790 -0.390281
V3    V     V_3+5 0.328750 0.007610 0.996740 1.658468
O18   O     O_R   0.940600 0.902510 0.911180 -0.543240
C33   C     C_R   0.110255 0.879523 0.883483 0.884483
O19   O     O_R   0.940270 0.903570 0.082200 -0.523225
C34   C     C_R   0.109267 0.881518 0.110026 0.737069
V4    V     V_3+5 0.828770 0.986010 0.996670 1.635536
O20   O     O_3   0.103730 0.054750 0.996710 -0.342399
O21   O     O_3   0.154197 0.925465 0.485071 -0.564305
H3    H     H_    0.168010 0.991645 0.480273 0.363764
O22   O     O_3   0.292733 0.757390 0.329115 -0.591014
H4    H     H_    0.384260 0.744372 0.373961 0.339863
Cl1   Cl    Cl    0.781646 0.858917 0.239289 -0.564314
O23   O     O_3   0.276485 0.744194 0.161335 -0.604048
H5    H     H_    0.357017 0.760422 0.113445 0.329933
Cl2   Cl    Cl    0.983090 0.226771 0.850273 -0.604182
O24   O     O_3   0.456979 0.178032 0.759214 -0.570840
H6    H     H_    0.346209 0.148114 0.785213 0.376538
Cl3   Cl    Cl    0.964944 0.238298 0.641182 -0.533811
O25   O     O_3   0.513196 0.358500 0.752440 -0.608338
H7    H     H_    0.446250 0.414617 0.735836 0.316383
O26   O     O_3   0.902917 0.131554 0.226841 -0.619971
H8    H     H_    0.993433 0.146181 0.271902 0.321354
Cl4   Cl    Cl    0.440562 0.276164 0.157369 -0.601772
O27   O     O_3   0.959620 0.327755 0.278852 -0.608913
H9    H     H_    0.044737 0.301917 0.235576 0.349098
O28   O     O_3   0.110097 0.492822 0.720576 -0.648180
H10   H     H_    0.090370 0.431707 0.743605 0.324279
Cl5   Cl    Cl    0.082870 0.544456 0.027874 -0.526223
O29   O     O_3   0.065650 0.741999 0.978382 -0.667025
H11   H     H_    0.994441 0.712382 0.023320 0.322200
O30   O     O_3   0.160381 0.001294 0.772373 -0.638920
H12   H     H_    0.098744 0.055871 0.749068 0.350227
Cl6   Cl    Cl    0.292179 0.069235 0.609278 -0.517956
Cl7   Cl    Cl    0.958251 0.758435 0.511890 -0.599236
O31   O     O_3   0.843760 0.645323 0.278871 -0.627152
H13   H     H_    0.748844 0.664236 0.237002 0.335861

loop_
_geom_bond_atom_site_label_1
_geom_bond_atom_site_label_2
_ccdc_geom_bond_type
O18   C33   A    
O18   V4    S    
C7    C8    A    
C12   C15   A    
C1    O6    A    
O17   V4    S    
C11   C33   S    
V3    O20   S    
O27   H9    S    
O15   V3    S    
C22   C34   S    
C23   C24   D    
C6    C7    A    
C24   O24   S    
O5    C3    A    
C25   C26   D    
C24   C32   S    
O19   V4    S    
O11   C32   A    
O14   V3    S    
C19   O31   S    
C5    O28   S    
C15   O30   S    
C21   C22   D    
O8    V2    S    
O30   H12   S    
O11   V4    S    
O14   C32   A    
C26   O25   S    
O1    V2    S    
C2    C30   S    
O7    V1    S    
O31   H13   S    
C27   C29   S    
O23   H5    S    
V4    O20   S    
O9    C4    A    
O24   H6    S    
C18   Cl7   S    
C21   Cl1   S    
O12   C31   A    
C9    C11   A    
C17   O21   S    
O26   H8    S    
C8    O29   S    
C12   C13   A    
C7    Cl5   S    
O4    C2    A    
C22   O23   S    
C13   C14   A    
O17   V3    S    
O15   C33   A    
O28   H10   S    
C19   C21   S    
O2    C1    A    
C30   H2    S    
C17   C18   A    
O16   V4    S    
C1    C26   S    
C20   O22   S    
O12   V3    S    
C5    C6    A    
C4    C14   S    
O3    C4    A    
O13   V3    S    
C27   C28   D    
O6    V2    S    
O9    V2    S    
C16   Cl6   S    
C29   C30   D    
O2    V1    S    
C13   C18   A    
C25   Cl3   S    
C16   C17   A    
O1    C2    A    
O25   H7    S    
O5    V1    S    
O8    C3    A    
C23   Cl2   S    
C5    C10   A    
C19   C20   D    
C23   C25   S    
O7    V2    S    
O4    V1    S    
O3    V1    S    
V1    O10   S    
C28   Cl4   S    
O19   C34   A    
C28   C31   S    
C27   O26   S    
O21   H3    S    
C11   C12   A    
O22   H4    S    
C31   O16   A    
C8    C9    A    
C29   O27   S    
O29   H11   S    
C10   C14   A    
C15   C16   A    
C6    H1    S    
C3    C20   S    
C9    C10   A    
V2    O10   S    
O13   C34   A    
