data_mof_unit_51705.cif
_audit_creation_date              2012-12-10T17:58:20-0500
_audit_creation_method            fapswitch 2.2
_symmetry_space_group_name_H-M    P1
_symmetry_Int_Tables_number       1
_space_group_crystal_system       triclinic
_cell_length_a                    9.514712
_cell_length_b                    10.809663
_cell_length_c                    15.381772
_cell_angle_alpha                 89.703423
_cell_angle_beta                  73.627754
_cell_angle_gamma                 89.562253
_cell_volume                      1517.82594506

loop_
_atom_site_label
_atom_site_type_symbol
_atom_type_description
_atom_site_fract_x
_atom_site_fract_y
_atom_site_fract_z
_atom_type_partial_charge
C1    C     C_R   0.999164 0.262308 0.503187 0.792231
C2    C     C_R   0.000840 0.737663 0.496805 0.801999
C3    C     C_R   0.543630 0.665872 0.076606 0.346672
C4    C     C_R   0.400298 0.540794 0.895491 0.342424
C5    C     C_R   0.688806 0.689301 0.028520 -0.140547
C6    C     C_R   0.257138 0.511656 0.942967 -0.127387
C7    C     C_R   0.927703 0.068904 0.448721 -0.212059
C8    C     C_R   0.072243 0.930971 0.551271 -0.204978
C9    C     C_R   0.927873 0.940573 0.442815 0.154670
C10   C     C_R   0.072303 0.059291 0.557055 0.149247
C11   C     C_R   0.000449 0.871502 0.495620 -0.078659
C12   C     C_R   0.999563 0.128409 0.504348 -0.085284
C13   C     C_R   0.545256 0.436849 0.564883 0.058457
C14   C     C_R   0.454905 0.562583 0.434778 -0.003628
C15   C     C_R   0.396325 0.437581 0.565197 0.014937
C16   C     C_R   0.603765 0.562137 0.434632 -0.028960
C17   C     C_R   0.917070 0.504983 0.672593 0.810689
C18   C     C_R   0.082641 0.499477 0.327251 0.826985
C19   C     C_R   0.868635 0.536395 0.769384 -0.131255
C20   C     C_R   0.127008 0.502434 0.227706 -0.144366
C21   C     C_R   0.899077 0.658204 0.894870 0.421794
C22   C     C_R   0.069785 0.472203 0.085507 0.419696
C23   C     C_R   0.957104 0.606680 0.808897 -0.213134
C24   C     C_R   0.027071 0.472169 0.179851 -0.212451
C25   C     C_R   0.722491 0.516301 0.817117 -0.125012
C26   C     C_R   0.269577 0.536340 0.180319 -0.150635
C27   C     C_R   0.657641 0.576343 0.899473 0.066444
C28   C     C_R   0.311336 0.550601 0.085616 0.063999
C29   C     C_R   0.749373 0.641255 0.941611 0.028086
C30   C     C_R   0.212321 0.510736 0.037589 0.017680
C31   C     C_R   0.504845 0.568024 0.942831 -0.039029
C32   C     C_R   0.453105 0.593762 0.037003 -0.021055
Cu1   Cu    Cu3+1 0.140660 0.500020 0.500000 0.965322
Cu2   Cu    Cu3+1 0.859340 0.499980 0.500000 0.965675
H1    H     H_    0.753970 0.745217 0.060435 0.225527
H2    H     H_    0.180848 0.490721 0.904624 0.220444
H3    H     H_    0.348678 0.546932 0.217968 0.199644
H4    H     H_    0.660047 0.452993 0.788766 0.184928
H5    H     H_    0.916902 0.443855 0.215750 0.186986
H6    H     H_    0.069806 0.625402 0.771736 0.205813
H7    H     H_    0.874285 0.123145 0.407490 0.161845
H8    H     H_    0.125626 0.876709 0.592519 0.167934
H9    H     H_    0.577875 0.385802 0.616746 0.138107
H10   H     H_    0.422428 0.613240 0.382689 0.160774
H11   H     H_    0.316719 0.388125 0.617691 0.140666
H12   H     H_    0.683405 0.611544 0.382119 0.140999
N1    N     N_R   0.352080 0.500030 0.499980 -0.170889
N2    N     N_R   0.647920 0.499970 0.500020 -0.166284
O1    O     O_R   0.118740 0.319660 0.500000 -0.574785
O2    O     O_R   0.881260 0.680340 0.500000 -0.569100
O3    O     O_R   0.881170 0.319630 0.500010 -0.588743
O4    O     O_R   0.118830 0.680370 0.499990 -0.574391
O5    O     O_R   0.055570 0.500030 0.629830 -0.584477
O6    O     O_R   0.944430 0.499970 0.370170 -0.593775
O7    O     O_R   0.818000 0.500000 0.629840 -0.559591
O8    O     O_R   0.182000 0.500000 0.370160 -0.579494
Cl1   Cl    Cl    0.016502 0.748213 0.939137 -0.594433
Cl2   Cl    Cl    0.941970 0.418484 0.030997 -0.635753
Cl3   Cl    Cl    0.476202 0.753139 0.176839 -0.654049
Cl4   Cl    Cl    0.430065 0.569793 0.778561 -0.662005
C33   C     C_3   0.856155 0.883181 0.376452 -0.381572
C34   C     C_3   0.689504 0.884468 0.414349 -0.775025
H13   H     H_    0.639503 0.842454 0.364505 0.256159
H14   H     H_    0.647877 0.980848 0.427542 0.248534
H15   H     H_    0.655539 0.830682 0.478502 0.266831
H16   H     H_    0.887095 0.936452 0.311881 0.220118
H17   H     H_    0.895227 0.787366 0.357966 0.207467
C35   C     C_3   0.144826 0.116583 0.623027 -0.384036
C36   C     C_3   0.311380 0.115094 0.584516 -0.784857
H18   H     H_    0.362084 0.157062 0.634030 0.233251
H19   H     H_    0.344815 0.168834 0.520324 0.260169
H20   H     H_    0.352783 0.018660 0.571219 0.256447
H21   H     H_    0.106005 0.212423 0.641609 0.202652
H22   H     H_    0.114421 0.063307 0.687608 0.219397

loop_
_geom_bond_atom_site_label_1
_geom_bond_atom_site_label_2
_ccdc_geom_bond_type
C27   C29   A    
C15   N1    A    
C16   N2    A    
Cu1   O4    S    
Cu2   O3    S    
C9    C33   S    
C8    H8    S    
C35   H22   S    
C23   H6    S    
C24   H5    S    
C36   H19   S    
C34   H14   S    
C2    O2    A    
C33   H16   S    
C20   C24   A    
C35   C36   S    
C1    O1    A    
C14   C16   A    
C17   O7    A    
C33   C34   S    
C18   O8    A    
Cu1   O8    S    
Cu2   O7    S    
C36   H18   S    
C1    C12   S    
C2    C11   S    
C10   C12   A    
C5    C29   A    
Cu1   O5    S    
C7    C12   A    
Cu2   O2    S    
C27   C31   A    
C28   C32   A    
C4    C6    A    
C16   H12   S    
C35   H21   S    
C21   C29   A    
C36   H20   S    
C19   C23   A    
C21   Cl1   S    
C34   H13   S    
C25   H4    S    
C9    C11   A    
C33   H17   S    
C31   C32   A    
C4    Cl4   S    
Cu1   Cu2   S    
C1    O3    A    
C2    O4    A    
C6    C30   A    
Cu2   O6    S    
C13   C15   A    
Cu1   N1    S    
C22   C24   A    
Cu2   N2    S    
C15   H11   S    
C17   O5    A    
C13   H9    S    
C14   H10   S    
C7    C9    A    
C22   C30   A    
C34   H15   S    
C3    C5    A    
C22   Cl2   S    
C13   N2    A    
C26   H3    S    
C14   N1    A    
C10   C35   S    
C25   C27   A    
C26   C28   A    
C21   C23   A    
C20   C26   A    
C8    C11   A    
C5    H1    S    
C28   C30   A    
C17   C19   S    
C6    H2    S    
C18   C20   S    
C7    H7    S    
C3    C32   A    
C19   C25   A    
C4    C31   A    
C18   O6    A    
C8    C10   A    
Cu1   O1    S    
C3    Cl3   S    
