data_mof_unit_28528.cif
_audit_creation_date              2012-12-10T20:49:27-0500
_audit_creation_method            fapswitch 2.2
_symmetry_space_group_name_H-M    P1
_symmetry_Int_Tables_number       1
_space_group_crystal_system       triclinic
_cell_length_a                    15.693541
_cell_length_b                    8.968382
_cell_length_c                    8.151275
_cell_angle_alpha                 89.651013
_cell_angle_beta                  93.320399
_cell_angle_gamma                 88.616433
_cell_volume                      1144.96456543

loop_
_atom_site_label
_atom_site_type_symbol
_atom_type_description
_atom_site_fract_x
_atom_site_fract_y
_atom_site_fract_z
_atom_type_partial_charge
C1    C     C_1   0.500027 0.065145 0.500453 -0.182077
C2    C     C_3   0.964667 0.630903 0.570948 0.354622
C3    C     C_1   0.248162 0.519856 0.483588 -0.197512
C4    C     C_1   0.751979 0.483756 0.518761 -0.159391
C5    C     C_3   0.037479 0.538660 0.661231 0.248529
C6    C     C_3   0.962882 0.473625 0.365001 0.253254
C7    C     C_3   0.082224 0.527868 0.496332 -0.249617
C8    C     C_3   0.918727 0.485253 0.529202 -0.194624
C9    C     C_1   0.172677 0.529867 0.481599 0.080077
C10   C     C_1   0.827608 0.477986 0.529678 0.155763
C11   C     C_3   0.023942 0.143880 0.350520 -0.283757
C12   C     C_1   0.499919 0.934854 0.499543 -0.183260
C13   C     C_3   0.973416 0.862800 0.691465 -0.290813
C14   C     C_3   0.053496 0.209411 0.788560 -0.334980
C15   C     C_3   0.943619 0.812326 0.251215 -0.321390
C16   C     C_3   0.941938 0.463961 0.079693 0.152605
C17   C     C_3   0.866014 0.496663 0.959458 -0.709664
C18   C     C_3   0.147889 0.633552 0.831480 0.064223
C19   C     C_3   0.166583 0.695873 0.002594 -0.774199
C20   C     C_R   0.500137 0.218084 0.500332 0.934034
C21   C     C_R   0.499831 0.781916 0.499665 0.930606
C22   C     C_R   0.337320 0.504641 0.495126 0.892620
C23   C     C_R   0.662693 0.495360 0.505028 0.888515
C24   C     C_3   0.991182 0.393020 0.618873 0.372833
C25   C     C_3   0.008113 0.620620 0.406560 0.329536
C26   C     C_3   0.034833 0.381183 0.455181 0.364548
H1    H     H_    0.991819 0.167188 0.228059 0.188130
H2    H     H_    0.922798 0.887776 0.348955 0.206305
H3    H     H_    0.891683 0.733617 0.219921 0.193766
H4    H     H_    0.952438 0.880980 0.140095 0.170802
H5    H     H_    0.980025 0.368571 0.035524 0.202639
H6    H     H_    0.983171 0.562382 0.083824 0.217124
H7    H     H_    0.818636 0.571134 0.016299 0.238971
H8    H     H_    0.887337 0.554187 0.850086 0.256733
H9    H     H_    0.834769 0.391322 0.922305 0.256826
H10   H     H_    0.151140 0.726649 0.741178 0.145390
H11   H     H_    0.197425 0.546340 0.810173 0.173470
H12   H     H_    0.975653 0.125845 0.442829 0.184110
H13   H     H_    0.162670 0.606268 0.096375 0.277175
H14   H     H_    0.231745 0.741756 0.011833 0.210349
H15   H     H_    0.119712 0.786468 0.027353 0.262737
H16   H     H_    0.061874 0.038744 0.341325 0.213937
H17   H     H_    0.027996 0.881162 0.612925 0.164490
H18   H     H_    0.996487 0.833023 0.818882 0.200826
H19   H     H_    0.936956 0.969828 0.697090 0.215999
H20   H     H_    0.096902 0.291963 0.847398 0.208369
H21   H     H_    0.086080 0.149127 0.690609 0.199619
H22   H     H_    0.040085 0.126471 0.884630 0.164536
N1    N     N_1   0.500010 0.500000 0.073640 -0.031643
N2    N     N_1   0.499990 0.500000 0.926360 -0.031827
O1    O     O_R   0.500000 0.285340 0.636850 -0.613561
O2    O     O_3   0.917648 0.754292 0.628058 -0.607058
O3    O     O_3   0.975324 0.275195 0.727570 -0.615065
O4    O     O_3   0.022266 0.740387 0.299326 -0.625644
O5    O     O_3   0.909830 0.426200 0.230951 -0.630230
O6    O     O_3   0.066866 0.569460 0.824577 -0.630015
O7    O     O_R   0.500000 0.714660 0.363150 -0.615486
O8    O     O_R   0.500000 0.285340 0.363150 -0.612881
O9    O     O_R   0.500000 0.714660 0.636850 -0.614749
O10   O     O_R   0.376770 0.500000 0.636850 -0.624674
O11   O     O_R   0.623230 0.500000 0.363150 -0.604831
O12   O     O_R   0.376780 0.500000 0.363100 -0.610393
O13   O     O_R   0.623220 0.500000 0.636900 -0.615190
O14   O     O_3   0.080506 0.257731 0.395086 -0.603807
Zn1   Zn    Zn3+2 0.499990 0.500000 0.682780 0.993352
Zn2   Zn    Zn3+2 0.500010 0.500000 0.317220 1.000919

loop_
_geom_bond_atom_site_label_1
_geom_bond_atom_site_label_2
_ccdc_geom_bond_type
C11   H12   S    
C13   H19   S    
O13   Zn1   S    
C21   O9    A    
C14   H21   S    
C3    C9    T    
C18   O6    S    
C20   O1    A    
C13   O2    S    
C6    O5    S    
C5    O6    S    
C17   H8    S    
C7    C25   S    
C11   H1    S    
O7    Zn2   S    
O1    Zn1   S    
C23   O13   A    
C12   C21   S    
C16   O5    S    
C14   H20   S    
O9    Zn1   S    
C16   H5    S    
C21   O7    A    
C5    C24   S    
C18   H10   S    
C15   H2    S    
C6    C26   S    
C7    C26   S    
C2    O2    S    
C15   H4    S    
C14   H22   S    
C19   H13   S    
C1    C20   S    
C17   H7    S    
C8    C24   S    
C18   H11   S    
C24   C26   S    
O10   Zn1   S    
C15   H3    S    
C2    C25   S    
C5    C7    S    
C22   O10   A    
N2    Zn1   S    
C2    C8    S    
C2    C5    S    
C22   O12   A    
N1    Zn2   S    
O12   Zn2   S    
C20   O8    A    
C6    C25   S    
C15   O4    S    
C13   H17   S    
C14   O3    S    
C25   O4    S    
C11   H16   S    
C8    C10   S    
N1    N2    T    
C19   H14   S    
C23   O11   A    
C7    C9    S    
C4    C23   S    
C26   O14   S    
C16   H6    S    
C18   C19   S    
C3    C22   S    
C6    C8    S    
C17   H9    S    
C24   O3    S    
C4    C10   T    
O11   Zn2   S    
O8    Zn2   S    
C13   H18   S    
C1    C12   T    
C19   H15   S    
C16   C17   S    
C11   O14   S    
