data_mof_unit_33148.cif
_audit_creation_date              2012-12-10T18:36:18-0500
_audit_creation_method            fapswitch 2.2
_symmetry_space_group_name_H-M    P1
_symmetry_Int_Tables_number       1
_space_group_crystal_system       triclinic
_cell_length_a                    14.917656
_cell_length_b                    15.469325
_cell_length_c                    19.159142
_cell_angle_alpha                 89.59295
_cell_angle_beta                  104.575175
_cell_angle_gamma                 81.6481
_cell_volume                      4229.21278684

loop_
_atom_site_label
_atom_site_type_symbol
_atom_type_description
_atom_site_fract_x
_atom_site_fract_y
_atom_site_fract_z
_atom_type_partial_charge
C1    C     C_R   0.441054 0.662393 0.489687 0.881486
C2    C     C_R   0.532016 0.186605 0.506828 -0.260788
C3    C     C_R   0.442620 0.901088 0.509308 0.066079
C4    C     C_R   0.556967 0.099300 0.530364 0.057773
C5    C     C_R   0.345340 0.935852 0.498297 0.055705
C6    C     C_R   0.653301 0.065670 0.559243 0.085356
C7    C     C_R   0.513532 0.954659 0.528925 0.046459
C8    C     C_R   0.487141 0.045049 0.523434 0.036273
C9    C     C_R   0.392604 0.079664 0.517525 -0.238373
C10   C     C_R   0.610237 0.920379 0.551543 -0.244210
C11   C     C_R   0.322349 0.026519 0.510949 0.082501
C12   C     C_R   0.558884 0.337720 0.510359 0.877355
C13   C     C_R   0.680189 0.973751 0.561235 0.077631
C14   C     C_R   0.843389 0.628961 0.618718 0.010444
C15   C     C_R   0.168921 0.344287 0.405335 -0.000724
C16   C     C_R   0.501241 0.499123 0.634662 0.879084
C17   C     C_R   0.499752 0.498029 0.365628 0.877702
C18   C     C_R   0.752234 0.609204 0.593484 -0.034277
C19   C     C_R   0.253684 0.377912 0.418121 -0.030699
C20   C     C_R   0.795778 0.511959 0.509188 -0.075868
C21   C     C_R   0.203992 0.488410 0.490391 -0.075848
C22   C     C_R   0.890088 0.524355 0.532360 -0.047916
C23   C     C_R   0.404443 0.755648 0.487465 -0.104290
C24   C     C_R   0.117470 0.458602 0.482650 -0.049585
C25   C     C_R   0.914533 0.586179 0.586765 0.111264
C26   C     C_R   0.097467 0.387172 0.436893 0.113402
C27   C     C_R   0.959621 0.477106 0.502138 0.069195
C28   C     C_R   0.050843 0.499067 0.518776 0.068010
C29   C     C_R   0.074251 0.558741 0.573056 -0.278921
C30   C     C_R   0.941046 0.406598 0.457397 -0.279203
C31   C     C_R   0.009179 0.601150 0.607097 0.083609
C32   C     C_R   0.007274 0.361920 0.425466 0.090182
C33   C     C_R   0.434913 0.456716 0.732947 -0.253328
C34   C     C_R   0.595596 0.244802 0.523474 -0.094057
C35   C     C_R   0.573622 0.513894 0.265390 -0.257204
C36   C     C_R   0.438762 0.446080 0.805575 0.104118
C37   C     C_R   0.577106 0.501322 0.194353 0.107836
C38   C     C_R   0.513541 0.471891 0.857693 0.039934
C39   C     C_R   0.508011 0.460619 0.148132 0.042400
C40   C     C_R   0.585298 0.508736 0.837051 0.076792
C41   C     C_R   0.436389 0.429985 0.173385 0.076014
C42   C     C_R   0.579983 0.517830 0.763060 -0.203863
C43   C     C_R   0.433727 0.445008 0.244895 -0.201929
C44   C     C_R   0.505148 0.492264 0.711377 -0.092260
C45   C     C_R   0.277267 0.877585 0.474942 0.106317
C46   C     C_R   0.501504 0.487037 0.290501 -0.090446
C47   C     C_R   0.507491 0.457005 0.072361 0.292126
C48   C     C_R   0.511739 0.465159 0.933072 0.297380
C49   C     C_3   0.863767 0.692430 0.679688 -0.395014
C50   C     C_3   0.780940 0.731585 0.709653 -0.406210
C51   C     C_3   0.810973 0.794632 0.768995 -0.865915
C52   C     C_3   0.157172 0.262955 0.360817 -0.397749
C53   C     C_3   0.243529 0.218912 0.337197 -0.403290
C54   C     C_3   0.223699 0.136099 0.297091 -0.855966
C55   C     C_3   0.664476 0.538745 0.894449 -0.401133
C56   C     C_R   0.716590 0.126509 0.584545 0.099125
C57   C     C_3   0.729368 0.591181 0.866591 -0.375978
C58   C     C_3   0.801656 0.621951 0.929072 -0.857656
C59   C     C_3   0.365075 0.381612 0.123544 -0.400957
C60   C     C_3   0.306676 0.331757 0.160941 -0.375928
C61   C     C_3   0.246417 0.277129 0.107870 -0.861166
C62   C     C_3   0.227823 0.065514 0.524138 -0.436920
C63   C     C_3   0.224996 0.151809 0.563923 -0.349184
C64   C     C_3   0.131201 0.176930 0.582591 -0.883309
C65   C     C_3   0.779365 0.930433 0.562694 -0.455899
C66   C     C_3   0.782496 0.869359 0.499904 -0.323182
C67   C     C_R   0.309495 0.786986 0.477038 -0.206514
C68   C     C_3   0.883267 0.836311 0.497604 -0.888402
C69   C     C_3   0.173750 0.910547 0.439862 -0.448919
C70   C     C_3   0.118981 0.846068 0.391987 -0.347149
C71   C     C_3   0.023110 0.891598 0.348618 -0.881684
C72   C     C_3   0.806846 0.103308 0.644037 -0.466227
C73   C     C_3   0.806980 0.158319 0.710683 -0.321323
C74   C     C_3   0.893299 0.127335 0.772365 -0.883279
C75   C     C_R   0.687887 0.215139 0.562051 -0.218906
C76   C     C_R   0.467828 0.813654 0.496829 -0.260031
H1    H     H_    0.377116 0.435779 0.693567 0.164691
H2    H     H_    0.379652 0.423482 0.266032 0.151777
H3    H     H_    0.462031 0.210184 0.474401 0.149927
H4    H     H_    0.537895 0.788972 0.493583 0.160853
H5    H     H_    0.735698 0.261920 0.578618 0.158035
H6    H     H_    0.260912 0.740333 0.467190 0.152102
H7    H     H_    0.374803 0.148508 0.523784 0.147028
H8    H     H_    0.633774 0.851394 0.562482 0.137028
H9    H     H_    0.095885 0.624282 0.702555 0.188945
H10   H     H_    0.070129 0.707771 0.639606 0.182695
H11   H     H_    0.920769 0.317523 0.338608 0.189081
H12   H     H_    0.626823 0.545770 0.300476 0.161117
H13   H     H_    0.959559 0.245630 0.410728 0.179713
H14   H     H_    0.868393 0.760793 0.813583 0.260286
H15   H     H_    0.835363 0.851006 0.747047 0.253021
H16   H     H_    0.750515 0.819679 0.790982 0.254732
H17   H     H_    0.724561 0.768195 0.665913 0.222179
H18   H     H_    0.753048 0.678283 0.732596 0.217455
H19   H     H_    0.917771 0.657055 0.725778 0.229534
H20   H     H_    0.891088 0.748139 0.659761 0.227003
H21   H     H_    0.206367 0.087750 0.332814 0.254942
H22   H     H_    0.164441 0.151779 0.248259 0.257752
H23   H     H_    0.222919 0.544545 0.520169 0.132316
H24   H     H_    0.286796 0.106496 0.280088 0.253793
H25   H     H_    0.263199 0.264568 0.300550 0.217862
H26   H     H_    0.303277 0.200530 0.385329 0.224271
H27   H     H_    0.137879 0.212858 0.393825 0.230380
H28   H     H_    0.099952 0.281270 0.311029 0.229544
H29   H     H_    0.302517 0.446028 0.803112 0.185400
H30   H     H_    0.365838 0.345636 0.805395 0.182121
H31   H     H_    0.714067 0.502379 0.200206 0.184503
H32   H     H_    0.644637 0.599836 0.175646 0.182658
H33   H     H_    0.766262 0.666161 0.962693 0.261613
H34   H     H_    0.770054 0.470746 0.466062 0.136671
H35   H     H_    0.844908 0.565042 0.963239 0.262078
H36   H     H_    0.848602 0.658184 0.907527 0.249164
H37   H     H_    0.767554 0.549645 0.832995 0.222470
H38   H     H_    0.687130 0.649536 0.833715 0.227164
H39   H     H_    0.632729 0.580549 0.931633 0.212822
H40   H     H_    0.708062 0.480079 0.925986 0.218691
H41   H     H_    0.197821 0.319768 0.063194 0.262830
H42   H     H_    0.291359 0.227345 0.085141 0.261854
H43   H     H_    0.204425 0.242918 0.136311 0.251117
H44   H     H_    0.354011 0.287320 0.205079 0.224471
H45   H     H_    0.310617 0.349039 0.396526 0.137267
H46   H     H_    0.259252 0.378837 0.183886 0.220591
H47   H     H_    0.316594 0.429380 0.082646 0.217088
H48   H     H_    0.403694 0.333226 0.094733 0.209349
H49   H     H_    0.072819 0.184140 0.532783 0.260630
H50   H     H_    0.120379 0.126347 0.619819 0.256736
H51   H     H_    0.130390 0.240332 0.609435 0.255395
H52   H     H_    0.282063 0.145044 0.614640 0.229960
H53   H     H_    0.233578 0.206024 0.528977 0.225792
H54   H     H_    0.174257 0.078215 0.472012 0.194774
H55   H     H_    0.208188 0.017143 0.558487 0.208656
H56   H     H_    0.695673 0.637203 0.615856 0.140067
H57   H     H_    0.919774 0.892021 0.490220 0.255329
H58   H     H_    0.922120 0.798733 0.548381 0.264182
H59   H     H_    0.883242 0.792741 0.451787 0.256120
H60   H     H_    0.748292 0.811515 0.505724 0.221310
H61   H     H_    0.744773 0.905156 0.447873 0.228482
H62   H     H_    0.823778 0.980296 0.557278 0.210483
H63   H     H_    0.810416 0.892703 0.614756 0.201320
H64   H     H_    0.982044 0.922438 0.385272 0.260794
H65   H     H_    0.031339 0.942639 0.310597 0.261038
H66   H     H_    0.983830 0.842944 0.316985 0.251946
H67   H     H_    0.144973 0.571607 0.593448 0.139047
H68   H     H_    0.158797 0.817636 0.353573 0.232078
H69   H     H_    0.107537 0.792535 0.426259 0.219029
H70   H     H_    0.136478 0.929513 0.481970 0.195782
H71   H     H_    0.170697 0.967743 0.403662 0.207724
H72   H     H_    0.893924 0.058443 0.789506 0.259599
H73   H     H_    0.958199 0.132333 0.755148 0.262090
H74   H     H_    0.892078 0.168901 0.819230 0.251930
H75   H     H_    0.807118 0.228248 0.697356 0.219211
H76   H     H_    0.743092 0.152996 0.729345 0.229947
H77   H     H_    0.815984 0.034487 0.663940 0.211272
H78   H     H_    0.875697 0.381286 0.447765 0.139009
H79   H     H_    0.867463 0.112972 0.622524 0.199259
H80   H     H_    0.633319 0.544987 0.744812 0.148155
N1    N     N_R   0.585819 0.421910 0.983283 -0.191697
N2    N     N_3   0.649230 0.532560 0.168366 -0.451334
N3    N     N_R   0.433215 0.499479 0.022065 -0.187052
N4    N     N_R   0.583941 0.418292 0.052165 -0.154849
N5    N     N_R   0.435189 0.503263 0.953339 -0.154021
N6    N     N_R   0.731690 0.552730 0.540620 -0.114402
N7    N     N_R   0.268310 0.447270 0.459380 -0.113490
N8    N     N_3   0.042143 0.659559 0.662167 -0.502055
N9    N     N_3   0.979291 0.292245 0.380091 -0.498680
N10   N     N_3   0.367057 0.407680 0.826601 -0.451691
O1    O     O_R   0.383120 0.605620 0.479520 -0.616196
O2    O     O_R   0.616880 0.394380 0.520480 -0.615369
O3    O     O_R   0.531890 0.639510 0.505590 -0.621659
O4    O     O_R   0.468110 0.360490 0.494410 -0.624798
O5    O     O_R   0.425590 0.483060 0.588820 -0.615623
O6    O     O_R   0.574410 0.516940 0.411180 -0.617799
O7    O     O_R   0.574360 0.516950 0.614890 -0.625593
O8    O     O_R   0.425640 0.483050 0.385110 -0.623795
Zn1   Zn    Zn3+2 0.400660 0.477370 0.482600 0.927516
Zn2   Zn    Zn3+2 0.599340 0.522630 0.517400 0.927593

loop_
_geom_bond_atom_site_label_1
_geom_bond_atom_site_label_2
_ccdc_geom_bond_type
C16   O7    A    
C25   C31   A    
C7    C10   A    
C66   C68   S    
C52   H27   S    
C26   C32   A    
C21   N7    A    
C61   H43   S    
C58   H33   S    
C73   C74   S    
C62   H54   S    
C18   H56   S    
C68   H58   S    
C23   C76   A    
C4    C8    A    
C11   C62   S    
N7    Zn1   S    
C17   O6    A    
C7    C8    A    
C39   C41   A    
C13   C65   S    
C53   C54   S    
C52   C53   S    
C43   H2    S    
C15   C19   A    
C55   H39   S    
C58   H36   S    
H30   N10   S    
C74   H72   S    
C28   C29   A    
C35   C37   A    
C24   C26   A    
C5    C11   A    
C3    C7    A    
C51   H14   S    
C21   H23   S    
C14   C49   S    
H32   N2    S    
C55   H40   S    
C1    O1    A    
C29   H67   S    
C33   C36   A    
H29   N10   S    
C23   C67   A    
C14   C18   A    
O8    Zn1   S    
C2    H3    S    
C51   H15   S    
C19   H45   S    
C53   H25   S    
C8    C9    A    
C56   C72   S    
C22   C25   A    
C45   C67   A    
N3    N5    A    
C54   H21   S    
C70   C71   S    
C16   C44   S    
C38   C48   S    
C63   H52   S    
C34   C75   A    
O4    Zn1   S    
C2    C34   A    
C40   C42   A    
C59   C60   S    
C49   H20   S    
C72   H79   S    
C32   N9    S    
C73   H75   S    
C27   C30   A    
C69   H70   S    
C41   C43   A    
C54   H24   S    
C42   C44   A    
C47   N4    A    
C59   H47   S    
C45   C69   S    
C58   H35   S    
C24   C28   A    
C17   C46   S    
C41   C59   S    
C4    C6    A    
C50   H18   S    
C15   C26   A    
C57   H37   S    
C48   N5    A    
C1    O3    A    
C5    C45   A    
C42   H80   S    
C54   H22   S    
C60   C61   S    
C37   N2    S    
C2    C4    A    
C62   C63   S    
C51   H16   S    
C35   H12   S    
C38   C40   A    
C53   H26   S    
C40   C55   S    
C20   N6    A    
C36   N10   S    
C50   C51   S    
C74   H73   S    
C70   H69   S    
C19   N7    A    
C15   C52   S    
C49   H19   S    
C60   H46   S    
C3    C76   A    
C9    C11   A    
H13   N9    S    
C71   H64   S    
C68   H57   S    
C9    H7    S    
C71   H66   S    
C66   H60   S    
C65   H62   S    
C20   C22   A    
C49   C50   S    
N1    N4    A    
C64   H50   S    
C22   C27   A    
C55   C57   S    
C73   H76   S    
C69   H71   S    
C20   H34   S    
H10   N8    S    
C65   C66   S    
C12   C34   S    
H31   N2    S    
C17   O8    A    
C39   C47   S    
O7    Zn2   S    
C59   H48   S    
O2    Zn2   S    
C31   N8    S    
C52   H28   S    
C72   H77   S    
C61   H42   S    
C33   C44   A    
C62   H55   S    
C68   H59   S    
C75   H5    S    
C76   H4    S    
C6    C56   A    
C72   C73   S    
C3    C5    A    
C10   C13   A    
C12   O2    A    
C12   O4    A    
C50   H17   S    
C1    C23   S    
C57   H38   S    
C48   N1    A    
C70   H68   S    
C71   H65   S    
C36   C38   A    
C37   C39   A    
C61   H41   S    
C64   H51   S    
C30   C32   A    
C18   N6    A    
C16   O5    A    
C33   H1    S    
C57   C58   S    
H11   N9    S    
C66   H61   S    
O5    Zn1   S    
C10   H8    S    
O3    Zn2   S    
C60   H44   S    
O1    Zn1   S    
C63   H53   S    
C14   C25   A    
C69   C70   S    
C43   C46   A    
C63   C64   S    
C65   H63   S    
C30   H78   S    
N6    Zn2   S    
C67   H6    S    
C29   C31   A    
C64   H49   S    
C21   C24   A    
C27   C28   A    
C56   C75   A    
H9    N8    S    
C74   H74   S    
C35   C46   A    
O6    Zn2   S    
C6    C13   A    
C47   N3    A    
