data_mof_unit_30004.cif
_audit_creation_date              2012-12-11T14:42:01-0500
_audit_creation_method            fapswitch 2.2
_symmetry_space_group_name_H-M    P1
_symmetry_Int_Tables_number       1
_space_group_crystal_system       triclinic
_cell_length_a                    18.953815
_cell_length_b                    10.939549
_cell_length_c                    18.85488
_cell_angle_alpha                 90.217024
_cell_angle_beta                  89.932851
_cell_angle_gamma                 90.176101
_cell_volume                      3909.43834912

loop_
_atom_site_label
_atom_site_type_symbol
_atom_type_description
_atom_site_fract_x
_atom_site_fract_y
_atom_site_fract_z
_atom_type_partial_charge
C1    C     C_R   0.726534 0.956719 0.854054 0.543583
C2    C     C_R   0.273425 0.956425 0.146003 0.548861
C3    C     C_R   0.226534 0.456718 0.854053 0.543592
C4    C     C_R   0.773422 0.456414 0.146008 0.548875
C5    C     C_R   0.691650 0.438527 0.041825 0.193372
C6    C     C_R   0.308514 0.437507 0.958014 0.192681
C7    C     C_R   0.191673 0.938674 0.041796 0.193478
C8    C     C_R   0.808507 0.937556 0.958023 0.192667
C9    C     C_R   0.758867 0.424499 0.072611 -0.044504
C10   C     C_R   0.241000 0.425497 0.927456 -0.043198
C11   C     C_R   0.258877 0.924545 0.072598 -0.044551
C12   C     C_R   0.740999 0.925500 0.927457 -0.043218
C13   C     C_R   0.818055 0.404934 0.029909 -0.167701
C14   C     C_R   0.181764 0.407431 0.970364 -0.166935
C15   C     C_R   0.318064 0.904927 0.029905 -0.167729
C16   C     C_R   0.681764 0.907393 0.970360 -0.166877
C17   C     C_R   0.812833 0.397180 0.957173 0.196000
C18   C     C_R   0.187288 0.398260 0.043029 0.195502
C19   C     C_R   0.312850 0.897168 0.957166 0.196051
C20   C     C_R   0.687283 0.898218 0.043023 0.195463
C21   C     C_R   0.746246 0.410480 0.925409 0.034767
C22   C     C_R   0.254130 0.409740 0.074565 0.033357
C23   C     C_R   0.246269 0.910526 0.925393 0.034743
C24   C     C_R   0.754119 0.909748 0.074568 0.033336
C25   C     C_R   0.472873 0.270143 0.544904 -0.135783
C26   C     C_R   0.469070 0.275459 0.472623 -0.131957
C27   C     C_R   0.972873 0.770144 0.544904 -0.135783
C28   C     C_R   0.969071 0.775459 0.472623 -0.131959
C29   C     C_R   0.483983 0.171573 0.431385 0.037585
C30   C     C_R   0.496906 0.163605 0.576894 0.032012
C31   C     C_R   0.983983 0.671573 0.431385 0.037586
C32   C     C_R   0.996906 0.663605 0.576894 0.032014
C33   C     C_R   0.501231 0.060881 0.463636 -0.144329
C34   C     C_R   0.508048 0.056879 0.536702 -0.138516
C35   C     C_R   0.001230 0.560881 0.463636 -0.144328
C36   C     C_R   0.008048 0.556879 0.536703 -0.138515
C37   C     C_R   0.815176 0.400066 0.543790 -0.136421
C38   C     C_R   0.222212 0.274998 0.478947 -0.132394
C39   C     C_R   0.315176 0.900070 0.543790 -0.136421
C40   C     C_R   0.722211 0.774998 0.478947 -0.132394
C41   C     C_R   0.821749 0.411626 0.471429 -0.124877
C42   C     C_R   0.214033 0.303993 0.550154 -0.128241
C43   C     C_R   0.321749 0.911630 0.471430 -0.124878
C44   C     C_R   0.714033 0.803993 0.550154 -0.128241
C45   C     C_R   0.529638 0.177842 0.850805 0.563463
C46   C     C_R   0.470395 0.177735 0.149212 0.568900
C47   C     C_R   0.029637 0.677843 0.850804 0.563468
C48   C     C_R   0.970396 0.677735 0.149212 0.568867
C49   C     C_R   0.762211 0.434870 0.429057 0.032446
C50   C     C_R   0.251635 0.402364 0.579928 0.026588
C51   C     C_R   0.262212 0.934871 0.429057 0.032444
C52   C     C_R   0.751635 0.902364 0.579928 0.026588
C53   C     C_R   0.696132 0.450625 0.460491 -0.153685
C54   C     C_R   0.301791 0.464719 0.538914 -0.141997
C55   C     C_R   0.196132 0.950623 0.460490 -0.153686
C56   C     C_R   0.801792 0.964719 0.538914 -0.141997
C57   C     C_R   0.689343 0.437816 0.533513 -0.136957
C58   C     C_R   0.310267 0.434969 0.467609 -0.135147
C59   C     C_R   0.189343 0.937813 0.533513 -0.136957
C60   C     C_R   0.810267 0.934968 0.467610 -0.135148
C61   C     C_R   0.748754 0.409052 0.575062 0.031397
C62   C     C_R   0.268803 0.342323 0.436714 0.031003
C63   C     C_R   0.248754 0.909052 0.575062 0.031398
C64   C     C_R   0.768803 0.842323 0.436714 0.031002
C65   C     C_R   0.737869 0.364295 0.853065 0.596336
C66   C     C_R   0.262269 0.363963 0.146855 0.608661
C67   C     C_R   0.237874 0.864307 0.853060 0.596328
C68   C     C_R   0.762267 0.863966 0.146855 0.608631
C69   C     C_R   0.728600 0.953251 0.647927 0.546756
C70   C     C_R   0.273933 0.959527 0.354410 0.541160
C71   C     C_R   0.228600 0.453251 0.647927 0.546751
C72   C     C_R   0.773933 0.459527 0.354410 0.541156
C73   C     C_R   0.528523 0.175238 0.645788 0.547353
C74   C     C_R   0.467205 0.176989 0.357141 0.541423
C75   C     C_R   0.028523 0.675238 0.645788 0.547349
C76   C     C_R   0.967205 0.676989 0.357141 0.541426
C77   C     C_R   0.739179 0.362219 0.646266 0.545980
C78   C     C_R   0.274110 0.313111 0.361135 0.555124
C79   C     C_R   0.239179 0.862219 0.646266 0.545970
C80   C     C_R   0.774110 0.813111 0.361135 0.555124
C81   C     C_2   0.497692 0.170387 0.921330 -0.084016
C82   C     C_2   0.502368 0.170011 0.078700 -0.083700
C83   C     C_2   0.997688 0.670392 0.921328 -0.083906
C84   C     C_2   0.002362 0.670014 0.078698 -0.083681
C85   C     C_2   0.493405 0.070045 0.038221 -0.125593
C86   C     C_2   0.505876 0.070138 0.961265 -0.125251
C87   C     C_2   0.993394 0.570050 0.038217 -0.125622
C88   C     C_2   0.005865 0.570142 0.961262 -0.125255
C89   C     C_R   0.685753 0.436939 0.967337 0.226723
C90   C     C_R   0.314743 0.434953 0.032487 0.225673
C91   C     C_R   0.185791 0.937130 0.967311 0.226711
C92   C     C_R   0.814728 0.935025 0.032496 0.225681
Cr1   Cr    Cr6+3 0.769270 0.163730 0.750710 1.021114
Cr2   Cr    Cr6+3 0.230730 0.163730 0.249290 1.019960
Cr3   Cr    Cr6+3 0.269270 0.663730 0.750710 1.021148
Cr4   Cr    Cr6+3 0.730730 0.663730 0.249290 1.019956
Cr5   Cr    Cr6+3 0.612620 0.009790 0.748780 1.011487
Cr6   Cr    Cr6+3 0.387380 0.009790 0.251220 1.010385
Cr7   Cr    Cr6+3 0.112620 0.509790 0.748780 1.011472
Cr8   Cr    Cr6+3 0.887380 0.509790 0.251220 1.010356
Cr9   Cr    Cr6+3 0.614160 0.322500 0.747710 1.051139
Cr10  Cr    Cr6+3 0.385840 0.322500 0.252290 1.051598
Cr11  Cr    Cr6+3 0.114160 0.822500 0.747710 1.051162
Cr12  Cr    Cr6+3 0.885840 0.822500 0.252290 1.051616
H1    H     H_    0.476242 0.985084 0.061848 0.147945
H2    H     H_    0.522389 0.985023 0.937168 0.149072
H3    H     H_    0.976230 0.485091 0.061845 0.147928
H4    H     H_    0.022373 0.485026 0.937166 0.149043
H5    H     H_    0.874095 0.403401 0.448875 0.139124
H6    H     H_    0.175314 0.253796 0.580837 0.129573
H7    H     H_    0.374096 0.903408 0.448875 0.139124
H8    H     H_    0.675313 0.753797 0.580837 0.129574
H9    H     H_    0.650178 0.471777 0.428763 0.120293
H10   H     H_    0.331190 0.541268 0.560564 0.129938
H11   H     H_    0.150177 0.971772 0.428763 0.120294
H12   H     H_    0.831190 0.041267 0.560565 0.129937
H13   H     H_    0.637175 0.444105 0.556741 0.138040
H14   H     H_    0.347154 0.487823 0.436243 0.128728
H15   H     H_    0.137175 0.944099 0.556740 0.138041
H16   H     H_    0.847155 0.987822 0.436244 0.128727
H17   H     H_    0.523586 0.253542 0.056005 0.143952
H18   H     H_    0.477045 0.254079 0.944449 0.144729
H19   H     H_    0.023581 0.753545 0.056002 0.144224
H20   H     H_    0.977045 0.754087 0.944447 0.144968
H21   H     H_    0.869922 0.399256 0.052926 0.144968
H22   H     H_    0.129715 0.403718 0.947563 0.145457
H23   H     H_    0.369925 0.899205 0.052931 0.144940
H24   H     H_    0.629715 0.903644 0.947555 0.145483
H25   H     H_    0.462847 0.352755 0.575178 0.129035
H26   H     H_    0.453495 0.361476 0.449339 0.132225
H27   H     H_    0.962848 0.852756 0.575178 0.129035
H28   H     H_    0.953496 0.861477 0.449339 0.132224
H29   H     H_    0.510331 0.978983 0.432506 0.125117
H30   H     H_    0.526441 0.973215 0.560940 0.134406
H31   H     H_    0.010330 0.478982 0.432506 0.125117
H32   H     H_    0.026440 0.473214 0.560940 0.134405
H33   H     H_    0.861580 0.378445 0.574795 0.127208
H34   H     H_    0.190468 0.202475 0.456246 0.127940
H35   H     H_    0.361580 0.878451 0.574796 0.127210
H36   H     H_    0.690467 0.702476 0.456245 0.127940
O1    O     O_R   0.784320 0.290430 0.830510 -0.488573
O2    O     O_R   0.215680 0.290430 0.169490 -0.483482
O3    O     O_R   0.284320 0.790430 0.830510 -0.488509
O4    O     O_R   0.715680 0.790430 0.169490 -0.483517
O5    O     O_R   0.554640 0.080370 0.673500 -0.506598
O6    O     O_R   0.445360 0.080370 0.326500 -0.508710
O7    O     O_R   0.054640 0.580370 0.673500 -0.506599
O8    O     O_R   0.945360 0.580370 0.326500 -0.508711
O9    O     O_R   0.543920 0.282180 0.666790 -0.530429
O10   O     O_R   0.456080 0.282180 0.333210 -0.538476
O11   O     O_R   0.043920 0.782180 0.666790 -0.530437
O12   O     O_R   0.956080 0.782180 0.333210 -0.538475
O13   O     O_R   0.679040 0.374160 0.674430 -0.511100
O14   O     O_R   0.320960 0.374160 0.325570 -0.509734
O15   O     O_R   0.179040 0.874160 0.674430 -0.511109
O16   O     O_R   0.820960 0.874160 0.325570 -0.509735
O17   O     O_3   0.665350 0.165340 0.749070 -0.255208
O18   O     O_3   0.334650 0.165340 0.250930 -0.280835
O19   O     O_3   0.165350 0.665340 0.749070 -0.255213
O20   O     O_3   0.834650 0.665340 0.250930 -0.280829
O21   O     O_R   0.762640 0.040960 0.825200 -0.493349
O22   O     O_R   0.237360 0.040960 0.174800 -0.490053
O23   O     O_R   0.262640 0.540960 0.825200 -0.493317
O24   O     O_R   0.737360 0.540960 0.174800 -0.490034
O25   O     O_R   0.667400 0.923970 0.829950 -0.529692
O26   O     O_R   0.332600 0.923970 0.170050 -0.525119
O27   O     O_R   0.167400 0.423970 0.829950 -0.529711
O28   O     O_R   0.832600 0.423970 0.170050 -0.525142
O29   O     O_R   0.553960 0.081340 0.821780 -0.506255
O30   O     O_R   0.446040 0.081340 0.178220 -0.501598
O31   O     O_R   0.053960 0.581340 0.821780 -0.506275
O32   O     O_R   0.946040 0.581340 0.178220 -0.501617
O33   O     O_R   0.543180 0.283240 0.826740 -0.475772
O34   O     O_R   0.456820 0.283240 0.173260 -0.472858
O35   O     O_R   0.043180 0.783240 0.826740 -0.475719
O36   O     O_R   0.956820 0.783240 0.173260 -0.472851
O37   O     O_R   0.678360 0.375140 0.822710 -0.448802
O38   O     O_R   0.321640 0.375140 0.177290 -0.443264
O39   O     O_R   0.178360 0.875140 0.822710 -0.448810
O40   O     O_R   0.821640 0.875140 0.177290 -0.443250
O41   O     O_R   0.785050 0.289380 0.670560 -0.526297
O42   O     O_R   0.214950 0.289380 0.329440 -0.514927
O43   O     O_R   0.285050 0.789380 0.670560 -0.526297
O44   O     O_R   0.714950 0.789380 0.329440 -0.514927
O45   O     O_R   0.763320 0.039990 0.676930 -0.506974
O46   O     O_R   0.236680 0.039990 0.323070 -0.525023
O47   O     O_R   0.263320 0.539990 0.676930 -0.506980
O48   O     O_R   0.736680 0.539990 0.323070 -0.525023
O49   O     O_R   0.668130 0.922920 0.670000 -0.522667
O50   O     O_R   0.331870 0.922920 0.330000 -0.521230
O51   O     O_R   0.168130 0.422920 0.670000 -0.522669
O52   O     O_R   0.831870 0.422920 0.330000 -0.521234
O53   O     O_3   0.621279 0.454407 0.934463 -0.675788
H37   H     H_    0.584921 0.477862 0.969649 0.357065
O54   O     O_3   0.379605 0.450149 0.065150 -0.675367
H38   H     H_    0.416115 0.472752 0.029951 0.357691
O55   O     O_3   0.121335 0.954735 0.934436 -0.675659
H39   H     H_    0.085131 0.979178 0.969559 0.356866
O56   O     O_3   0.879581 0.950303 0.065163 -0.675324
H40   H     H_    0.916058 0.973146 0.029983 0.357707
O57   O     O_3   0.631320 0.451366 0.082437 -0.740563
H41   H     H_    0.639614 0.415609 0.129865 0.337370
O58   O     O_3   0.368810 0.449174 0.917213 -0.741971
H42   H     H_    0.359807 0.414697 0.869428 0.335799
O59   O     O_3   0.131329 0.951496 0.082388 -0.740344
H43   H     H_    0.139604 0.915712 0.129813 0.337365
O60   O     O_3   0.868808 0.949224 0.917230 -0.741918
H44   H     H_    0.859814 0.914735 0.869446 0.335804
O61   O     O_3   0.873160 0.382291 0.915933 -0.541534
C93   C     C_3   0.907586 0.271751 0.933643 0.012231
H45   H     H_    0.869355 0.195487 0.942143 0.187537
H46   H     H_    0.939741 0.284212 0.982275 0.098145
C94   C     C_3   0.956813 0.234752 0.873531 -0.335654
H47   H     H_    0.996155 0.308046 0.863483 0.143009
H48   H     H_    0.985151 0.149679 0.887943 0.130707
H49   H     H_    0.926071 0.217873 0.824347 0.173867
O62   O     O_3   0.127072 0.383872 0.084479 -0.538773
C95   C     C_3   0.091455 0.274332 0.065847 0.010406
H50   H     H_    0.128862 0.197464 0.056363 0.186040
H51   H     H_    0.059180 0.288302 0.017523 0.097890
C96   C     C_3   0.042187 0.237280 0.125855 -0.332700
H52   H     H_    0.003797 0.311335 0.137022 0.145730
H53   H     H_    0.012749 0.153243 0.110660 0.128926
H54   H     H_    0.073053 0.218584 0.174620 0.177262
O63   O     O_3   0.373173 0.882249 0.915925 -0.541528
C97   C     C_3   0.407627 0.771756 0.933678 0.012224
H55   H     H_    0.369414 0.695486 0.942248 0.187497
H56   H     H_    0.439813 0.784325 0.982281 0.098184
C98   C     C_3   0.456824 0.734682 0.873557 -0.335594
H57   H     H_    0.496131 0.808001 0.863427 0.143057
H58   H     H_    0.485206 0.649673 0.888012 0.130820
H59   H     H_    0.426051 0.717659 0.824408 0.173869
O64   O     O_3   0.627064 0.883783 0.084462 -0.538854
C99   C     C_3   0.591512 0.774168 0.065853 0.010554
H60   H     H_    0.628964 0.697336 0.056451 0.186314
H61   H     H_    0.559279 0.788010 0.017486 0.098012
C100  C     C_3   0.542198 0.737151 0.125831 -0.332707
H62   H     H_    0.503739 0.811147 0.136890 0.145601
H63   H     H_    0.512840 0.653012 0.110667 0.129111
H64   H     H_    0.573020 0.718643 0.174650 0.177227

loop_
_geom_bond_atom_site_label_1
_geom_bond_atom_site_label_2
_ccdc_geom_bond_type
C58   C62   A    
C17   O61   S    
O58   H42   S    
Cr3   O3    S    
Cr7   O19   S    
Cr8   O32   S    
C27   H27   S    
O57   H41   S    
C14   C18   A    
Cr9   O33   S    
C35   C36   A    
C84   C87   D    
C7    O59   S    
C25   H25   S    
C2    O22   A    
C32   C75   S    
C95   H50   S    
Cr3   O47   S    
Cr12  O36   S    
C21   C89   A    
O59   H43   S    
C84   H19   S    
C7    C11   A    
C66   O38   A    
C50   C54   A    
C43   H7    S    
C13   C17   A    
C82   C85   D    
Cr3   O19   S    
C32   C36   A    
C16   C20   A    
Cr12  O20   S    
C38   C42   A    
C96   H54   S    
C55   C59   A    
C5    O57   S    
C88   H4    S    
C49   C53   A    
C37   H33   S    
Cr7   O31   S    
C4    O24   A    
C34   H30   S    
C29   C33   A    
C58   H14   S    
Cr6   O30   S    
Cr5   O29   S    
Cr9   O17   S    
C18   O62   S    
C23   C67   S    
C9    C13   A    
C22   C66   S    
C52   C69   S    
C77   O13   A    
C46   C82   S    
C11   C15   A    
C54   H10   S    
C72   O48   A    
C90   O54   S    
C12   C16   A    
C61   C77   S    
C49   C72   S    
C77   O41   A    
C46   O34   A    
C80   O16   A    
C26   C29   A    
C8    C92   A    
C51   C70   S    
C47   C83   S    
C83   H20   S    
C92   O56   S    
O64   C99   S    
Cr2   O22   S    
C82   H17   S    
C51   C55   A    
C81   C86   D    
C26   H26   S    
Cr6   O50   S    
Cr11  O19   S    
C44   C52   A    
Cr5   O49   S    
C83   C88   D    
C1    O21   A    
O56   H40   S    
Cr2   O18   S    
C48   O32   A    
C100  H62   S    
C37   C41   A    
C47   O31   A    
C64   C80   S    
Cr10  O38   S    
Cr10  O18   S    
C67   O3    A    
C86   H2    S    
C1    C12   S    
C99   H61   S    
Cr4   O44   S    
C85   H1    S    
C2    C11   S    
C36   H32   S    
C41   C49   A    
C53   H9    S    
O61   C93   S    
Cr7   O27   S    
C94   H48   S    
C56   H12   S    
C62   C78   S    
C39   H35   S    
C97   H55   S    
C30   C34   A    
C3    O27   A    
O60   H44   S    
Cr2   O2    S    
Cr6   O18   S    
O63   C97   S    
Cr8   O52   S    
C65   O1    A    
C10   C14   A    
C69   O49   A    
C30   C73   S    
C53   C57   A    
C19   C23   A    
C78   O14   A    
O54   H38   S    
C63   C79   S    
C29   C74   S    
Cr6   O6    S    
C75   O7    A    
C25   C26   A    
C94   H47   S    
C68   O40   A    
C17   C21   A    
Cr4   O24   S    
C73   O5    A    
C78   O42   A    
C99   C100  S    
Cr5   O17   S    
C8    O60   S    
C15   C19   A    
C50   C71   S    
C28   C31   A    
C5    C9    A    
C98   H57   S    
C45   O33   A    
Cr4   O4    S    
C96   H52   S    
C48   C84   S    
Cr8   O20   S    
C95   H51   S    
Cr3   O43   S    
Cr1   O21   S    
C8    C12   A    
C89   O53   S    
Cr11  O35   S    
C33   C34   A    
C22   C90   A    
C87   H3    S    
Cr4   O20   S    
Cr12  O16   S    
Cr1   O17   S    
C16   H24   S    
C85   C86   S    
Cr6   O26   S    
C46   O30   A    
Cr10  O10   S    
C44   H8    S    
Cr11  O15   S    
C41   H5    S    
O62   C95   S    
C42   C50   A    
C20   O64   S    
C93   H46   S    
C100  H63   S    
C24   C92   A    
C23   C91   A    
C59   C63   A    
C100  H64   S    
C99   H60   S    
C2    O26   A    
C35   H31   S    
C97   C98   S    
C69   O45   A    
C7    C91   A    
Cr1   O1    S    
C70   O50   A    
C95   C96   S    
C57   H13   S    
C54   C58   A    
C94   H49   S    
C25   C30   A    
Cr7   O7    S    
C59   H15   S    
C73   O9    A    
C27   C32   A    
C18   C22   A    
C4    O28   A    
Cr5   O5    S    
C74   O6    A    
Cr1   O41   S    
C45   C81   S    
Cr2   O46   S    
C80   O44   A    
C71   O47   A    
C45   O29   A    
C71   O51   A    
C6    C10   A    
C68   O4    A    
C37   C61   A    
C57   C61   A    
C66   O2    A    
Cr11  O11   S    
Cr10  O34   S    
C93   C94   S    
C39   C63   A    
C81   H18   S    
C97   H56   S    
C14   H22   S    
C60   C64   A    
Cr3   O23   S    
Cr8   O28   S    
C21   C65   S    
C3    O23   A    
Cr12  O12   S    
C19   O63   S    
C70   O46   A    
C13   H21   S    
C6    O58   S    
C96   H53   S    
C3    C10   S    
C6    C90   A    
Cr10  O14   S    
C72   O52   A    
Cr7   O51   S    
C55   H11   S    
C43   C51   A    
C31   C76   S    
Cr12  O40   S    
C65   O37   A    
Cr8   O8    S    
Cr5   O25   S    
C40   C64   A    
C40   H36   S    
C31   C35   A    
Cr9   O9    S    
C79   O43   A    
C60   H16   S    
Cr11  O39   S    
C93   H45   S    
C75   O11   A    
C42   H6    S    
O55   H39   S    
C47   O35   A    
C67   O39   A    
Cr9   O37   S    
C24   C68   S    
C79   O15   A    
C98   H59   S    
C91   O55   S    
C33   H29   S    
C40   C44   A    
C56   C60   A    
C1    O25   A    
C76   O8    A    
C87   C88   S    
C98   H58   S    
O53   H37   S    
C39   C43   A    
C27   C28   A    
C76   O12   A    
C74   O10   A    
C15   H23   S    
C38   H34   S    
C28   H28   S    
C4    C9    S    
Cr2   O42   S    
Cr9   O13   S    
Cr4   O48   S    
C20   C24   A    
C5    C89   A    
C52   C56   A    
C48   O36   A    
C38   C62   A    
Cr1   O45   S    
