data_mof_unit_60245.cif
_audit_creation_date              2012-12-10T20:56:49-0500
_audit_creation_method            fapswitch 2.2
_symmetry_space_group_name_H-M    P1
_symmetry_Int_Tables_number       1
_space_group_crystal_system       triclinic
_cell_length_a                    26.511463
_cell_length_b                    32.979193
_cell_length_c                    21.17036
_cell_angle_alpha                 90.000018
_cell_angle_beta                  128.830648
_cell_angle_gamma                 90.0
_cell_volume                      14419.1915886

loop_
_atom_site_label
_atom_site_type_symbol
_atom_type_description
_atom_site_fract_x
_atom_site_fract_y
_atom_site_fract_z
_atom_type_partial_charge
C1    C     C_R   0.500000 0.145607 0.500000 0.491091
C2    C     C_R   0.733351 0.642419 0.659543 -0.004866
C3    C     C_R   0.641369 0.750031 0.500199 0.556155
C4    C     C_R   0.140417 0.751051 0.498484 0.557953
C5    C     C_R   0.858631 0.250031 0.499801 0.556155
C6    C     C_R   0.859583 0.751051 0.501516 0.557953
C7    C     C_R   0.141369 0.250031 0.500199 0.556155
C8    C     C_R   0.395582 0.250038 0.291177 0.486317
C9    C     C_R   0.604454 0.749978 0.708823 0.502941
C10   C     C_R   0.604418 0.250038 0.708823 0.486317
C11   C     C_R   0.395546 0.749978 0.291177 0.502941
C12   C     C_R   0.895582 0.750038 0.291177 0.486317
C13   C     C_R   0.717551 0.366394 0.638813 -0.006937
C14   C     C_R   0.104454 0.249978 0.708823 0.502941
C15   C     C_R   0.104417 0.750038 0.708823 0.486317
C16   C     C_R   0.895546 0.249978 0.291177 0.502941
C17   C     C_1   0.649490 0.250065 0.798964 -0.033925
C18   C     C_1   0.350383 0.749958 0.201037 0.015910
C19   C     C_1   0.350510 0.250065 0.201036 -0.033926
C20   C     C_1   0.649617 0.749958 0.798963 0.015910
C21   C     C_1   0.149490 0.750065 0.798964 -0.033925
C22   C     C_1   0.850383 0.249959 0.201037 0.015910
C23   C     C_1   0.850510 0.750065 0.201036 -0.033926
C24   C     C_R   0.266649 0.642419 0.340457 -0.004866
C25   C     C_1   0.149617 0.249958 0.798963 0.015909
C26   C     C_1   0.686930 0.250054 0.873918 -0.060217
C27   C     C_1   0.312872 0.749961 0.126084 -0.022815
C28   C     C_1   0.313070 0.250054 0.126082 -0.060217
C29   C     C_1   0.687128 0.749961 0.873916 -0.022816
C30   C     C_1   0.186930 0.750054 0.873918 -0.060217
C31   C     C_1   0.812872 0.249961 0.126084 -0.022815
C32   C     C_1   0.813070 0.750054 0.126082 -0.060217
C33   C     C_1   0.187128 0.249961 0.873916 -0.022816
C34   C     C_1   0.731167 0.250017 0.962525 -0.017628
C35   C     C_R   0.782449 0.866394 0.361188 -0.006938
C36   C     C_1   0.268588 0.749984 0.037477 -0.010111
C37   C     C_1   0.268833 0.250017 0.037475 -0.017628
C38   C     C_1   0.731412 0.749984 0.962523 -0.010111
C39   C     C_1   0.231167 0.750017 0.962525 -0.017628
C40   C     C_1   0.768588 0.249984 0.037477 -0.010111
C41   C     C_1   0.768833 0.750017 0.037475 -0.017628
C42   C     C_1   0.231412 0.249984 0.962523 -0.010111
C43   C     C_1   0.500000 0.399483 0.500000 -0.032678
C44   C     C_1   0.500000 0.600506 0.500000 -0.023447
C45   C     C_1   0.000000 0.899483 0.500000 -0.032678
C46   C     C_R   0.233351 0.142419 0.659542 -0.004866
C47   C     C_1   0.000000 0.100506 0.500000 -0.023447
C48   C     C_1   0.500000 0.436955 0.500000 -0.061784
C49   C     C_1   0.500000 0.563030 0.500000 -0.051491
C50   C     C_1   0.000000 0.936955 0.500000 -0.061784
C51   C     C_1   0.000000 0.063030 0.500000 -0.051491
C52   C     C_3   0.324056 0.403533 0.386373 -0.371655
C53   C     C_3   0.703666 0.600751 0.638900 -0.382095
C54   C     C_3   0.675944 0.403533 0.613629 -0.371654
C55   C     C_3   0.296334 0.600752 0.361099 -0.382095
C56   C     C_3   0.824056 0.903533 0.386373 -0.371656
C57   C     C_R   0.217551 0.866394 0.638813 -0.006937
C58   C     C_3   0.203666 0.100751 0.638899 -0.382095
C59   C     C_3   0.175944 0.903533 0.613628 -0.371655
C60   C     C_3   0.796334 0.100752 0.361098 -0.382095
C61   C     C_3   0.306366 0.371641 0.528825 -0.156736
C62   C     C_3   0.766348 0.624938 0.544078 -0.126580
C63   C     C_3   0.693635 0.371641 0.471177 -0.156736
C64   C     C_3   0.233652 0.624939 0.455922 -0.126580
C65   C     C_3   0.806365 0.871641 0.528825 -0.156736
C66   C     C_3   0.266348 0.124938 0.544077 -0.126581
C67   C     C_3   0.193635 0.871641 0.471176 -0.156735
C68   C     C_R   0.766649 0.142419 0.340456 -0.004866
C69   C     C_3   0.733652 0.124939 0.455921 -0.126581
C70   C     C_3   0.195071 0.292821 0.149981 -0.099937
C71   C     C_3   0.818083 0.695681 0.886720 -0.120201
C72   C     C_3   0.804929 0.292821 0.850021 -0.099937
C73   C     C_3   0.181916 0.695681 0.113279 -0.120201
C74   C     C_3   0.695071 0.792820 0.149981 -0.099937
C75   C     C_3   0.318082 0.195680 0.886720 -0.120202
C76   C     C_3   0.304929 0.792821 0.850020 -0.099937
C77   C     C_3   0.681915 0.195682 0.113279 -0.120201
C78   C     C_3   0.141682 0.336927 0.410414 -0.078176
C79   C     C_R   0.286184 0.341421 0.418265 0.323607
C80   C     C_3   0.909676 0.740254 0.690391 -0.091662
C81   C     C_3   0.858319 0.336927 0.589588 -0.078177
C82   C     C_3   0.090323 0.740254 0.309609 -0.091662
C83   C     C_3   0.641682 0.836927 0.410413 -0.078178
C84   C     C_3   0.409676 0.240254 0.690391 -0.091662
C85   C     C_3   0.358318 0.836927 0.589587 -0.078177
C86   C     C_3   0.590323 0.240254 0.309609 -0.091662
C87   C     C_R   0.739222 0.664075 0.606823 0.335254
C88   C     C_R   0.713816 0.341421 0.581737 0.323607
C89   C     C_R   0.500000 0.854391 0.500000 0.485196
C90   C     C_R   0.260778 0.664075 0.393177 0.335253
C91   C     C_R   0.786184 0.841421 0.418264 0.323607
C92   C     C_R   0.239222 0.164075 0.606822 0.335254
C93   C     C_R   0.213816 0.841421 0.581736 0.323607
C94   C     C_R   0.760778 0.164075 0.393176 0.335253
C95   C     C_R   0.247370 0.306050 0.391392 0.028610
C96   C     C_R   0.760654 0.704666 0.624909 0.046855
C97   C     C_R   0.752630 0.306050 0.608609 0.028609
C98   C     C_R   0.239346 0.704666 0.375091 0.046855
C99   C     C_R   0.747370 0.806050 0.391392 0.028610
C100  C     C_R   0.000000 0.645607 0.500000 0.491091
C101  C     C_R   0.260654 0.204666 0.624909 0.046855
C102  C     C_R   0.252630 0.806050 0.608609 0.028609
C103  C     C_R   0.739346 0.204667 0.375090 0.046856
C104  C     C_R   0.204838 0.296629 0.308501 -0.078235
C105  C     C_R   0.779389 0.722403 0.696936 -0.093743
C106  C     C_R   0.795162 0.296628 0.691500 -0.078234
C107  C     C_R   0.220610 0.722403 0.303063 -0.093743
C108  C     C_R   0.704838 0.796629 0.308501 -0.078235
C109  C     C_R   0.279389 0.222403 0.696936 -0.093742
C110  C     C_R   0.295162 0.796628 0.691499 -0.078234
C111  C     C_R   0.000000 0.354391 0.500000 0.485196
C112  C     C_R   0.720610 0.222404 0.303063 -0.093743
C113  C     C_R   0.201723 0.321156 0.252339 0.264232
C114  C     C_R   0.777602 0.700582 0.752104 0.284074
C115  C     C_R   0.798278 0.321155 0.747662 0.264232
C116  C     C_R   0.222397 0.700582 0.247895 0.284073
C117  C     C_R   0.701723 0.821156 0.252339 0.264232
C118  C     C_R   0.277602 0.200582 0.752104 0.284074
C119  C     C_R   0.298277 0.821156 0.747661 0.264232
C120  C     C_R   0.722397 0.200583 0.247895 0.284073
C121  C     C_R   0.239445 0.356382 0.278622 -0.118990
C122  C     C_1   0.500000 0.481251 0.500000 -0.012982
C123  C     C_R   0.753159 0.660519 0.731888 -0.118013
C124  C     C_R   0.760555 0.356381 0.721379 -0.118991
C125  C     C_R   0.246840 0.660520 0.268112 -0.118012
C126  C     C_R   0.739445 0.856382 0.278622 -0.118990
C127  C     C_R   0.253159 0.160519 0.731887 -0.118013
C128  C     C_R   0.260555 0.856382 0.721378 -0.118990
C129  C     C_R   0.746840 0.160520 0.268111 -0.118012
C130  C     C_R   0.197357 0.277020 0.448517 0.215178
C131  C     C_R   0.810566 0.733161 0.567195 0.219170
C132  C     C_R   0.802643 0.277020 0.551483 0.215178
C133  C     C_1   0.500000 0.518728 0.500000 -0.011196
C134  C     C_R   0.189433 0.733162 0.432805 0.219170
C135  C     C_R   0.697357 0.777020 0.448517 0.215178
C136  C     C_R   0.310566 0.233161 0.567194 0.219169
C137  C     C_R   0.302643 0.777020 0.551483 0.215178
C138  C     C_R   0.689433 0.233161 0.432805 0.219170
C139  C     C_R   0.198974 0.252003 0.503975 -0.013700
C140  C     C_R   0.806401 0.754495 0.506221 -0.003515
C141  C     C_R   0.801026 0.252003 0.496025 -0.013700
C142  C     C_R   0.193599 0.754495 0.493778 -0.003515
C143  C     C_R   0.698974 0.752004 0.503975 -0.013700
C144  C     C_1   0.000000 0.981251 0.500000 -0.012982
C145  C     C_R   0.306401 0.254495 0.506221 -0.003515
C146  C     C_R   0.301026 0.752003 0.496025 -0.013700
C147  C     C_R   0.693599 0.254495 0.493778 -0.003515
C148  C     C_R   0.256320 0.230419 0.564151 -0.032243
C149  C     C_R   0.750946 0.778570 0.449804 -0.042681
C150  C     C_R   0.743680 0.230419 0.435848 -0.032244
C151  C     C_R   0.249054 0.778570 0.550196 -0.042682
C152  C     C_R   0.756320 0.730419 0.564152 -0.032244
C153  C     C_R   0.250946 0.278570 0.449804 -0.042681
C154  C     C_R   0.243680 0.730419 0.435848 -0.032244
C155  C     C_1   0.000000 0.018728 0.500000 -0.011196
C156  C     C_R   0.749054 0.278569 0.550196 -0.042682
C157  C     C_R   0.500000 0.354427 0.500000 0.507882
C158  C     C_R   0.500000 0.645569 0.500000 0.500479
C159  C     C_R   0.000000 0.854427 0.500000 0.507882
C160  C     C_R   0.000000 0.145569 0.500000 0.500480
C161  C     C_1   0.500000 0.100530 0.500000 -0.013622
C162  C     C_1   0.500000 0.899465 0.500000 -0.022279
C163  C     C_1   0.000000 0.600530 0.500000 -0.013622
C164  C     C_1   0.000000 0.399465 0.500000 -0.022279
C165  C     C_1   0.500000 0.063048 0.500000 -0.040942
C166  C     C_R   0.282449 0.366394 0.361188 -0.006938
C167  C     C_1   0.500000 0.936947 0.500000 -0.045843
C168  C     C_1   0.000000 0.563048 0.500000 -0.040942
C169  C     C_1   0.000000 0.436947 0.500000 -0.045843
C170  C     C_1   0.500000 0.018738 0.500000 -0.006351
C171  C     C_1   0.500000 0.981256 0.500000 -0.007373
C172  C     C_1   0.000000 0.518737 0.500000 -0.006351
C173  C     C_1   0.000000 0.481256 0.500000 -0.007373
C174  C     C_R   0.640417 0.251051 0.498484 0.557953
C175  C     C_R   0.358631 0.750031 0.499801 0.556155
C176  C     C_R   0.359583 0.251051 0.501516 0.557953
H1    H     H_    0.235974 0.375638 0.234563 0.127278
H2    H     H_    0.793889 0.753969 0.709346 0.112897
H3    H     H_    0.045246 0.723839 0.261671 0.146357
H4    H     H_    0.669197 0.856725 0.399301 0.099396
H5    H     H_    0.661320 0.839437 0.474729 0.094070
H6    H     H_    0.591250 0.848465 0.372075 0.159746
H7    H     H_    0.389132 0.252899 0.718550 0.096162
H8    H     H_    0.423230 0.265409 0.668605 0.128882
H9    H     H_    0.454753 0.223839 0.738329 0.146357
H10   H     H_    0.330803 0.856724 0.600700 0.099396
H11   H     H_    0.338680 0.839437 0.525272 0.094070
H12   H     H_    0.408750 0.848465 0.627926 0.159746
H13   H     H_    0.825028 0.269666 0.712382 0.156159
H14   H     H_    0.610867 0.252900 0.281450 0.096162
H15   H     H_    0.576770 0.265409 0.331395 0.128882
H16   H     H_    0.545246 0.223840 0.261670 0.146357
H17   H     H_    0.206110 0.753970 0.290654 0.112897
H18   H     H_    0.674972 0.769667 0.287619 0.156158
H19   H     H_    0.293889 0.253969 0.709346 0.112897
H20   H     H_    0.325028 0.769666 0.712381 0.156158
H21   H     H_    0.706110 0.253970 0.290654 0.112898
H22   H     H_    0.353182 0.400914 0.365351 0.141452
H23   H     H_    0.292741 0.430803 0.358278 0.107459
H24   H     H_    0.357880 0.407882 0.453053 0.179659
H25   H     H_    0.747230 0.643494 0.770519 0.102497
H26   H     H_    0.740153 0.578684 0.684908 0.107194
H27   H     H_    0.661826 0.600966 0.639009 0.143588
H28   H     H_    0.685777 0.590329 0.578214 0.175516
H29   H     H_    0.646819 0.400913 0.634651 0.141452
H30   H     H_    0.707260 0.430802 0.641725 0.107459
H31   H     H_    0.642120 0.407882 0.546949 0.179659
H32   H     H_    0.259847 0.578684 0.315091 0.107194
H33   H     H_    0.338174 0.600967 0.360990 0.143588
H34   H     H_    0.314223 0.590329 0.421785 0.175516
H35   H     H_    0.853182 0.900914 0.365351 0.141452
H36   H     H_    0.764027 0.375637 0.765439 0.127277
H37   H     H_    0.792740 0.930802 0.358277 0.107459
H38   H     H_    0.857880 0.907882 0.453053 0.179659
H39   H     H_    0.240153 0.078683 0.684907 0.107194
H40   H     H_    0.161826 0.100966 0.639008 0.143587
H41   H     H_    0.185777 0.090329 0.578213 0.175516
H42   H     H_    0.146819 0.900913 0.634650 0.141452
H43   H     H_    0.207260 0.930802 0.641724 0.107459
H44   H     H_    0.142120 0.907882 0.546948 0.179659
H45   H     H_    0.759846 0.078684 0.315090 0.107194
H46   H     H_    0.838174 0.100967 0.360989 0.143588
H47   H     H_    0.252769 0.643495 0.229480 0.102498
H48   H     H_    0.814223 0.090329 0.421784 0.175517
H49   H     H_    0.277062 0.351990 0.537293 0.108630
H50   H     H_    0.277158 0.397800 0.488567 0.102126
H51   H     H_    0.346494 0.384198 0.589132 0.142493
H52   H     H_    0.784365 0.600540 0.590022 0.105401
H53   H     H_    0.807101 0.644711 0.561257 0.178574
H54   H     H_    0.746939 0.610159 0.485755 0.140060
H55   H     H_    0.722938 0.351990 0.462708 0.108630
H56   H     H_    0.722843 0.397800 0.511435 0.102126
H57   H     H_    0.653507 0.384198 0.410870 0.142493
H58   H     H_    0.735974 0.875638 0.234563 0.127278
H59   H     H_    0.215635 0.600540 0.409978 0.105401
H60   H     H_    0.192899 0.644711 0.438743 0.178573
H61   H     H_    0.253061 0.610160 0.514245 0.140060
H62   H     H_    0.777062 0.851990 0.537293 0.108630
H63   H     H_    0.777157 0.897800 0.488567 0.102126
H64   H     H_    0.846494 0.884198 0.589131 0.142493
H65   H     H_    0.284364 0.100540 0.590021 0.105401
H66   H     H_    0.307101 0.144710 0.561256 0.178574
H67   H     H_    0.246939 0.110160 0.485754 0.140061
H68   H     H_    0.222938 0.851990 0.462708 0.108630
H69   H     H_    0.247230 0.143494 0.770519 0.102497
H70   H     H_    0.222843 0.897800 0.511434 0.102126
H71   H     H_    0.153507 0.884198 0.410869 0.142493
H72   H     H_    0.715635 0.100540 0.409977 0.105401
H73   H     H_    0.692898 0.144711 0.438743 0.178573
H74   H     H_    0.753061 0.110160 0.514244 0.140060
H75   H     H_    0.220387 0.265037 0.186777 0.119928
H76   H     H_    0.230387 0.314302 0.156331 0.119892
H77   H     H_    0.160954 0.283460 0.085440 0.155550
H78   H     H_    0.853313 0.673040 0.895864 0.106030
H79   H     H_    0.777385 0.680662 0.879861 0.122088
H80   H     H_    0.264026 0.875637 0.765438 0.127277
H81   H     H_    0.844045 0.714501 0.942388 0.148436
H82   H     H_    0.779610 0.265038 0.813225 0.119929
H83   H     H_    0.769616 0.314304 0.843673 0.119891
H84   H     H_    0.839047 0.283460 0.914562 0.155550
H85   H     H_    0.146685 0.673041 0.104136 0.106030
H86   H     H_    0.222612 0.680662 0.120137 0.122088
H87   H     H_    0.155953 0.714501 0.057611 0.148436
H88   H     H_    0.720387 0.765037 0.186777 0.119928
H89   H     H_    0.730387 0.814302 0.156331 0.119892
H90   H     H_    0.660954 0.783460 0.085439 0.155550
H91   H     H_    0.752769 0.143495 0.229480 0.102497
H92   H     H_    0.353312 0.173039 0.895864 0.106030
H93   H     H_    0.277384 0.180661 0.879860 0.122089
H94   H     H_    0.344044 0.214500 0.942388 0.148436
H95   H     H_    0.279612 0.765037 0.813224 0.119929
H96   H     H_    0.269614 0.814303 0.843670 0.119892
H97   H     H_    0.339046 0.783460 0.914561 0.155550
H98   H     H_    0.646685 0.173041 0.104135 0.106029
H99   H     H_    0.722612 0.180662 0.120136 0.122088
H100  H     H_    0.655953 0.214502 0.057611 0.148436
H101  H     H_    0.169197 0.356725 0.399301 0.099396
H102  H     H_    0.174972 0.269667 0.287619 0.156158
H103  H     H_    0.161320 0.339438 0.474729 0.094070
H104  H     H_    0.091250 0.348465 0.372075 0.159746
H105  H     H_    0.889132 0.752899 0.718550 0.096162
H106  H     H_    0.923230 0.765409 0.668605 0.128882
H107  H     H_    0.954753 0.723839 0.738329 0.146357
H108  H     H_    0.830803 0.356724 0.600700 0.099396
H109  H     H_    0.838680 0.339438 0.525272 0.094070
H110  H     H_    0.908751 0.348465 0.627926 0.159746
H111  H     H_    0.110867 0.752900 0.281450 0.096162
H112  H     H_    0.076770 0.765409 0.331395 0.128882
O1    O     O_3   0.500000 0.250010 0.500000 -0.408052
O2    O     O_R   0.008350 0.334000 0.455930 -0.538557
O3    O     O_R   0.008350 0.666000 0.455930 -0.527573
O4    O     O_R   0.991650 0.334000 0.544070 -0.538557
O5    O     O_R   0.552380 0.334020 0.544040 -0.519600
O6    O     O_R   0.447620 0.665980 0.455960 -0.527039
O7    O     O_R   0.447620 0.334020 0.455960 -0.519600
O8    O     O_R   0.552380 0.665980 0.544040 -0.527039
O9    O     O_R   0.052380 0.834020 0.544040 -0.519600
O10   O     O_R   0.947620 0.165980 0.455960 -0.527039
O11   O     O_R   0.947620 0.834020 0.455960 -0.519600
O12   O     O_3   0.500000 0.749990 0.500000 -0.410471
O13   O     O_R   0.052380 0.165980 0.544040 -0.527039
O14   O     O_R   0.593780 0.227990 0.455960 -0.497194
O15   O     O_R   0.406220 0.772010 0.544040 -0.495378
O16   O     O_R   0.406220 0.227990 0.544040 -0.497195
O17   O     O_R   0.593780 0.772010 0.455960 -0.495378
O18   O     O_R   0.093780 0.727990 0.455960 -0.497194
O19   O     O_R   0.906220 0.272010 0.544040 -0.495378
O20   O     O_R   0.906220 0.727990 0.544040 -0.497195
O21   O     O_R   0.093780 0.272010 0.455960 -0.495378
O22   O     O_R   0.362170 0.272040 0.455960 -0.529746
O23   O     O_3   0.000000 0.750010 0.500000 -0.408052
O24   O     O_R   0.637830 0.727960 0.544040 -0.539931
O25   O     O_R   0.637830 0.272040 0.544040 -0.529746
O26   O     O_R   0.362170 0.727960 0.455960 -0.539930
O27   O     O_R   0.862170 0.772040 0.455960 -0.529746
O28   O     O_R   0.137830 0.227960 0.544040 -0.539931
O29   O     O_R   0.137830 0.772040 0.544040 -0.529747
O30   O     O_R   0.862170 0.227960 0.455960 -0.539930
O31   O     O_R   0.446360 0.228000 0.332000 -0.527794
O32   O     O_R   0.553640 0.772000 0.668000 -0.524235
O33   O     O_R   0.553640 0.228000 0.668000 -0.527795
O34   O     O_3   0.000000 0.249990 0.500000 -0.410471
O35   O     O_R   0.446360 0.772000 0.332000 -0.524235
O36   O     O_R   0.946360 0.728000 0.332000 -0.527794
O37   O     O_R   0.053640 0.272000 0.668000 -0.524235
O38   O     O_R   0.053640 0.728000 0.668000 -0.527795
O39   O     O_R   0.946360 0.272000 0.332000 -0.524235
O40   O     O_R   0.385640 0.272040 0.331990 -0.541754
O41   O     O_R   0.614360 0.727960 0.668010 -0.524118
O42   O     O_R   0.614360 0.272040 0.668010 -0.541754
O43   O     O_R   0.385640 0.727960 0.331990 -0.524118
O44   O     O_R   0.885640 0.772040 0.331990 -0.541754
O45   O     O_R   0.491650 0.166000 0.544070 -0.527573
O46   O     O_R   0.114360 0.227960 0.668010 -0.524118
O47   O     O_R   0.114360 0.772040 0.668010 -0.541754
O48   O     O_R   0.885640 0.227960 0.331990 -0.524118
O49   O     O_3   0.333301 0.348681 0.500394 -0.567598
O50   O     O_3   0.716307 0.647719 0.532969 -0.567961
O51   O     O_3   0.666699 0.348681 0.499608 -0.567597
O52   O     O_3   0.283693 0.647720 0.467031 -0.567961
O53   O     O_3   0.833301 0.848681 0.500393 -0.567598
O54   O     O_3   0.216307 0.147719 0.532968 -0.567961
O55   O     O_3   0.166699 0.848681 0.499607 -0.567598
O56   O     O_R   0.508350 0.834000 0.455930 -0.538557
O57   O     O_3   0.783693 0.147720 0.467030 -0.567961
O58   O     O_3   0.159473 0.311345 0.171009 -0.551521
O59   O     O_3   0.794418 0.721428 0.820177 -0.562639
O60   O     O_3   0.840528 0.311344 0.828991 -0.551521
O61   O     O_3   0.205582 0.721428 0.179823 -0.562638
O62   O     O_3   0.659473 0.811345 0.171009 -0.551521
O63   O     O_3   0.294418 0.221427 0.820177 -0.562639
O64   O     O_3   0.340527 0.811344 0.828991 -0.551521
O65   O     O_3   0.705582 0.221429 0.179823 -0.562638
O66   O     O_3   0.140508 0.296640 0.386908 -0.536968
O67   O     O_R   0.508350 0.166000 0.455930 -0.527573
O68   O     O_3   0.866598 0.712640 0.627733 -0.560431
O69   O     O_3   0.859492 0.296640 0.613093 -0.536968
O70   O     O_3   0.133402 0.712640 0.372266 -0.560431
O71   O     O_3   0.640508 0.796640 0.386908 -0.536968
O72   O     O_3   0.366598 0.212640 0.627733 -0.560431
O73   O     O_3   0.359492 0.796640 0.613092 -0.536968
O74   O     O_3   0.633401 0.212640 0.372266 -0.560431
O75   O     O_R   0.491650 0.834000 0.544070 -0.538557
O76   O     O_R   0.991650 0.666000 0.544070 -0.527573
Zn1   Zn    Zn3+2 0.574840 0.281480 0.562930 0.957103
Zn2   Zn    Zn3+2 0.488090 0.781450 0.562930 0.959512
Zn3   Zn    Zn3+2 0.488090 0.218550 0.562930 0.962354
Zn4   Zn    Zn3+2 0.511910 0.781450 0.437070 0.959512
Zn5   Zn    Zn3+2 0.011910 0.718550 0.437070 0.962354
Zn6   Zn    Zn3+2 0.988090 0.281450 0.562930 0.959511
Zn7   Zn    Zn3+2 0.988090 0.718550 0.562930 0.962354
Zn8   Zn    Zn3+2 0.011910 0.281450 0.437070 0.959512
Zn9   Zn    Zn3+2 0.425160 0.718520 0.437070 0.963890
Zn10  Zn    Zn3+2 0.425160 0.281480 0.437070 0.957103
Zn11  Zn    Zn3+2 0.574840 0.718520 0.562930 0.963890
Zn12  Zn    Zn3+2 0.074840 0.781480 0.562930 0.957103
Zn13  Zn    Zn3+2 0.925160 0.218520 0.437070 0.963890
Zn14  Zn    Zn3+2 0.925160 0.781480 0.437070 0.957103
Zn15  Zn    Zn3+2 0.074840 0.218520 0.562930 0.963890
Zn16  Zn    Zn3+2 0.511910 0.218550 0.437070 0.962354

loop_
_geom_bond_atom_site_label_1
_geom_bond_atom_site_label_2
_ccdc_geom_bond_type
C101  C148  S    
C57   C128  A    
C82   O70   S    
C35   C91   A    
C2    C123  A    
C175  O26   A    
C121  C166  A    
C99   C149  S    
C12   C23   S    
C61   H51   S    
C83   H4    S    
C4    C142  S    
C67   H70   S    
C57   C59   S    
C37   C42   T    
O45   Zn3   S    
C15   O38   A    
O33   Zn3   S    
C131  C140  A    
C6    O27   A    
C50   C144  S    
O43   Zn9   S    
C66   O54   S    
O1    Zn16  S    
C174  O14   A    
C160  O13   A    
C88   C97   A    
C69   H73   S    
O36   Zn5   S    
C47   C160  S    
C119  C128  A    
C85   H12   S    
O23   Zn14  S    
C80   H105  S    
C84   H9    S    
O42   Zn1   S    
C109  C118  A    
O37   Zn6   S    
O19   Zn6   S    
C137  C146  A    
C3    C143  S    
C64   H59   S    
C112  C120  A    
C13   C124  A    
C167  C171  S    
O23   Zn5   S    
C103  C112  A    
C95   C153  S    
C142  C151  A    
C71   H78   S    
C92   O54   S    
C55   H32   S    
C55   H33   S    
C74   O62   S    
O32   Zn2   S    
C146  C154  A    
C54   H29   S    
C3    O17   A    
C90   O52   S    
C82   H111  S    
C56   H35   S    
O22   Zn10  S    
C72   O60   S    
C52   H22   S    
C89   C162  S    
C13   C54   S    
C49   C133  S    
C120  O65   S    
C2    C53   S    
C24   C90   A    
C78   O66   S    
C67   H68   S    
O15   Zn2   S    
C75   H93   S    
C86   H16   S    
C106  C115  A    
O18   Zn5   S    
C62   O50   S    
C136  O72   S    
C70   O58   S    
C9    O41   A    
C45   C50   T    
C89   O56   A    
C85   O73   S    
C58   H41   S    
C11   O35   A    
C76   H97   S    
C100  C163  S    
C68   C94   A    
C138  O74   S    
C113  O58   S    
O16   Zn3   S    
C80   H107  S    
C118  O63   S    
O30   Zn13  S    
C161  C165  T    
C4    O18   A    
C98   C154  S    
C11   C18   S    
O41   Zn11  S    
O28   Zn15  S    
C3    O24   A    
C77   H99   S    
C60   H45   S    
C89   O75   A    
C147  C174  S    
C134  C154  A    
C99   C108  A    
C51   C155  S    
C53   H27   S    
C33   C42   S    
C134  O70   S    
C57   C93   A    
C65   H63   S    
C170  C171  T    
O2    Zn8   S    
C96   C152  S    
C76   H95   S    
C7    O28   A    
C83   H5    S    
C97   C156  S    
C103  C150  S    
C67   H71   S    
O25   Zn1   S    
C62   H54   S    
C29   C38   S    
C32   C41   S    
C52   H24   S    
C93   O55   S    
C67   O55   S    
O21   Zn8   S    
C135  C143  A    
C14   C25   S    
C46   C58   S    
C10   O42   A    
O14   Zn16  S    
C159  O11   A    
C73   H85   S    
C141  C150  A    
O48   Zn13  S    
C139  C148  A    
C86   H14   S    
C8    C19   S    
C123  H25   S    
C8    O31   A    
C137  O73   S    
C120  C129  A    
C46   C127  A    
C84   H8    S    
C71   O59   S    
C38   C41   T    
C121  H1    S    
C175  O15   A    
C176  O16   A    
C9    O32   A    
C1    O45   A    
O47   Zn12  S    
C1    O67   A    
C117  O62   S    
C75   O63   S    
C2    C87   A    
C135  O71   S    
C19   C28   T    
C71   H79   S    
C136  C148  A    
C114  C123  A    
C116  C125  A    
O75   Zn2   S    
C65   H62   S    
O1    Zn1   S    
C118  C127  A    
C108  H18   S    
C70   H76   S    
C63   H55   S    
C117  C126  A    
C132  C141  A    
C35   C56   S    
C108  C117  A    
C36   C39   T    
C111  C164  S    
C43   C157  S    
C110  C119  A    
C75   H94   S    
C71   H81   S    
O7    Zn10  S    
C102  C151  S    
C61   H50   S    
C132  O69   S    
C163  C168  T    
C80   O68   S    
C16   O39   A    
C28   C37   S    
C62   H52   S    
C132  C156  A    
C30   C39   S    
C109  H19   S    
O9    Zn12  S    
C126  H58   S    
C107  C116  A    
C104  C113  A    
O8    Zn11  S    
C81   H109  S    
C72   H83   S    
O40   Zn10  S    
C116  O61   S    
C79   O49   S    
C169  C173  S    
C159  O9    A    
C91   C99   A    
C140  C149  A    
C73   H87   S    
C25   C33   T    
C16   O48   A    
C74   H88   S    
C85   H11   S    
C96   C105  A    
C80   H106  S    
C44   C158  S    
C45   C159  S    
O31   Zn16  S    
C172  C173  T    
O23   Zn12  S    
O76   Zn7   S    
C78   H103  S    
C64   H60   S    
C59   H44   S    
C74   H89   S    
C46   C92   A    
C101  C109  A    
C31   C40   S    
C157  O5    A    
O6    Zn9   S    
C94   O57   S    
C54   H30   S    
C82   H3    S    
C65   H64   S    
C65   O53   S    
O1    Zn3   S    
C82   H112  S    
C114  O59   S    
C58   H39   S    
C14   O46   A    
C1    C161  S    
C76   O64   S    
C131  C152  A    
C130  C139  A    
C5    O30   A    
C75   H92   S    
C125  H47   S    
C47   C51   T    
C124  H36   S    
O12   Zn11  S    
C138  C150  A    
C111  O4    A    
C88   O51   S    
C79   C95   A    
C95   C104  A    
C134  C142  A    
C9    C20   S    
C145  C176  S    
C73   O61   S    
C146  C175  S    
C91   O53   S    
C147  C156  A    
O11   Zn14  S    
C64   H61   S    
C92   C101  A    
C97   C106  A    
O12   Zn4   S    
C143  C152  A    
C66   H65   S    
C63   O51   S    
C94   C103  A    
C110  H20   S    
O24   Zn11  S    
C102  C110  A    
C112  H21   S    
O20   Zn7   S    
C165  C170  S    
C64   O52   S    
C16   C22   S    
C115  C124  A    
C77   H98   S    
C78   H101  S    
C59   H42   S    
C60   H46   S    
C93   C102  A    
C77   O65   S    
O38   Zn7   S    
C21   C30   T    
C53   H26   S    
O44   Zn14  S    
C23   C32   T    
C157  O7    A    
C12   O44   A    
C158  O8    A    
C55   H34   S    
C86   O74   S    
C69   O57   S    
C76   H96   S    
O39   Zn8   S    
O3    Zn5   S    
C174  O25   A    
C6    C140  S    
C100  O76   A    
C98   C107  A    
O35   Zn4   S    
C168  C172  S    
C60   C68   S    
C66   H67   S    
O34   Zn15  S    
C4    O29   A    
O67   Zn16  S    
C44   C49   T    
C72   H82   S    
C105  H2    S    
O4    Zn6   S    
O13   Zn15  S    
C24   C55   S    
C86   H15   S    
C111  O2    A    
O34   Zn8   S    
C34   C40   T    
C17   C26   T    
O12   Zn9   S    
C100  O3    A    
C48   C122  S    
C84   O72   S    
C14   O37   A    
C10   O33   A    
C7    O21   A    
C10   C17   S    
C130  O66   S    
C160  O10   A    
C52   C166  S    
C26   C34   S    
C127  H69   S    
C43   C48   T    
C136  C145  A    
C129  H91   S    
C145  C153  A    
O27   Zn14  S    
O1    Zn10  S    
C61   O49   S    
O29   Zn12  S    
C176  O22   A    
C77   H100  S    
C164  C169  T    
C81   H108  S    
C60   H48   S    
C70   H77   S    
C20   C29   T    
C115  O60   S    
C53   H28   S    
C22   C31   T    
C105  C114  A    
C158  O6    A    
C104  H102  S    
C5    O19   A    
C66   H66   S    
C6    O20   A    
C135  C149  A    
C131  O68   S    
O26   Zn9   S    
C61   H49   S    
C83   H6    S    
C35   C126  A    
C122  C133  T    
C63   H57   S    
C69   H72   S    
C5    C141  S    
C138  C147  A    
C62   H53   S    
C87   C96   A    
O34   Zn13  S    
C113  C121  A    
C52   H23   S    
C81   O69   S    
O46   Zn15  S    
C12   O36   A    
C56   H37   S    
C83   O71   S    
O17   Zn4   S    
C69   H74   S    
C119  O64   S    
C72   H84   S    
C24   C125  A    
C107  H17   S    
C73   H86   S    
C85   H10   S    
O34   Zn6   S    
O5    Zn1   S    
C84   H7    S    
C15   O47   A    
C18   C27   T    
C128  H80   S    
C56   H38   S    
C27   C36   S    
C144  C155  T    
C78   H104  S    
C59   H43   S    
C7    C139  S    
C74   H90   S    
O23   Zn7   S    
C13   C88   A    
C130  C153  A    
C79   C166  A    
C68   C129  A    
C87   O50   S    
C8    O40   A    
C162  C167  T    
O56   Zn4   S    
C15   C21   S    
C54   H31   S    
C137  C151  A    
C11   O43   A    
C81   H110  S    
C106  H13   S    
C70   H75   S    
C90   C98   A    
O10   Zn13  S    
O12   Zn2   S    
C63   H56   S    
C58   H40   S    
