data_mof_unit_26531.cif
_audit_creation_date              2012-12-10T17:05:16-0500
_audit_creation_method            fapswitch 2.2
_symmetry_space_group_name_H-M    P1
_symmetry_Int_Tables_number       1
_space_group_crystal_system       triclinic
_cell_length_a                    10.030906
_cell_length_b                    10.637928
_cell_length_c                    15.536022
_cell_angle_alpha                 89.599353
_cell_angle_beta                  67.401538
_cell_angle_gamma                 88.793435
_cell_volume                      1530.19182687

loop_
_atom_site_label
_atom_site_type_symbol
_atom_type_description
_atom_site_fract_x
_atom_site_fract_y
_atom_site_fract_z
_atom_type_partial_charge
C1    C     C_R   0.503099 0.737365 0.492414 0.980979
C2    C     C_R   0.736328 0.500781 0.029112 0.154315
C3    C     C_R   0.595622 0.459405 0.084047 0.094329
C4    C     C_R   0.409130 0.496927 0.676132 0.903975
C5    C     C_R   0.834413 0.527573 0.070824 -0.194576
C6    C     C_R   0.790472 0.522494 0.167489 -0.158341
C7    C     C_R   0.554295 0.455793 0.180575 -0.234882
C8    C     C_2   0.620355 0.069092 0.427305 0.150639
C9    C     C_2   0.511385 0.129470 0.494810 -0.426130
C10   C     C_2   0.631544 0.932629 0.432952 0.413074
C11   C     C_2   0.508725 0.868487 0.470988 -0.474115
C12   C     C_R   0.425095 0.456932 0.909225 0.107766
C13   C     C_2   0.112284 0.438855 0.439291 -0.090261
C14   C     C_2   0.964251 0.445585 0.435866 -0.082663
C15   C     C_R   0.502684 0.262331 0.498298 0.985485
C16   C     C_R   0.590669 0.498288 0.323993 0.878041
C17   C     C_R   0.353026 0.477100 0.777149 -0.143514
C18   C     C_R   0.648230 0.490906 0.222480 -0.044326
C19   C     C_R   0.191837 0.379431 0.919380 -0.260115
C20   C     C_R   0.223282 0.414358 0.826978 0.374641
C21   C     C_R   0.446455 0.504904 0.821219 -0.304652
C22   C     C_R   0.292471 0.398362 0.960258 0.101740
C23   C     C_R   0.532238 0.465917 0.947461 0.074626
C24   C     C_R   0.496480 0.432604 0.041973 0.068509
C25   C     C_R   0.362947 0.373912 0.091220 -0.206001
C26   C     C_R   0.263460 0.356412 0.050521 -0.193210
C27   C     C_R   0.675069 0.503482 0.893638 -0.191847
C28   C     C_R   0.775610 0.518838 0.933882 -0.170507
Cl1   Cl    Cl    0.805755 0.860825 0.390737 -0.550422
Cl2   Cl    Cl    0.102221 0.368855 0.775994 -0.629496
H1    H     H_    0.163196 0.309855 0.090035 0.166982
H2    H     H_    0.865197 0.548177 0.199183 0.174911
H3    H     H_    0.882986 0.549758 0.890838 0.186155
H4    H     H_    0.091659 0.332111 0.957845 0.184097
H5    H     H_    0.538512 0.561856 0.783913 0.169188
H6    H     H_    0.334382 0.335683 0.160319 0.147718
H7    H     H_    0.713840 0.518445 0.819389 0.162332
H8    H     H_    0.942971 0.557163 0.029051 0.151892
H9    H     H_    0.431531 0.081582 0.553289 0.144061
H10   H     H_    0.404788 0.913900 0.483567 0.149899
H11   H     H_    0.194089 0.381780 0.386925 0.155028
H12   H     H_    0.073757 0.558266 0.545372 0.176030
H13   H     H_    0.950596 0.400935 0.377311 0.169647
H14   H     H_    0.863021 0.534819 0.557111 0.174307
H15   H     H_    0.445372 0.433498 0.225293 0.152286
I1    I     I_    0.776872 0.163640 0.311534 -0.306806
N1    N     N_2   0.148330 0.498670 0.499030 -0.170261
N2    N     N_2   0.852680 0.498640 0.499000 -0.171594
O1    O     O_R   0.386950 0.680940 0.500010 -0.616745
O2    O     O_R   0.613110 0.680900 0.499990 -0.551924
O3    O     O_R   0.322330 0.500030 0.632270 -0.558173
O4    O     O_R   0.548480 0.499990 0.632240 -0.625887
O5    O     O_R   0.386890 0.319100 0.500010 -0.590595
O6    O     O_R   0.613050 0.319060 0.499990 -0.584907
O7    O     O_R   0.451520 0.500010 0.367760 -0.625974
O8    O     O_R   0.677670 0.499970 0.367730 -0.600756
Zn1   Zn    Zn3+2 0.349000 0.500030 0.500020 1.000425
Zn2   Zn    Zn3+2 0.651000 0.499970 0.499980 1.005598

loop_
_geom_bond_atom_site_label_1
_geom_bond_atom_site_label_2
_ccdc_geom_bond_type
C6    H2    S    
C23   C24   A    
C16   O8    A    
N2    Zn2   S    
C21   H5    S    
C23   C27   A    
N1    Zn1   S    
C1    O2    A    
C19   C20   A    
C12   C23   A    
C7    C18   A    
C17   C20   A    
C13   H11   S    
C2    C3    A    
C9    C15   S    
C16   O7    A    
C26   H1    S    
C20   Cl2   S    
C5    H8    S    
C10   Cl1   S    
C3    C24   A    
C11   H10   S    
O4    Zn2   S    
C4    O4    A    
O3    Zn1   S    
C4    C17   S    
C7    H15   S    
C8    C10   S    
C27   H7    S    
C28   H3    S    
C3    C7    A    
H12   N1    S    
O7    Zn1   S    
C22   C26   A    
C5    C6    A    
C6    C18   A    
C12   C22   A    
C8    I1    S    
C2    C5    A    
C10   C11   D    
C25   H6    S    
O2    Zn2   S    
C15   O6    A    
C15   O5    A    
C9    H9    S    
C19   C22   A    
O1    Zn1   S    
C24   C25   A    
C16   C18   S    
O6    Zn2   S    
C27   C28   A    
C13   N1    D    
C14   N2    D    
O5    Zn1   S    
C8    C9    D    
C2    C28   A    
C4    O3    A    
C25   C26   A    
C13   C14   S    
C1    O1    A    
C12   C21   A    
C17   C21   A    
H14   N2    S    
O8    Zn2   S    
C14   H13   S    
C19   H4    S    
C1    C11   S    
