data_mof_unit_18135.cif
_audit_creation_date              2013-03-05T15:55:04-0500
_audit_creation_method            fapswitch 2.2
_symmetry_space_group_name_H-M    P1
_symmetry_Int_Tables_number       1
_space_group_crystal_system       triclinic
_cell_length_a                    15.115336
_cell_length_b                    14.952754
_cell_length_c                    15.146446
_cell_angle_alpha                 109.853179
_cell_angle_beta                  110.037094
_cell_angle_gamma                 108.739281
_cell_volume                      2627.9466981

loop_
_atom_site_label
_atom_site_type_symbol
_atom_site_description
_atom_site_fract_x
_atom_site_fract_y
_atom_site_fract_z
_atom_type_partial_charge
C1    C     C_R   0.199352 0.290332 0.198770 -0.106330
H1    H     H_    0.143982 0.318669 0.170548 0.118999
N1    N     N_R   0.291070 0.347930 0.293870 -0.049452
C2    C     C_R   0.560885 0.467670 0.779635 -0.091226
H2    H     H_    0.607689 0.430627 0.802265 0.144972
N2    N     N_R   0.554050 0.497220 0.706150 -0.047580
C3    C     C_R   0.434998 0.186170 0.406176 -0.137569
H3    H     H_    0.377491 0.125974 0.321982 0.132483
N3    N     N_R   0.497240 0.291100 0.443210 -0.045480
C4    C     C_R   0.274910 0.534088 0.588696 -0.137853
H4    H     H_    0.289971 0.577770 0.670014 0.130013
N4    N     N_R   0.347890 0.554050 0.556810 -0.043924
C5    C     C_R   0.532576 0.273497 0.588002 -0.123124
H5    H     H_    0.571517 0.288983 0.669789 0.131383
N5    N     N_R   0.554050 0.347900 0.556830 -0.043522
C6    C     C_R   0.189161 0.430284 0.407393 -0.120693
H6    H     H_    0.128755 0.370415 0.323764 0.109106
N6    N     N_R   0.291070 0.497250 0.443190 -0.047138
C7    C     C_R   0.465925 0.555685 0.778888 -0.066290
H7    H     H_    0.425719 0.598814 0.802955 0.117555
N7    N     N_R   0.497240 0.554030 0.706140 -0.047040
C8    C     C_R   0.289839 0.198531 0.198267 -0.126021
H8    H     H_    0.316924 0.141899 0.169579 0.150167
N8    N     N_R   0.347890 0.291110 0.293870 -0.049696
C9    C     C_R   0.197401 0.197166 0.139122 0.112560
C10   C     C_R   0.500226 0.496317 0.820976 0.073166
C11   C     C_R   0.454693 0.172153 0.494889 0.053369
C12   C     C_R   0.174874 0.456254 0.495418 0.046318
C13   C     C_R   0.409107 0.709288 0.407717 -0.123596
H9    H     H_    0.348250 0.674797 0.324327 0.093319
N9    N     N_R   0.445950 0.652100 0.443170 -0.046658
C14   C     C_R   0.801520 0.500582 0.588718 -0.069701
H10   H     H_    0.858554 0.529224 0.670967 0.161008
N10   N     N_R   0.708930 0.502750 0.556810 -0.065737
C15   C     C_R   0.496683 0.402697 0.199467 -0.137320
H11   H     H_    0.515937 0.338637 0.172970 0.085818
N11   N     N_R   0.502760 0.445970 0.293860 -0.046352
C16   C     C_R   0.720434 0.813560 0.747028 -0.147043
H12   H     H_    0.699962 0.877994 0.761482 0.122731
N12   N     N_R   0.652110 0.708890 0.706130 -0.051721
C17   C     C_R   0.813663 0.723435 0.755013 0.340728
N13   N     N_R   0.708930 0.652070 0.706130 -0.085408
C18   C     C_R   0.409582 0.497819 0.197108 -0.077051
H13   H     H_    0.355539 0.527458 0.168812 0.128434
N14   N     N_R   0.445950 0.502780 0.293850 -0.054115
C19   C     C_R   0.499165 0.802192 0.589461 -0.130936
H14   H     H_    0.522513 0.855565 0.672153 0.105854
N15   N     N_R   0.502760 0.708900 0.556790 -0.043736
C20   C     C_R   0.708139 0.409318 0.406939 -0.141735
H15   H     H_    0.677907 0.353163 0.322575 0.119706
N16   N     N_R   0.652110 0.445950 0.443190 -0.047848
Ni1   Ni    Ni4+2 0.369690 0.500010 0.369700 0.216763
Ni2   Ni    Ni4+2 0.630310 0.499990 0.630300 0.277629
Ni3   Ni    Ni4+2 0.500000 0.369720 0.369720 0.212562
Ni4   Ni    Ni4+2 0.500000 0.630280 0.630280 0.252361
C21   C     C_R   0.440875 0.804227 0.497345 0.063695
C22   C     C_R   0.802140 0.442561 0.496534 0.039622
C23   C     C_R   0.440554 0.434329 0.136821 0.111530
C24   C     C_R   0.822323 0.824967 0.777655 -0.092192
C25   C     C_R   0.108575 0.584423 0.272627 -0.180559
H16   H     H_    0.166163 0.663738 0.292271 0.154706
C26   C     C_R   0.085148 0.572571 0.351505 -0.008064
C27   C     C_R   0.013400 0.467105 0.325130 0.016256
C28   C     C_R   0.958779 0.378654 0.218824 -0.091982
H17   H     H_    0.901841 0.298157 0.197547 0.143619
C29   C     C_R   0.983514 0.391273 0.142010 -0.051833
H18   H     H_    0.944331 0.320347 0.062124 0.150720
C30   C     C_R   0.061598 0.493290 0.169798 -0.030656
C31   C     C_R   0.907607 0.440749 0.411429 -0.194953
H19   H     H_    0.855922 0.456824 0.356305 0.184845
C32   C     C_R   0.888984 0.427152 0.490624 0.059292
C33   C     C_R   0.958088 0.410653 0.565433 0.112266
C34   C     C_R   0.050616 0.415403 0.563184 -0.144159
H20   H     H_    0.107334 0.406935 0.622463 0.136097
C35   C     C_R   0.071549 0.434858 0.486440 0.037638
C36   C     C_R   0.997447 0.444702 0.407908 -0.017608
C37   C     C_R   0.993343 0.470682 0.757780 0.326468
C38   C     C_R   0.956105 0.450200 0.825813 -0.003478
H21   H     H_    0.995067 0.513201 0.909734 0.181906
C39   C     C_R   0.866099 0.350790 0.785678 -0.073637
H22   H     H_    0.838858 0.336245 0.839365 0.190594
C40   C     C_R   0.810460 0.270663 0.676233 -0.135670
H23   H     H_    0.740049 0.194076 0.645025 0.134809
C41   C     C_R   0.843897 0.290283 0.606352 -0.156446
H24   H     H_    0.797743 0.228528 0.520724 0.140860
C42   C     C_R   0.934541 0.389842 0.645632 -0.097362
C43   C     C_R   0.523493 0.413796 0.935132 0.047556
C44   C     C_R   0.466669 0.455026 0.883400 -0.018849
C45   C     C_R   0.370604 0.443729 0.882925 -0.265069
H25   H     H_    0.316960 0.460145 0.830199 0.170780
C46   C     C_R   0.346454 0.415210 0.954278 0.332227
C47   C     C_R   0.423788 0.405026 0.028816 -0.076914
C48   C     C_R   0.502662 0.389265 0.007597 -0.047250
C49   C     C_3   0.620778 0.431821 0.082995 -0.392014
C50   C     C_3   0.643625 0.460313 0.002908 0.173101
H26   H     H_    0.656569 0.505426 0.163159 0.158125
H27   H     H_    0.691177 0.549853 0.036033 0.116393
C51   C     C_R   0.355177 0.878111 0.393233 0.123991
C52   C     C_R   0.404623 0.882300 0.492379 0.088033
C53   C     C_R   0.428999 0.970467 0.587248 -0.099712
H28   H     H_    0.459360 0.973572 0.664684 0.134377
C54   C     C_R   0.429438 0.063409 0.585501 -0.154531
H29   H     H_    0.460570 0.135313 0.661720 0.170949
C55   C     C_R   0.406910 0.067707 0.489328 -0.016522
C56   C     C_R   0.354678 0.969290 0.391091 0.097758
C57   C     C_3   0.369328 0.941314 0.293590 0.161943
C58   C     C_3   0.370898 0.842321 0.297416 -0.622357
H30   H     H_    0.447338 0.000898 0.308632 0.079117
H31   H     H_    0.300739 0.763177 0.226147 0.225667
H32   H     H_    0.451268 0.847595 0.319144 0.192451
C59   C     C_R   0.020982 0.047005 0.056132 0.175000
C60   C     C_R   0.104590 0.103973 0.044326 0.019422
C61   C     C_R   0.101043 0.062955 0.944457 -0.096900
H33   H     H_    0.169600 0.103067 0.936973 0.151878
C62   C     C_R   0.005449 0.971927 0.853009 -0.064554
H34   H     H_    0.000047 0.939696 0.774453 0.144629
C63   C     C_R   0.916702 0.924410 0.864451 -0.017015
C64   C     C_R   0.928079 0.957593 0.966975 0.136213
C65   C     C_3   0.858851 0.986303 0.008864 0.178468
C66   C     C_3   0.962854 0.085567 0.108987 -0.647830
H35   H     H_    0.804888 0.007367 0.959056 0.073439
H36   H     H_    0.969656 0.164145 0.115820 0.168406
H37   H     H_    0.982768 0.083128 0.185628 0.247311
N17   N     N_R   0.898063 0.706248 0.812313 0.227498
O1    O     O_R   0.996796 0.763142 0.835896 -0.328295
O2    O     O_R   0.877869 0.639472 0.848905 -0.392545
C67   C     C_2   0.097656 0.504238 0.093534 0.523700
H38   H     H_    0.150314 0.584296 0.110274 0.035906
O3    O     O_2   0.070406 0.423091 0.011658 -0.526808
C68   C     C_2   0.136785 0.669114 0.460872 0.520857
H39   H     H_    0.125360 0.659455 0.524628 0.051663
O4    O     O_2   0.191595 0.761289 0.480876 -0.577917
N18   N     N_R   0.085341 0.575536 0.802585 0.254011
O5    O     O_R   0.156333 0.632199 0.906321 -0.311443
O6    O     O_R   0.093344 0.620393 0.743581 -0.379121
N19   N     N_R   0.246399 0.398775 0.951596 0.238696
O7    O     O_R   0.202957 0.332401 0.980920 -0.402268
O8    O     O_R   0.189653 0.434535 0.902982 -0.370812
C69   C     C_2   0.642273 0.342704 0.092165 0.678213
H40   H     H_    0.576827 0.258616 0.046545 0.014876
O9    O     O_2   0.734278 0.364278 0.149323 -0.602967
N20   N     N_R   0.686498 0.398093 0.950493 0.244127
O10   O     O_R   0.625274 0.294339 0.877529 -0.464422
O11   O     O_R   0.788080 0.447089 0.978771 -0.385487
N21   N     N_R   0.274158 0.911324 0.195462 0.266101
O12   O     O_R   0.287077 0.937793 0.125599 -0.362509
O13   O     O_R   0.176444 0.853484 0.174132 -0.325474
N22   N     N_R   0.802509 0.905306 0.031901 0.265739
O14   O     O_R   0.853289 0.867905 0.084502 -0.338360
O15   O     O_R   0.699023 0.866076 0.994866 -0.392105

loop_
_geom_bond_atom_site_label_1
_geom_bond_atom_site_label_2
_geom_bond_distance
_ccdc_geom_bond_type
C6    C12   1.369145 A    
N15   Ni4   1.873998 S    
C29   C30   1.401367 A    
C43   C44   1.392452 A    
C48   C49   1.508600 S    
C58   H31   1.109892 S    
C17   N13   1.329576 A    
C26   C68   1.484259 S    
C59   C60   1.386122 A    
N9    Ni1   1.859204 S    
C35   C36   1.415274 A    
C20   H15   1.082243 S    
N21   O12   1.300349 A    
N6    Ni1   1.886551 S    
C3    H3    1.072395 S    
C37   C38   1.404815 A    
N10   N16   1.395105 A    
C26   C27   1.413853 A    
C51   C56   1.377078 A    
C59   C64   1.360500 A    
N5    Ni2   1.859204 S    
C17   N17   1.431866 S    
C47   C48   1.404231 A    
C15   N11   1.309455 A    
N22   O15   1.300478 A    
N13   Ni2   1.859267 S    
C16   H12   1.080122 S    
C39   H22   1.081710 S    
N1    Ni1   1.859267 S    
C38   C39   1.396466 A    
C57   C58   1.508260 S    
N8    Ni3   1.877248 S    
C62   H34   1.083193 S    
C11   C55   1.453299 S    
C3    C11   1.376703 A    
C31   C36   1.360367 A    
C25   C26   1.406247 A    
C1    H1    1.080947 S    
C34   H20   1.084750 S    
C31   C32   1.385522 A    
C7    C10   1.384501 A    
C64   C65   1.496786 S    
C60   C61   1.400119 A    
C18   C23   1.394255 A    
C46   N19   1.435827 S    
C7    H7    1.077985 S    
C6    H6    1.073145 S    
C20   N16   1.315736 A    
C8    C9    1.366277 A    
C43   C50   1.503661 S    
C45   C46   1.402305 A    
C5    C11   1.391292 A    
C9    C60   1.405739 S    
C66   H37   1.111682 S    
C49   H26   1.112610 S    
N12   N13   1.388642 A    
C29   H18   1.083203 S    
C24   C63   1.413701 S    
C5    H5    1.073585 S    
C1    C9    1.363193 A    
C49   C69   1.507814 S    
C34   C35   1.399447 A    
N1    N8    1.388643 A    
C31   H19   1.084072 S    
C37   N18   1.442984 S    
C14   C22   1.376132 A    
C55   C56   1.401481 A    
N21   O13   1.302428 A    
C66   H36   1.110996 S    
C65   H35   1.112854 S    
C19   N15   1.338665 A    
C41   H24   1.083553 S    
C17   C24   1.388364 A    
C2    N2    1.315041 A    
C46   C47   1.411041 A    
N7    Ni4   1.874566 S    
C38   H21   1.080377 S    
C33   C34   1.390218 A    
N14   Ni1   1.886641 S    
C62   C63   1.401739 A    
C65   N22   1.463496 S    
N2    N7    1.388398 A    
C51   C58   1.496519 S    
C16   C24   1.379864 A    
C25   H16   1.082727 S    
C1    N1    1.326778 A    
C15   H11   1.077650 S    
C14   N10   1.330266 A    
C68   O4    1.220023 D    
C18   H13   1.081256 S    
C67   O3    1.219293 D    
C13   H9    1.078898 S    
C18   N14   1.342670 A    
C33   C42   1.476807 S    
C52   C53   1.406040 A    
C65   C66   1.520663 S    
N12   Ni4   1.877247 S    
C53   C54   1.396892 A    
C49   C50   1.521753 S    
C6    N6    1.318063 A    
C22   C32   1.430055 S    
C54   C55   1.407018 A    
C57   N21   1.465329 S    
C30   C67   1.469931 S    
C4    N4    1.338148 A    
C50   N20   1.467682 S    
N11   Ni3   1.874565 S    
N19   O8    1.301206 A    
C37   C42   1.420214 A    
C40   H23   1.082622 S    
C40   C41   1.394288 A    
N9    N15   1.395105 A    
C15   C23   1.361941 A    
N18   O5    1.301667 A    
C58   H32   1.112278 S    
C8    N8    1.330568 A    
N2    Ni2   1.886641 S    
N11   N14   1.388396 A    
C67   H38   1.083595 S    
N17   O2    1.301259 A    
C61   H33   1.083399 S    
C4    C12   1.387619 A    
C3    N3    1.324254 A    
C19   H14   1.080470 S    
C7    N7    1.336106 A    
C8    H8    1.080845 S    
N4    N6    1.395105 A    
C41   C42   1.405927 A    
N19   O7    1.301539 A    
C20   C22   1.369027 A    
C2    C10   1.371081 A    
C69   H40   1.085949 S    
C50   H27   1.113201 S    
C13   C21   1.376631 A    
C56   C57   1.506309 S    
N16   Ni3   1.877547 S    
C28   H17   1.083605 S    
C5    N5    1.340058 A    
C68   H39   1.084518 S    
N3    N5    1.395104 A    
C32   C33   1.407195 A    
C13   N9    1.320100 A    
C63   C64   1.387817 A    
C14   H10   1.069113 S    
C16   N12   1.328302 A    
C69   O9    1.218440 D    
C57   H30   1.113160 S    
C43   C48   1.369124 A    
C53   H28   1.081151 S    
C39   C40   1.392478 A    
N20   O11   1.300459 A    
N22   O14   1.302321 A    
C54   H29   1.081547 S    
N4    Ni4   1.877547 S    
C4    H4    1.077671 S    
C27   C28   1.401595 A    
C2    H2    1.067400 S    
C44   C45   1.404086 A    
C25   C30   1.402065 A    
N10   Ni2   1.886553 S    
C10   C44   1.434001 S    
C51   C52   1.398072 A    
C27   C36   1.477481 S    
C19   C21   1.388370 A    
N18   O6    1.300903 A    
N20   O10   1.302601 A    
C59   C66   1.496447 S    
N3    Ni3   1.873999 S    
C21   C52   1.452972 S    
C45   H25   1.082955 S    
C12   C35   1.436632 S    
C23   C47   1.445696 S    
C28   C29   1.389562 A    
N17   O1    1.300414 A    
C61   C62   1.394034 A    
