data_mof_unit_25316.cif
_audit_creation_date              2012-12-11T17:43:35-0500
_audit_creation_method            fapswitch 2.2
_symmetry_space_group_name_H-M    P1
_symmetry_Int_Tables_number       1
_space_group_crystal_system       triclinic
_cell_length_a                    15.09316
_cell_length_b                    15.200331
_cell_length_c                    17.22343
_cell_angle_alpha                 109.271397
_cell_angle_beta                  106.563589
_cell_angle_gamma                 108.92248
_cell_volume                      3170.04766554

loop_
_atom_site_label
_atom_site_type_symbol
_atom_type_description
_atom_site_fract_x
_atom_site_fract_y
_atom_site_fract_z
_atom_type_partial_charge
C1    C     C_R   0.090721 0.277257 0.033991 -0.171534
C2    C     C_R   0.069926 0.052371 0.940097 -0.235130
C3    C     C_R   0.996626 0.894809 0.952379 0.054737
C4    C     C_R   0.000442 0.081625 0.967218 0.068346
C5    C     C_R   0.068127 0.957571 0.931684 0.026777
C6    C     C_R   0.928350 0.016963 0.986687 0.014925
C7    C     C_R   0.752285 0.997340 0.971279 -0.136293
C8    C     C_R   0.247889 0.984258 0.953957 -0.159788
C9    C     C_R   0.732134 0.106231 0.097072 -0.143723
C10   C     C_R   0.273977 0.851135 0.852521 -0.130073
C11   C     C_R   0.529968 0.904247 0.100885 -0.140755
C12   C     C_R   0.912721 0.712685 0.927382 -0.105641
C13   C     C_R   0.527535 0.190523 0.991373 -0.307283
C14   C     C_R   0.538764 0.811587 0.066993 0.523159
C15   C     C_R   0.543186 0.294337 0.034564 0.534250
C16   C     C_R   0.936978 0.450902 0.736716 -0.030404
C17   C     C_R   0.064430 0.492096 0.256793 -0.040144
C18   C     C_R   0.540534 0.754850 0.118177 -0.053905
C19   C     C_R   0.524465 0.345247 0.981206 0.035643
C20   C     C_R   0.533874 0.793312 0.201521 -0.149773
C21   C     C_R   0.484313 0.290215 0.885753 -0.250206
C22   C     C_R   0.525508 0.885941 0.234033 -0.099349
C23   C     C_R   0.029311 0.472780 0.729052 0.048663
C24   C     C_R   0.463769 0.185549 0.843523 -0.079352
C25   C     C_R   0.523480 0.941285 0.183732 -0.207332
C26   C     C_R   0.487492 0.136380 0.896217 -0.116233
C27   C     C_R   0.627466 0.643526 0.077875 -0.190481
C28   C     C_R   0.452702 0.462157 0.031138 -0.147341
C29   C     C_R   0.625120 0.544798 0.046841 0.110538
C30   C     C_R   0.453034 0.559054 0.058638 0.100369
C31   C     C_R   0.537238 0.453279 0.023640 0.071384
C32   C     C_R   0.540127 0.651407 0.083664 -0.015201
C33   C     C_R   0.688543 0.027744 0.006881 -0.055854
C34   C     C_R   0.972455 0.440763 0.259183 0.096684
C35   C     C_R   0.314523 0.946690 0.930320 -0.093073
C36   C     C_R   0.962600 0.435884 0.337205 0.013097
C37   C     C_R   0.034535 0.459926 0.645073 0.013252
C38   C     C_R   0.083585 0.387893 0.528021 -0.181689
C39   C     C_R   0.908100 0.498623 0.451791 -0.169593
C40   C     C_R   0.719625 0.215922 0.823705 -0.196936
C41   C     C_R   0.228488 0.797827 0.189806 -0.168877
C42   C     C_R   0.087584 0.407911 0.613677 -0.243040
C43   C     C_R   0.902140 0.478266 0.366536 -0.249334
C44   C     C_R   0.977287 0.493277 0.593187 0.418635
C45   C     C_R   0.662520 0.215624 0.744644 -0.056273
C46   C     C_R   0.025160 0.406434 0.389062 0.433403
C47   C     C_R   0.970110 0.470815 0.506338 -0.003532
C48   C     C_R   0.026825 0.420872 0.474146 -0.022441
C49   C     C_R   0.552266 0.139179 0.680492 -0.042642
C50   C     C_R   0.288135 0.897777 0.363635 -0.038797
C51   C     C_R   0.379316 0.087541 0.455638 -0.157186
C52   C     C_R   0.417520 0.957987 0.601588 -0.160298
C53   C     C_R   0.324267 0.998783 0.369981 -0.231680
C54   C     C_R   0.511990 0.038288 0.674237 -0.264757
C55   C     C_R   0.295120 0.888636 0.444111 0.433334
C56   C     C_R   0.254525 0.804637 0.277120 -0.108087
C57   C     C_R   0.489000 0.159953 0.618001 0.419218
C58   C     C_R   0.372003 0.973679 0.527614 0.025042
C59   C     C_R   0.411349 0.075036 0.534407 0.022098
C60   C     C_R   0.839531 0.155047 0.151371 -0.080452
C61   C     C_R   0.166389 0.792260 0.798433 -0.075387
C62   C     C_R   0.904019 0.127109 0.115281 -0.097773
C63   C     C_R   0.099187 0.828306 0.822720 -0.102961
C64   C     C_R   0.299473 0.588540 0.999688 -0.243613
C65   C     C_R   0.749074 0.472163 0.055219 -0.223193
C66   C     C_R   0.860644 0.048090 0.024879 0.075981
C67   C     C_R   0.355563 0.555241 0.050628 -0.001293
C68   C     C_R   0.139519 0.924436 0.901014 0.087156
C69   C     C_R   0.726584 0.306717 0.745846 0.458892
C70   C     C_R   0.235140 0.703605 0.265351 0.506384
C71   C     C_R   0.294264 0.499075 0.079356 0.466869
C72   C     C_R   0.741116 0.554406 0.969117 0.483561
C73   C     C_R   0.110965 0.541738 0.814093 -0.117015
C74   C     C_R   0.890801 0.406609 0.178280 -0.172273
C75   C     C_R   0.916548 0.194180 0.951925 -0.095298
C76   C     C_R   0.085811 0.798675 0.006252 -0.115247
C77   C     C_R   0.004030 0.180028 0.976370 0.052329
C78   C     C_R   0.711492 0.536226 0.033411 -0.031157
C79   C     C_R   0.999459 0.805068 0.960129 0.038377
C80   C     C_R   0.925997 0.922968 0.976963 -0.220807
H1    H     H_    0.515997 0.012601 0.208559 0.130972
H2    H     H_    0.129821 0.380947 0.654572 0.153112
H3    H     H_    0.123301 0.344917 0.504434 0.153985
H4    H     H_    0.865143 0.537861 0.474414 0.161405
H5    H     H_    0.860224 0.403764 0.680893 0.151979
H6    H     H_    0.142178 0.518541 0.306362 0.191656
H7    H     H_    0.554793 0.019831 0.723180 0.149522
H8    H     H_    0.314561 0.009780 0.309761 0.145281
H9    H     H_    0.408801 0.164666 0.459256 0.182682
H10   H     H_    0.388961 0.880624 0.597573 0.186625
H11   H     H_    0.682828 0.128910 0.125254 0.097159
H12   H     H_    0.473291 0.055739 0.863212 0.122731
H13   H     H_    0.325908 0.822429 0.834538 0.124941
H14   H     H_    0.872635 0.214475 0.221438 0.142975
H15   H     H_    0.135101 0.718065 0.738419 0.155337
H16   H     H_    0.987332 0.166242 0.157729 0.145664
H17   H     H_    0.015771 0.780712 0.781433 0.147138
H18   H     H_    0.689389 0.165991 0.852037 0.129982
H19   H     H_    0.235090 0.861200 0.172992 0.123636
H20   H     H_    0.328155 0.642172 0.973952 0.143910
H21   H     H_    0.737117 0.441455 0.101326 0.167258
H22   H     H_    0.192949 0.579134 0.831202 0.111181
H23   H     H_    0.525996 0.946887 0.061784 0.116186
H24   H     H_    0.809879 0.353648 0.154950 0.116499
H25   H     H_    0.836290 0.134827 0.909905 0.102256
H26   H     H_    0.166613 0.853813 0.032391 0.106849
H27   H     H_    0.873289 0.874640 0.994962 0.155748
H28   H     H_    0.124351 0.102767 0.924916 0.137421
H29   H     H_    0.170060 0.292503 0.068587 0.138727
H30   H     H_    0.835856 0.689054 0.878246 0.137350
H31   H     H_    0.717739 0.935962 0.901527 0.124590
H32   H     H_    0.280366 0.057654 0.015302 0.122065
H33   H     H_    0.539675 0.708841 0.963211 0.334770
H34   H     H_    0.544681 0.151200 0.031317 0.103460
H35   H     H_    0.588143 0.301428 0.155017 0.305543
H36   H     H_    0.533579 0.750364 0.240763 0.154925
H37   H     H_    0.466366 0.327674 0.844012 0.150237
H38   H     H_    0.151506 0.392272 0.405747 0.319056
H39   H     H_    0.856167 0.511875 0.588923 0.312025
H40   H     H_    0.605368 0.990088 0.964639 0.112426
H41   H     H_    0.397532 0.990739 0.973030 0.101458
H42   H     H_    0.534666 0.303177 0.703954 0.338301
H43   H     H_    0.166599 0.760098 0.386523 0.325071
H44   H     H_    0.661839 0.285164 0.624157 0.326397
H45   H     H_    0.519504 0.914252 0.297870 0.127798
H46   H     H_    0.344127 0.739302 0.378498 0.334050
H47   H     H_    0.276846 0.464993 0.173525 0.320842
H48   H     H_    0.699115 0.554908 0.853845 0.319633
H49   H     H_    0.428229 0.142332 0.769783 0.141285
H50   H     H_    0.696064 0.713121 0.095967 0.152084
H51   H     H_    0.383159 0.391215 0.009562 0.131775
H52   H     H_    0.856074 0.502926 0.325975 0.165432
N1    N     N_R   0.055660 0.348550 0.045620 -0.049946
N2    N     N_R   0.185200 0.638170 0.176300 -0.080067
N3    N     N_R   0.201680 0.494570 0.045620 -0.106179
N4    N     N_R   0.798320 0.505430 0.954380 -0.104813
N5    N     N_R   0.068420 0.560530 0.871650 -0.042695
N6    N     N_R   0.931580 0.439470 0.128350 -0.042029
N7    N     N_R   0.948070 0.295860 0.997670 -0.037684
N8    N     N_R   0.051930 0.704140 0.002330 -0.044655
N9    N     N_R   0.944340 0.651450 0.954380 -0.052638
N10   N     N_R   0.960830 0.507850 0.823700 -0.040625
N11   N     N_R   0.039170 0.492150 0.176300 -0.063550
N12   N     N_R   0.811290 0.303410 0.871650 -0.067329
N13   N     N_R   0.188710 0.696590 0.128350 -0.064758
N14   N     N_R   0.205200 0.552990 0.997670 -0.061476
N15   N     N_R   0.794800 0.447010 0.002330 -0.062695
N16   N     N_R   0.814800 0.361830 0.823700 -0.079528
Ni1   Ni    Ni4+2 0.119340 0.493420 0.109960 0.237050
Ni2   Ni    Ni4+2 0.880660 0.506580 0.890040 0.246929
Ni3   Ni    Ni4+2 0.872590 0.372590 0.000000 0.207034
Ni4   Ni    Ni4+2 0.127410 0.627410 0.000000 0.210069
O1    O     O_3   0.541220 0.778399 0.983021 -0.776845
O2    O     O_3   0.693903 0.586970 0.911585 -0.773162
O3    O     O_3   0.577696 0.347788 0.128044 -0.771018
O4    O     O_3   0.082963 0.365106 0.354673 -0.788067
O5    O     O_3   0.931913 0.550834 0.630218 -0.778783
O6    O     O_3   0.499845 0.259334 0.636486 -0.741137
O7    O     O_3   0.232901 0.798369 0.443174 -0.748818
O8    O     O_3   0.701014 0.345877 0.686360 -0.768103
O9    O     O_3   0.279995 0.675767 0.328485 -0.761792
O10   O     O_3   0.331379 0.480215 0.151726 -0.748683

loop_
_geom_bond_atom_site_label_1
_geom_bond_atom_site_label_2
_ccdc_geom_bond_type
C25   H1    S    
C57   O6    S    
C71   O10   S    
C62   H16   S    
C38   H3    S    
C27   C29   A    
C1    C77   A    
C14   C18   A    
C52   H10   S    
C42   H2    S    
C76   C79   A    
C65   H21   S    
N5    N10   A    
C19   C31   S    
C9    H11   S    
C12   H30   S    
C15   C19   A    
C74   N6    A    
C80   H27   S    
H43   O7    S    
C74   H24   S    
C43   H52   S    
C19   C21   A    
C24   C26   A    
C39   H4    S    
C38   C42   A    
N12   Ni3   S    
C11   H23   S    
N6    N11   A    
C8    H32   S    
C40   H18   S    
C54   H7    S    
C11   C14   A    
C57   C59   A    
C11   C25   A    
C26   H12   S    
C49   C54   A    
C12   C79   A    
C69   O8    S    
C49   C57   A    
C12   N9    A    
C60   C62   A    
C2    H28   S    
C37   C42   A    
C61   C63   A    
C21   H37   S    
C1    H29   S    
C24   H49   S    
C29   C78   S    
C22   C25   A    
C72   C78   A    
C41   H19   S    
N5    Ni4   S    
H38   O4    S    
C10   C35   A    
C45   C49   S    
C65   N15   A    
H46   O9    S    
N8    Ni4   S    
C18   C20   A    
C30   C67   S    
C44   C47   A    
N12   N16   A    
C64   N14   A    
C55   O7    S    
C3    C79   S    
C9    C33   A    
C44   O5    S    
C7    C33   A    
C71   N3    A    
C23   C73   A    
C5    C68   S    
C1    N1    A    
C3    C80   A    
C52   C54   A    
N9    Ni2   S    
C51   C59   A    
C76   N8    A    
C40   C45   A    
C46   C48   A    
C50   C53   A    
C72   O2    S    
C62   C66   A    
C45   C69   A    
C17   H6    S    
N4    N15   A    
C64   C67   A    
C35   H41   S    
N1    Ni1   S    
N8    N9    A    
C4    C6    A    
C20   H36   S    
C22   H45   S    
C39   C43   A    
C10   H13   S    
C58   C59   A    
N3    Ni1   S    
N2    Ni1   S    
C50   C56   S    
C51   C53   A    
C8    C35   A    
C16   N10   A    
C41   C56   A    
C6    C80   A    
C47   C48   A    
C13   C15   A    
C6    C66   S    
H39   O5    S    
N3    N14   A    
H42   O6    S    
C36   C46   A    
C75   C77   A    
C52   C58   A    
C34   C74   A    
N14   Ni4   S    
N16   Ni2   S    
C73   H22   S    
C20   C22   A    
N1    N7    A    
C16   C23   A    
C56   C70   A    
C40   N12   A    
C14   O1    S    
C16   H5    S    
C13   C26   A    
C21   C24   A    
C10   C61   A    
C18   C32   S    
C17   C34   A    
C70   O9    S    
C38   C48   A    
C39   C47   A    
C69   N16   A    
N2    N13   A    
C63   C68   A    
C76   H26   S    
C65   C78   A    
H35   O3    S    
C27   C32   A    
C15   O3    S    
C28   C31   A    
C13   H34   S    
H33   O1    S    
C3    C5    A    
N4    Ni2   S    
C61   H15   S    
C75   H25   S    
H48   O2    S    
N6    Ni3   S    
H47   O10   S    
C46   O4    S    
C50   C55   A    
C17   N11   A    
C9    C60   A    
C28   H51   S    
C8    C68   A    
C28   C30   A    
C64   H20   S    
C4    C77   S    
C63   H17   S    
C23   C37   S    
C51   H9    S    
C7    C66   A    
C30   C32   A    
N10   Ni2   S    
C73   N5    A    
C37   C44   A    
N15   Ni3   S    
H44   O8    S    
N7    Ni3   S    
C34   C36   S    
C7    H31   S    
C53   H8    S    
C67   C71   A    
N13   Ni4   S    
C72   N4    A    
C2    C5    A    
C2    C4    A    
N11   Ni1   S    
C41   N13   A    
C33   H40   S    
C29   C31   A    
C55   C58   A    
C70   N2    A    
C27   H50   S    
C36   C43   A    
C75   N7    A    
C60   H14   S    
