data_mof_unit_17425.cif
_audit_creation_date              2012-12-10T16:56:30-0500
_audit_creation_method            fapswitch 2.2
_symmetry_space_group_name_H-M    P1
_symmetry_Int_Tables_number       1
_space_group_crystal_system       triclinic
_cell_length_a                    10.849894
_cell_length_b                    11.035085
_cell_length_c                    9.799523
_cell_angle_alpha                 90.139698
_cell_angle_beta                  91.161335
_cell_angle_gamma                 94.338349
_cell_volume                      1169.68061221

loop_
_atom_site_label
_atom_site_type_symbol
_atom_type_description
_atom_site_fract_x
_atom_site_fract_y
_atom_site_fract_z
_atom_type_partial_charge
C1    C     C_R   0.510787 0.267219 0.500506 0.723528
C2    C     C_3   0.877423 0.501919 0.502692 -0.246195
C3    C     C_3   0.944387 0.628513 0.468196 0.275058
C4    C     C_3   0.910281 0.407874 0.390163 0.100212
C5    C     C_2   0.497685 0.933812 0.408332 -0.255638
C6    C     C_2   0.548149 0.861488 0.499411 0.322563
C7    C     C_2   0.532130 0.065579 0.395855 0.443003
C8    C     C_2   0.534327 0.137844 0.507923 0.240809
C9    C     C_2   0.448397 0.411954 0.920905 0.598598
C10   C     C_2   0.465209 0.405506 0.075658 0.478276
C11   C     C_R   0.259497 0.486929 0.498469 0.828446
C12   C     C_R   0.507409 0.733471 0.500113 0.738684
C13   C     C_R   0.739932 0.505378 0.501363 0.856102
C14   C     C_3   0.062635 0.423915 0.629139 0.231459
C15   C     C_3   0.927715 0.456580 0.642042 -0.375341
C16   C     C_3   0.087886 0.624831 0.483156 0.568991
C17   C     C_3   0.055485 0.410445 0.369463 0.812844
C18   C     C_3   0.119875 0.485612 0.494924 -0.259407
Cu1   Cu    Cu3+1 0.500030 0.500020 0.638630 0.981633
Cu2   Cu    Cu3+1 0.499970 0.499980 0.361370 1.002047
H1    H     H_    0.113207 0.457589 0.723630 0.095944
H2    H     H_    0.866812 0.429578 0.289849 0.076973
H3    H     H_    0.924790 0.637543 0.356937 0.116529
H4    H     H_    0.425787 0.895805 0.338246 0.115272
H5    H     H_    0.496898 0.583108 0.109462 0.211824
H6    H     H_    0.869149 0.375409 0.676103 0.237197
H7    H     H_    0.920943 0.522253 0.725828 0.122758
N1    N     N_2   0.498630 0.498660 0.846910 -0.081061
N2    N     N_2   0.498590 0.498630 0.153040 -0.310965
O1    O     O_R   0.500020 0.321960 0.617040 -0.559409
O2    O     O_R   0.499980 0.321920 0.382900 -0.514482
O3    O     O_R   0.317710 0.500000 0.617070 -0.581742
O4    O     O_R   0.317670 0.499960 0.382930 -0.545225
O5    O     O_R   0.500020 0.678080 0.617100 -0.590035
O6    O     O_R   0.499980 0.678040 0.382960 -0.597218
O7    O     O_R   0.682330 0.500040 0.617070 -0.604800
O8    O     O_R   0.682290 0.500000 0.382930 -0.588685
O9    O     O_3   0.139532 0.677692 0.364067 -0.703117
H8    H     H_    0.226325 0.708286 0.384826 0.358251
O10   O     O_3   0.652564 0.901091 0.573584 -0.698335
H9    H     H_    0.662693 0.843609 0.649571 0.315375
O11   O     O_3   0.535058 0.117361 0.267223 -0.556396
C19   C     C_3   0.609349 0.053207 0.179933 -0.272895
H10   H     H_    0.559330 0.966910 0.144306 0.164581
H11   H     H_    0.699663 0.035429 0.229291 0.161141
H12   H     H_    0.629798 0.109652 0.088484 0.181039
O12   O     O_3   0.552068 0.089648 0.636715 -0.592003
C20   C     C_3   0.670497 0.132943 0.688400 -0.240299
H13   H     H_    0.673166 0.229323 0.721345 0.158201
H14   H     H_    0.744670 0.121969 0.613329 0.224144
H15   H     H_    0.692434 0.078946 0.779887 0.170794
O13   O     O_3   0.369448 0.325353 0.855060 -0.646406
C21   C     C_3   0.411805 0.207541 0.866910 -0.251352
H16   H     H_    0.512805 0.206834 0.888911 0.176049
H17   H     H_    0.389151 0.158215 0.770505 0.217667
H18   H     H_    0.359037 0.153304 0.943675 0.169093
O14   O     O_3   0.593563 0.565943 0.905443 -0.735017
H19   H     H_    0.627258 0.619168 0.832058 0.362775
O15   O     O_3   0.446118 0.293281 0.134332 -0.540088
C22   C     C_3   0.319943 0.270920 0.162552 -0.174437
H20   H     H_    0.257128 0.300471 0.079897 0.131939
H21   H     H_    0.298596 0.314479 0.259141 0.242586
H22   H     H_    0.301179 0.171638 0.176018 0.164434
O16   O     O_3   0.056010 0.294762 0.620175 -0.495457
C23   C     C_3   0.150992 0.244432 0.694241 -0.183219
H23   H     H_    0.241253 0.271655 0.648341 0.201060
H24   H     H_    0.137128 0.144055 0.686326 0.175427
H25   H     H_    0.147322 0.268343 0.804245 0.162784
O17   O     O_3   0.134999 0.697401 0.594510 -0.717515
H26   H     H_    0.149764 0.646903 0.675247 0.296802
O18   O     O_3   0.896638 0.736222 0.520428 -0.525763
C24   C     C_3   0.883172 0.741846 0.663292 -0.184057
H27   H     H_    0.963457 0.716324 0.724049 0.163620
H28   H     H_    0.798505 0.688526 0.694901 0.128961
H29   H     H_    0.872962 0.837857 0.691431 0.185248
O19   O     O_3   0.093035 0.466793 0.245516 -0.761421
H30   H     H_    0.030858 0.521433 0.212110 0.300305
O20   O     O_3   0.094987 0.289706 0.369184 -0.520645
C25   C     C_3   0.047974 0.218514 0.255533 -0.213705
H31   H     H_    0.052442 0.267876 0.157061 0.144542
H32   H     H_    0.952518 0.179149 0.269854 0.204563
H33   H     H_    0.103145 0.138626 0.246641 0.145450
O21   O     O_3   0.861338 0.291740 0.430744 -0.681534
H34   H     H_    0.776348 0.278613 0.391263 0.318284

loop_
_geom_bond_atom_site_label_1
_geom_bond_atom_site_label_2
_ccdc_geom_bond_type
C11   C18   S    
C1    C8    S    
C14   C18   S    
C3    O18   S    
Cu1   Cu2   S    
C7    C8    D    
N1    O14   S    
C4    O21   S    
C22   H22   S    
C14   H1    S    
Cu1   O7    S    
C6    C12   S    
C5    C6    D    
C1    O2    A    
C22   H21   S    
C7    O11   S    
C2    C13   S    
C1    O1    A    
Cu2   O6    S    
C3    H3    S    
C20   H15   S    
O12   C20   S    
C23   H24   S    
C17   O19   S    
C9    C10   S    
C13   O8    A    
C20   H14   S    
O15   C22   S    
C9    O13   S    
C24   H29   S    
Cu1   O3    S    
Cu2   N2    S    
C21   H17   S    
H5    N2    S    
C11   O4    A    
O19   H30   S    
C13   O7    A    
C24   H28   S    
C5    C7    S    
O20   C25   S    
C15   H6    S    
C21   H16   S    
C22   H20   S    
C2    C4    S    
C19   H10   S    
C2    C15   S    
C4    H2    S    
C15   H7    S    
O21   H34   S    
C23   H25   S    
C14   O16   S    
C17   C18   S    
C12   O6    A    
Cu1   N1    S    
C19   H11   S    
Cu2   O4    S    
C20   H13   S    
C11   O3    A    
C6    O10   S    
O11   C19   S    
C4    C17   S    
C12   O5    A    
O13   C21   S    
C25   H32   S    
C21   H18   S    
O10   H9    S    
C16   O17   S    
C24   H27   S    
Cu1   O5    S    
C25   H33   S    
O16   C23   S    
C2    C3    S    
C8    O12   S    
O18   C24   S    
Cu2   O8    S    
C10   N2    D    
O14   H19   S    
O9    H8    S    
C5    H4    S    
C17   O20   S    
C10   O15   S    
O17   H26   S    
C19   H12   S    
C25   H31   S    
C16   C18   S    
C23   H23   S    
C14   C15   S    
Cu1   O1    S    
C3    C16   S    
C9    N1    D    
C16   O9    S    
Cu2   O2    S    
