data_mof_unit_15252.cif
_audit_creation_date              2012-12-10T16:58:32-0500
_audit_creation_method            fapswitch 2.2
_symmetry_space_group_name_H-M    P1
_symmetry_Int_Tables_number       1
_space_group_crystal_system       triclinic
_cell_length_a                    7.780373
_cell_length_b                    8.55564
_cell_length_c                    23.404443
_cell_angle_alpha                 91.666991
_cell_angle_beta                  85.217187
_cell_angle_gamma                 93.508505
_cell_volume                      1549.15636326

loop_
_atom_site_label
_atom_site_type_symbol
_atom_type_description
_atom_site_fract_x
_atom_site_fract_y
_atom_site_fract_z
_atom_type_partial_charge
C1    C     C_R   0.545621 0.794666 0.498553 0.959334
C2    C     C_R   0.339294 0.513382 0.302402 -0.184419
C3    C     C_R   0.351637 0.519523 0.767235 0.513572
C4    C     C_R   0.335348 0.514811 0.243126 0.513219
C5    C     C_R   0.510060 0.505170 0.791544 0.186654
C6    C     C_R   0.491719 0.501752 0.208476 0.181838
C7    C     C_2   0.569800 0.958050 0.497665 -0.360230
C8    C     C_2   0.430200 0.041950 0.502331 -0.360715
C9    C     C_R   0.501350 0.500549 0.610630 0.888512
C10   C     C_R   0.498673 0.499688 0.389372 0.890345
C11   C     C_R   0.461847 0.363986 0.118776 0.509417
C12   C     C_R   0.454379 0.205334 0.501446 0.959012
C13   C     C_R   0.554713 0.640482 0.880789 0.518858
C14   C     C_R   0.535818 0.639736 0.120239 0.514731
C15   C     C_R   0.480592 0.364755 0.879339 0.515759
C16   C     C_R   0.543674 0.642555 0.060500 -0.016595
C17   C     C_R   0.477781 0.361069 0.938965 -0.016398
C18   C     C_R   0.508568 0.501680 0.029770 -0.019324
C19   C     C_R   0.513889 0.501776 0.969672 -0.020248
C20   C     C_R   0.467375 0.360844 0.059012 -0.015804
C21   C     C_R   0.554147 0.642774 0.940446 -0.016568
C22   C     C_R   0.585425 0.782031 0.030977 -0.160270
C23   C     C_R   0.663188 0.490460 0.756725 -0.122191
C24   C     C_R   0.437806 0.221284 0.968450 -0.158229
C25   C     C_R   0.590664 0.782133 0.971403 -0.163602
C26   C     C_R   0.432618 0.221175 0.028021 -0.165740
C27   C     C_R   0.647283 0.488065 0.233127 -0.113570
C28   C     C_R   0.660759 0.489013 0.697591 -0.190752
C29   C     C_R   0.649695 0.487200 0.292178 -0.184591
C30   C     C_R   0.504433 0.502074 0.672839 -0.135416
C31   C     C_R   0.495783 0.499945 0.327176 -0.145751
C32   C     C_R   0.350754 0.517397 0.707883 -0.196088
H1    H     H_    0.613833 0.891328 0.053767 0.197005
H2    H     H_    0.219392 0.523295 0.328981 0.195554
H3    H     H_    0.701786 0.008743 0.493166 0.191791
H4    H     H_    0.298213 0.991257 0.506831 0.191786
H5    H     H_    0.215422 0.540044 0.840746 0.339568
H6    H     H_    0.193657 0.532510 0.178845 0.340678
H7    H     H_    0.936735 0.302337 0.428010 0.335859
H8    H     H_    0.063267 0.697667 0.571988 0.335224
H9    H     H_    0.409226 0.112013 0.945665 0.197529
H10   H     H_    0.622762 0.891539 0.949762 0.193649
H11   H     H_    0.400382 0.111792 0.049663 0.193609
H12   H     H_    0.784049 0.479555 0.775721 0.191906
H13   H     H_    0.766544 0.478125 0.206233 0.184811
H14   H     H_    0.780993 0.477419 0.671382 0.193227
H15   H     H_    0.771985 0.476688 0.310306 0.195271
H16   H     H_    0.229094 0.528060 0.689327 0.184439
N1    N     N_R   0.495094 0.502047 0.147706 -0.370970
N2    N     N_R   0.516669 0.503246 0.851984 -0.370357
N3    N     N_2   0.950330 0.457950 0.484560 0.176297
N4    N     N_2   0.049670 0.542050 0.515440 0.176164
O1    O     O_R   0.389250 0.738570 0.503790 -0.634510
O2    O     O_2   0.591013 0.773969 0.851671 -0.513964
O3    O     O_2   0.568202 0.772945 0.150828 -0.514329
O4    O     O_2   0.446193 0.231901 0.848785 -0.512539
O5    O     O_3   0.196386 0.535576 0.799457 -0.757987
O6    O     O_3   0.177853 0.529495 0.221186 -0.763408
O7    O     O_3   0.030609 0.357352 0.448184 -0.660850
O8    O     O_3   0.969393 0.642652 0.551815 -0.661634
O9    O     O_R   0.610750 0.261430 0.496210 -0.634882
O10   O     O_R   0.678390 0.711620 0.493890 -0.576280
O11   O     O_R   0.321610 0.288380 0.506110 -0.576656
O12   O     O_R   0.355400 0.513520 0.588790 -0.645153
O13   O     O_R   0.644600 0.486480 0.411210 -0.640320
O14   O     O_R   0.644550 0.486570 0.578900 -0.578471
O15   O     O_R   0.355450 0.513430 0.421100 -0.581468
O16   O     O_2   0.423760 0.230798 0.147938 -0.514953
Zn1   Zn    Zn3+2 0.306930 0.518000 0.506610 1.043896
Zn2   Zn    Zn3+2 0.693070 0.482000 0.493390 1.045718

loop_
_geom_bond_atom_site_label_1
_geom_bond_atom_site_label_2
_ccdc_geom_bond_type
C25   H10   S    
O9    Zn2   S    
C2    C4    A    
H8    O8    S    
N3    Zn2   S    
C27   C29   A    
C9    O12   A    
N4    O8    S    
C3    C5    A    
C6    C27   A    
C5    C23   A    
C8    C12   S    
H7    O7    S    
C1    O10   A    
C27   H13   S    
C28   C30   A    
C14   O3    S    
O12   Zn1   S    
O1    Zn1   S    
C7    C8    D    
C29   C31   A    
C1    C7    S    
C10   O15   A    
C15   O4    S    
C30   C32   A    
C24   H9    S    
C32   H16   S    
C28   H14   S    
O14   Zn2   S    
C20   C26   A    
C9    C30   S    
C29   H15   S    
C11   N1    A    
C3    O5    S    
C16   C18   A    
C13   N2    A    
C17   C19   A    
C24   C26   A    
C26   H11   S    
C13   O2    S    
C18   C20   A    
C6    N1    S    
C3    C32   A    
C11   C20   A    
C14   C16   A    
C5    N2    S    
C10   O13   A    
C14   N1    A    
C23   C28   A    
C13   C21   A    
N3    N4    D    
C17   C24   A    
O11   Zn1   S    
N3    O7    S    
C11   O16   S    
O10   Zn2   S    
C4    C6    A    
C18   C19   A    
C8    H4    S    
C15   N2    A    
C4    O6    S    
C15   C17   A    
C12   O11   A    
C1    O1    A    
C9    O14   A    
C21   C25   A    
N4    Zn1   S    
C12   O9    A    
C19   C21   A    
C2    H2    S    
H6    O6    S    
C7    H3    S    
C10   C31   S    
H5    O5    S    
C23   H12   S    
O13   Zn2   S    
C16   C22   A    
C2    C31   A    
O15   Zn1   S    
C22   C25   A    
C22   H1    S    
