data_mof_unit_33968.cif
_audit_creation_date              2012-12-10T20:57:51-0500
_audit_creation_method            fapswitch 2.2
_symmetry_space_group_name_H-M    P1
_symmetry_Int_Tables_number       1
_space_group_crystal_system       triclinic
_cell_length_a                    18.275804
_cell_length_b                    18.276882
_cell_length_c                    18.438203
_cell_angle_alpha                 120.02142
_cell_angle_beta                  90.242732
_cell_angle_gamma                 119.886265
_cell_volume                      4351.72957692

loop_
_atom_site_label
_atom_site_type_symbol
_atom_type_description
_atom_site_fract_x
_atom_site_fract_y
_atom_site_fract_z
_atom_type_partial_charge
C1    C     C_R   0.359337 0.220198 0.361219 0.814247
C2    C     C_3   0.798536 0.941554 0.733532 -0.306105
C3    C     C_2   0.364552 0.217969 0.717258 0.930986
C4    C     C_2   0.471348 0.164638 0.606076 0.953266
C5    C     C_2   0.147895 0.310371 0.077868 1.006440
C6    C     C_2   0.155604 0.115208 0.458557 0.901186
C7    C     C_2   0.139115 0.891215 0.325390 1.018473
C8    C     C_2   0.341822 0.892846 0.914742 0.926466
C9    C     C_2   0.155910 0.761765 0.781806 0.902033
C10   C     C_2   0.036905 0.842117 0.031757 0.915560
C11   C     C_2   0.026490 0.766515 0.575579 0.961582
C12   C     C_2   0.878086 0.776408 0.809879 0.950087
C13   C     C_3   0.698360 0.897159 0.698096 0.043870
C14   C     C_2   0.005611 0.887300 0.746209 1.024031
C15   C     C_2   0.049695 0.370895 0.214948 0.965221
C16   C     C_2   0.124651 0.471123 0.552663 0.893832
C17   C     C_2   0.046405 0.217906 0.674891 0.929506
C18   C     C_R   0.640834 0.780723 0.640519 0.780739
C19   C     C_3   0.798713 0.102423 0.801770 0.042379
C20   C     C_3   0.727324 0.057692 0.840713 -0.329933
C21   C     C_3   0.856811 0.060799 0.794482 -0.384596
C22   C     C_3   0.674819 0.383790 0.240358 -0.401635
C23   C     C_3   0.727124 0.374485 0.171641 -0.114865
C24   C     C_3   0.686630 0.533303 0.244830 -0.147508
C25   C     C_3   0.796012 0.567060 0.360822 -0.493998
C26   C     C_3   0.336093 0.613779 0.336858 -0.402252
C27   C     C_3   0.696677 0.494401 0.300627 0.036058
C28   C     C_3   0.799983 0.491073 0.200672 -0.119749
C29   C     C_3   0.746088 0.529441 0.185821 -0.443793
C30   C     C_R   0.358270 0.499607 0.639725 0.809123
C31   C     C_3   0.859933 0.566790 0.304948 -0.150453
C32   C     C_R   0.392373 0.156508 0.570816 -0.118354
C33   C     C_R   0.365678 0.118955 0.481351 -0.188518
C34   C     C_R   0.288446 0.103156 0.442596 0.098236
C35   C     C_R   0.236729 0.127110 0.494841 -0.006082
C36   C     C_R   0.262728 0.162777 0.584213 -0.215252
C37   C     C_3   0.302242 0.501444 0.301870 0.054767
C38   C     C_R   0.339775 0.177913 0.622575 -0.001579
C39   C     C_R   0.197131 0.945673 0.288476 -0.189161
C40   C     C_R   0.182887 0.892709 0.196149 -0.120019
C41   C     C_R   0.218383 0.949561 0.158906 0.081130
C42   C     C_R   0.640282 0.498817 0.359126 0.776405
C43   C     C_R   0.275154 0.056243 0.215102 -0.197003
C44   C     C_R   0.299000 0.108059 0.307035 -0.033328
C45   C     C_R   0.260558 0.052709 0.344868 -0.009836
C46   C     C_R   0.271789 0.913359 0.030393 -0.228345
C47   C     C_R   0.261184 0.873416 0.940633 -0.026141
C48   C     C_3   0.195933 0.497946 0.200522 -0.081676
C49   C     C_R   0.175178 0.816428 0.879412 -0.062763
C50   C     C_R   0.103403 0.806385 0.911329 -0.171578
C51   C     C_R   0.115018 0.851550 0.002287 0.036465
C52   C     C_R   0.200134 0.902815 0.062088 0.042878
C53   C     C_R   0.919771 0.609060 0.568571 -0.192943
C54   C     C_R   0.641936 0.500157 0.639970 0.818564
C55   C     C_R   0.858330 0.556289 0.597734 -0.130139
C56   C     C_R   0.842694 0.609542 0.674860 0.074526
C57   C     C_R   0.889914 0.718787 0.724082 -0.067810
C58   C     C_R   0.952200 0.772615 0.693380 -0.119495
C59   C     C_3   0.147698 0.462982 0.259124 -0.190020
C60   C     C_R   0.965912 0.716339 0.613992 -0.075434
C61   C     C_R   0.840036 0.547301 0.765152 -0.176450
C62   C     C_R   0.799737 0.501135 0.808359 -0.043449
C63   C     C_R   0.708348 0.458727 0.798862 -0.000206
C64   C     C_R   0.658536 0.458076 0.741688 -0.189638
C65   C     C_R   0.698655 0.503169 0.697620 -0.030160
C66   C     C_R   0.359397 0.501244 0.359534 0.857586
C67   C     C_R   0.791601 0.552326 0.712375 0.013036
C68   C     C_R   0.630108 0.324939 0.830198 0.033344
C69   C     C_R   0.578051 0.288810 0.875139 -0.034562
C70   C     C_3   0.285995 0.610650 0.266249 -0.280889
C71   C     C_R   0.556879 0.350263 0.940912 -0.113390
C72   C     C_R   0.589160 0.448522 0.962918 -0.075107
C73   C     C_R   0.642828 0.485735 0.919689 -0.158854
C74   C     C_R   0.663357 0.424059 0.852759 0.093327
C75   C     C_R   0.372649 0.774851 0.686439 -0.059881
C76   C     C_R   0.355743 0.717407 0.720871 -0.099610
C77   C     C_R   0.275900 0.617734 0.678759 0.046902
C78   C     C_3   0.298571 0.440480 0.202428 -0.241677
C79   C     C_R   0.210726 0.576413 0.601604 -0.037415
C80   C     C_R   0.228761 0.636907 0.569168 -0.163086
C81   C     C_3   0.686988 0.939470 0.646286 -0.223961
C82   C     C_R   0.309292 0.734732 0.610829 -0.015087
C83   C     C_R   0.212780 0.557589 0.771197 -0.156942
C84   C     C_R   0.192516 0.496156 0.802572 -0.021913
C85   C     C_R   0.223256 0.432023 0.775656 0.050172
C86   C     C_R   0.277965 0.436364 0.723726 -0.201524
C87   C     C_R   0.299910 0.499251 0.694119 -0.027911
C88   C     C_R   0.264137 0.558074 0.715614 0.054985
C89   C     C_R   0.265489 0.388034 0.867567 -0.163170
C90   C     C_3   0.224984 0.424867 0.141572 -0.270892
C91   C     C_R   0.252377 0.318546 0.886666 -0.079262
C92   C     C_3   0.752455 0.060454 0.704863 -0.254551
C93   C     C_R   0.174610 0.217965 0.836664 -0.027545
C94   C     C_R   0.108489 0.187076 0.768810 -0.156158
C95   C     C_R   0.119626 0.255974 0.748521 0.002055
C96   C     C_R   0.200353 0.358054 0.798654 0.047098
C97   C     C_R   0.857383 0.495919 0.142806 0.837996
C98   C     C_R   0.137998 0.499034 0.860920 0.807222
C99   C     C_R   0.856840 0.219119 0.862042 0.788290
C100  C     C_R   0.134940 0.779964 0.141165 0.768682
C101  C     C_R   0.855951 0.501054 0.863395 0.827128
C102  C     C_3   0.205297 0.447452 0.304747 -0.456365
C103  C     C_3   0.669556 0.937817 0.780879 -0.426331
C104  C     C_R   0.139234 0.499495 0.142858 0.832844
C105  C     C_2   0.276968 0.700281 0.311714 0.988410
C106  C     C_2   0.697467 0.891585 0.555583 0.888799
C107  C     C_2   0.705672 0.107910 0.700362 0.925328
C108  C     C_2   0.388096 0.490594 0.188574 0.924220
C109  C     C_2   0.769657 0.320282 0.171491 0.929716
C110  C     C_2   0.660068 0.299809 0.075718 0.886187
C111  C     C_2   0.592680 0.480528 0.187793 0.953732
C112  C     C_2   0.912277 0.529342 0.323893 0.930226
C113  C     C_2   0.926615 0.681129 0.339244 0.968532
H1    H     H_    0.206592 0.480094 0.374826 0.183900
H2    H     H_    0.812739 0.646150 0.408685 0.216016
H3    H     H_    0.803434 0.545371 0.405530 0.209980
H4    H     H_    0.790893 0.606345 0.198074 0.217534
H5    H     H_    0.403413 0.098020 0.440121 0.140602
H6    H     H_    0.223899 0.181113 0.625225 0.185054
H7    H     H_    0.302257 0.098914 0.186006 0.180050
H8    H     H_    0.337256 0.954759 0.076807 0.168827
H9    H     H_    0.038149 0.764999 0.864829 0.197696
H10   H     H_    0.932532 0.565674 0.510705 0.228172
H11   H     H_    0.910464 0.581024 0.772971 0.199820
H12   H     H_    0.147461 0.528016 0.313264 0.169878
H13   H     H_    0.588121 0.424687 0.733982 0.194340
H14   H     H_    0.643255 0.275358 0.777045 0.170888
H15   H     H_    0.552200 0.212183 0.857293 0.172445
H16   H     H_    0.570770 0.495045 0.011644 0.202786
H17   H     H_    0.322538 0.779548 0.584340 0.170439
H18   H     H_    0.435138 0.850589 0.718308 0.127522
H19   H     H_    0.302656 0.388652 0.705487 0.161692
H20   H     H_    0.323174 0.648544 0.400484 0.196917
H21   H     H_    0.048845 0.108374 0.731537 0.191326
H22   H     H_    0.409498 0.666048 0.354459 0.236080
H23   H     H_    0.807310 0.083989 0.677312 0.178021
H24   H     H_    0.329564 0.625137 0.226166 0.159989
H25   H     H_    0.280559 0.363408 0.181899 0.163236
H26   H     H_    0.303695 0.828404 0.324856 0.363625
H27   H     H_    0.616530 0.916124 0.633826 0.168402
H28   H     H_    0.778008 0.873527 0.484257 0.361214
H29   H     H_    0.700961 0.195340 0.666713 0.364490
H30   H     H_    0.597699 0.907548 0.759941 0.189024
H31   H     H_    0.805323 0.912602 0.772023 0.213690
H32   H     H_    0.517178 0.614325 0.241439 0.383464
H33   H     H_    0.909769 0.090800 0.767346 0.215205
H34   H     H_    0.683312 0.084500 0.847931 0.238949
H35   H     H_    0.601440 0.324642 0.208341 0.253950
H36   H     H_    0.766513 0.220369 0.192265 0.371901
H37   H     H_    0.532100 0.207852 0.994004 0.346557
H38   H     H_    0.463269 0.356796 0.122347 0.362524
H39   H     H_    0.253907 0.449064 0.098109 0.154398
H40   H     H_    0.704896 0.478044 0.114158 0.184248
H41   H     H_    0.021713 0.528052 0.326283 0.353525
H42   H     H_    0.943655 0.815948 0.380481 0.390626
H43   H     H_    0.712277 0.615973 0.293568 0.158840
H44   H     H_    0.327709 0.199956 0.813025 0.344907
H45   H     H_    0.823864 0.914617 0.678000 0.255111
H46   H     H_    0.549294 0.236768 0.553962 0.301119
H47   H     H_    0.059972 0.192315 0.953381 0.328707
H48   H     H_    0.041851 0.104201 0.472940 0.368652
H49   H     H_    0.026152 0.843819 0.245827 0.316867
H50   H     H_    0.431104 0.962610 0.868076 0.336028
H51   H     H_    0.068027 0.636277 0.659126 0.362657
H52   H     H_    0.902214 0.763908 0.998119 0.345484
H53   H     H_    0.078593 0.878028 0.554400 0.391176
H54   H     H_    0.175063 0.363906 0.272207 0.226631
H55   H     H_    0.825471 0.473604 0.561978 0.164121
H56   H     H_    0.891379 0.088335 0.861668 0.192908
H57   H     H_    0.935961 0.899703 0.938441 0.365868
H58   H     H_    0.006063 0.015006 0.810434 0.325420
H59   H     H_    0.514087 0.321230 0.973653 0.172978
H60   H     H_    0.937914 0.260567 0.106090 0.363994
H61   H     H_    0.665777 0.561156 0.936048 0.149439
H62   H     H_    0.406238 0.749315 0.779090 0.156148
H63   H     H_    0.052380 0.328512 0.526534 0.379395
H64   H     H_    0.180988 0.607849 0.510363 0.187216
H65   H     H_    0.187225 0.604345 0.788505 0.164627
H66   H     H_    0.327465 0.465118 0.905569 0.147212
H67   H     H_    0.676678 0.909639 0.819971 0.182695
H68   H     H_    0.303380 0.342037 0.939214 0.179329
H69   H     H_    0.165444 0.163754 0.850802 0.174381
H70   H     H_    0.923730 0.099994 0.581415 0.367660
H71   H     H_    0.761308 0.086688 0.908717 0.180989
H72   H     H_    0.693390 0.367828 0.285620 0.205589
O1    O     O_3   0.500000 0.500000 0.500000 -0.495039
O2    O     O_R   0.113800 0.731630 0.056520 -0.651748
O3    O     O_R   0.819390 0.439310 0.886160 -0.664346
O4    O     O_R   0.383400 0.268380 0.323710 -0.642101
O5    O     O_R   0.115110 0.560720 0.179280 -0.597251
O6    O     O_R   0.941380 0.560750 0.885620 -0.629228
O7    O     O_R   0.115110 0.439270 0.057830 -0.592994
O8    O     O_R   0.942690 0.268390 0.886930 -0.627359
O9    O     O_R   0.114340 0.731630 0.178520 -0.612271
O10   O     O_R   0.820160 0.439310 0.057830 -0.606576
O11   O     O_R   0.113800 0.560730 0.885620 -0.641529
O12   O     O_R   0.383400 0.560740 0.616060 -0.649940
O13   O     O_R   0.555060 0.731630 0.615290 -0.645282
O14   O     O_R   0.383950 0.439280 0.616600 -0.643821
O15   O     O_R   0.677590 0.560710 0.444390 -0.648956
O16   O     O_R   0.556370 0.439260 0.616600 -0.666237
O17   O     O_R   0.382640 0.439290 0.322940 -0.633542
O18   O     O_R   0.678360 0.560700 0.616060 -0.626076
O19   O     O_R   0.382640 0.560750 0.444390 -0.645730
O20   O     O_2   0.237638 0.709799 0.365744 -0.569210
O21   O     O_R   0.314335 0.772586 0.291297 -0.801060
O22   O     O_2   0.632951 0.836578 0.488378 -0.609044
O23   O     O_R   0.555060 0.439270 0.322940 -0.594883
O24   O     O_R   0.780202 0.910250 0.548352 -0.785796
O25   O     O_2   0.640177 0.092833 0.724069 -0.617146
O26   O     O_R   0.737770 0.168707 0.667929 -0.791468
O27   O     O_2   0.391807 0.450966 0.113420 -0.651208
O28   O     O_R   0.466060 0.580203 0.260334 -0.797906
O29   O     O_2   0.831905 0.330065 0.143068 -0.630756
O30   O     O_R   0.733358 0.252683 0.197127 -0.775229
O31   O     O_2   0.683819 0.265569 0.012032 -0.601955
O32   O     O_R   0.569754 0.262796 0.059361 -0.784768
O33   O     O_2   0.581299 0.522962 0.159292 -0.661136
O34   O     O_R   0.383950 0.268380 0.445700 -0.648463
O35   O     O_R   0.520814 0.383266 0.163060 -0.725705
O36   O     O_2   0.882432 0.474505 0.350614 -0.640490
O37   O     O_R   0.993609 0.554841 0.308373 -0.678947
O38   O     O_2   0.007514 0.724918 0.367665 -0.481898
O39   O     O_R   0.894746 0.739090 0.345857 -0.818563
O40   O     O_2   0.440045 0.294125 0.768359 -0.655222
O41   O     O_R   0.301574 0.168173 0.747905 -0.760123
O42   O     O_2   0.467246 0.132210 0.650991 -0.555299
O43   O     O_R   0.550058 0.206254 0.586886 -0.787015
O44   O     O_2   0.118632 0.254207 0.103315 -0.626164
O45   O     O_R   0.677590 0.731610 0.615290 -0.625934
O46   O     O_R   0.111178 0.268516 0.988933 -0.773658
O47   O     O_2   0.142672 0.109365 0.390165 -0.607115
O48   O     O_R   0.093978 0.112004 0.503664 -0.784084
O49   O     O_2   0.172051 0.892024 0.383777 -0.526744
O50   O     O_R   0.046197 0.837274 0.292319 -0.762802
O51   O     O_2   0.385014 0.865875 0.931262 -0.654397
O52   O     O_R   0.372420 0.949034 0.878008 -0.736741
O53   O     O_2   0.211616 0.798107 0.751557 -0.557274
O54   O     O_R   0.072524 0.667862 0.723874 -0.825477
O55   O     O_2   0.048057 0.904169 0.108611 -0.615376
O56   O     O_3   0.997750 0.500010 0.002220 -0.514973
O57   O     O_R   0.949831 0.762444 0.970660 -0.814273
O58   O     O_2   0.066891 0.732141 0.534965 -0.564132
O59   O     O_R   0.035480 0.850961 0.583287 -0.772000
O60   O     O_2   0.803073 0.743585 0.815566 -0.629182
O61   O     O_R   0.952769 0.867808 0.884364 -0.786626
O62   O     O_2   0.087254 0.938297 0.766323 -0.579038
O63   O     O_R   0.962614 0.936884 0.773921 -0.824952
O64   O     O_2   0.011398 0.341187 0.258615 -0.568596
O65   O     O_R   0.001875 0.321627 0.126802 -0.784027
O66   O     O_2   0.062934 0.448654 0.500587 -0.590497
O67   O     O_R   0.942690 0.560750 0.179280 -0.580291
O68   O     O_R   0.113782 0.396675 0.564121 -0.763193
O69   O     O_2   0.053188 0.273442 0.653020 -0.606538
O70   O     O_R   0.968549 0.117034 0.629897 -0.785878
O71   O     O_R   0.114340 0.439270 0.886160 -0.646196
O72   O     O_R   0.820160 0.268410 0.886930 -0.600349
Zn1   Zn    Zn3+2 0.456040 0.586770 0.543190 0.992933
Zn2   Zn    Zn3+2 0.456820 0.413240 0.543960 0.974550
Zn3   Zn    Zn3+2 0.631110 0.586750 0.543190 1.005161
Zn4   Zn    Zn3+2 0.456040 0.413240 0.369660 1.026233
Zn5   Zn    Zn3+2 0.041710 0.413240 0.959030 1.038155
Zn6   Zn    Zn3+2 0.866640 0.413270 0.959030 1.041169
Zn7   Zn    Zn3+2 0.040930 0.586780 0.958260 0.993861
Zn8   Zn    Zn3+2 0.041710 0.586770 0.132560 1.105091

loop_
_geom_bond_atom_site_label_1
_geom_bond_atom_site_label_2
_ccdc_geom_bond_type
C28   C97   S    
C25   C31   S    
C81   H27   S    
C55   C56   A    
C10   O55   D    
C93   C94   A    
C6    O47   D    
H53   O59   S    
C112  O36   D    
O10   Zn6   S    
C95   C96   A    
C50   H9    S    
C24   C27   S    
C2    H31   S    
C87   C88   A    
C28   C31   S    
C98   O71   A    
C72   H16   S    
C47   C49   A    
C20   C103  S    
C85   C86   A    
C6    C35   S    
C24   C111  S    
O3    Zn6   S    
C102  H54   S    
C13   C18   S    
C61   H11   S    
H29   O26   S    
C28   C29   S    
C19   C21   S    
C4    O43   S    
H70   O70   S    
C34   C35   A    
O71   Zn5   S    
C25   H2    S    
C37   C102  S    
C85   C96   S    
C12   O61   S    
C107  O26   S    
C99   O72   A    
C68   C74   A    
C54   O18   A    
C48   C104  S    
C46   C52   A    
O2    Zn7   S    
C11   O58   D    
C56   C57   A    
C78   C108  S    
C103  H67   S    
C73   C74   A    
C4    O42   D    
C73   H61   S    
C2    C13   S    
C110  O32   S    
C24   C29   S    
C113  O38   D    
C26   H22   S    
C92   C107  S    
H63   O68   S    
C46   C47   A    
C81   C92   S    
O19   Zn1   S    
C53   C60   A    
C35   C36   A    
C77   C88   S    
O1    Zn3   S    
C68   C69   A    
C65   C67   A    
O56   Zn7   S    
C10   O57   S    
C18   O13   A    
C31   C112  S    
C5    O46   S    
C46   H8    S    
C42   O23   A    
C19   C92   S    
C111  O33   D    
C32   C38   A    
C13   C103  S    
C101  O3    A    
C3    O40   D    
C41   C52   S    
C108  O28   S    
H50   O52   S    
C43   H7    S    
C20   H71   S    
C62   C101  S    
C66   O19   A    
C61   C62   A    
C53   C55   A    
C83   C88   A    
C7    O49   D    
C33   H5    S    
O5    Zn8   S    
C48   C90   S    
C11   O59   S    
C41   C43   A    
C16   O68   S    
H42   O39   S    
C92   H23   S    
O9    Zn8   S    
C15   C59   S    
C55   H55   S    
C2    C21   S    
C23   C109  S    
C10   C51   S    
C78   H25   S    
C22   C23   S    
C108  O27   D    
C16   O66   D    
C75   H18   S    
O15   Zn3   S    
C97   O67   A    
C14   O63   S    
C77   C79   A    
O1    Zn4   S    
C14   C58   S    
C7    O50   S    
C17   O69   D    
C20   H34   S    
C69   C71   A    
C98   O11   A    
C51   C52   A    
C105  O21   S    
C100  O2    A    
C9    C49   S    
C76   C77   A    
C3    C38   S    
C90   H39   S    
C109  O29   D    
C18   O45   A    
C25   H3    S    
C48   C70   S    
C39   C40   A    
C54   C65   S    
C19   C99   S    
C86   C87   A    
O12   Zn1   S    
O6    Zn7   S    
C15   O64   D    
C101  O6    A    
C8    O52   S    
C106  O24   S    
C29   H4    S    
C78   C90   S    
O23   Zn4   S    
C63   C64   A    
H41   O37   S    
C110  O31   D    
C75   C76   A    
O16   Zn2   S    
C113  O39   S    
C9    O54   S    
C62   C63   A    
C102  H1    S    
H26   O21   S    
C91   C93   A    
C93   H69   S    
C61   C67   A    
C1    C44   S    
C83   C84   A    
C68   H14   S    
O11   Zn7   S    
O1    Zn2   S    
C2    H45   S    
C13   C81   S    
C104  O5    A    
C37   C66   S    
C30   O12   A    
H51   O54   S    
C50   C51   A    
H47   O46   S    
O4    Zn4   S    
C1    O34   A    
C34   C45   S    
H46   O43   S    
C84   C85   A    
C3    O41   S    
O34   Zn2   S    
C4    C32   S    
H44   O41   S    
C70   H24   S    
C17   C95   S    
H49   O50   S    
C8    O51   D    
C80   C82   A    
C40   C41   A    
C63   C74   S    
C6    O48   S    
C22   H35   S    
C49   C50   A    
C64   H13   S    
O56   Zn5   S    
C91   H68   S    
C43   C44   A    
C53   H10   S    
C26   C70   S    
H32   O28   S    
C25   C27   S    
C111  O35   S    
C12   C57   S    
C11   C60   S    
C56   C67   S    
O17   Zn4   S    
H28   O24   S    
O13   Zn1   S    
O18   Zn3   S    
C48   C59   S    
C29   H40   S    
C14   O62   D    
C82   H17   S    
C99   O8    A    
C81   C106  S    
C17   O70   S    
C104  O7    A    
C83   H65   S    
O72   Zn6   S    
C59   C102  S    
C112  O37   S    
C76   H62   S    
C44   C45   A    
C5    C90   S    
O45   Zn3   S    
C72   C73   A    
C109  O30   S    
C70   C105  S    
C103  H30   S    
C40   C100  S    
C75   C82   A    
C105  O20   D    
C15   O65   S    
C100  O9    A    
H60   O65   S    
C36   H6    S    
C54   O16   A    
C37   C78   S    
C19   C20   S    
O8    Zn5   S    
C5    O44   D    
C39   C45   A    
H58   O63   S    
C22   C27   S    
C16   C79   S    
C84   C98   S    
C32   C33   A    
C97   O10   A    
C89   C96   A    
C42   O15   A    
C8    C47   S    
C71   C72   A    
C69   H15   S    
C26   H20   S    
C59   H12   S    
C80   H64   S    
C27   C42   S    
C86   H19   S    
C57   C58   A    
C22   H72   S    
C21   H56   S    
O1    Zn1   S    
C64   C65   A    
C36   C38   A    
C94   H21   S    
H37   O32   S    
C33   C34   A    
C30   O14   A    
O56   Zn8   S    
C89   H66   S    
C106  O22   D    
C94   C95   A    
C71   H59   S    
O7    Zn5   S    
O14   Zn2   S    
C79   C80   A    
C66   O17   A    
O67   Zn8   S    
C21   H33   S    
H48   O48   S    
C26   C37   S    
C107  O25   D    
C89   C91   A    
O56   Zn6   S    
C9    O53   D    
C7    C39   S    
H38   O35   S    
H57   O61   S    
H52   O57   S    
C12   O60   D    
C23   C110  S    
C30   C87   S    
C58   C60   A    
H36   O30   S    
C31   C113  S    
C23   C28   S    
C24   H43   S    
C1    O4    A    
