data_mof_unit_60942.cif
_audit_creation_date              2012-12-10T18:48:32-0500
_audit_creation_method            fapswitch 2.2
_symmetry_space_group_name_H-M    P1
_symmetry_Int_Tables_number       1
_space_group_crystal_system       triclinic
_cell_length_a                    25.511051
_cell_length_b                    25.512003
_cell_length_c                    25.514058
_cell_angle_alpha                 119.987857
_cell_angle_beta                  89.9813
_cell_angle_gamma                 60.010529
_cell_volume                      11743.9819614

loop_
_atom_site_label
_atom_site_type_symbol
_atom_type_description
_atom_site_fract_x
_atom_site_fract_y
_atom_site_fract_z
_atom_type_partial_charge
C1    C     C_R   0.850007 0.500005 0.849844 0.825259
C2    C     C_3   0.553251 0.432045 0.471048 0.161581
C3    C     C_3   0.467906 0.521846 0.556894 -0.209304
C4    C     C_3   0.532094 0.478154 0.443105 -0.209296
C5    C     C_1   0.610370 0.500059 0.610557 -0.149493
C6    C     C_1   0.389630 0.499940 0.389443 -0.149492
C7    C     C_3   0.515286 0.546987 0.509626 -0.206913
C8    C     C_3   0.484713 0.453014 0.490374 -0.206917
C9    C     C_3   0.536477 0.500096 0.536656 0.137708
C10   C     C_3   0.463523 0.499904 0.463344 0.137709
C11   C     C_1   0.576985 0.500118 0.577241 -0.086158
C12   C     C_R   0.149993 0.499995 0.150156 0.825260
C13   C     C_1   0.423014 0.499882 0.422759 -0.086158
C14   C     C_3   0.530722 0.481512 0.037000 -0.163725
C15   C     C_3   0.469278 0.518488 0.963000 -0.163724
C16   C     C_R   0.650108 0.500011 0.650181 0.824332
C17   C     C_R   0.349892 0.499989 0.349819 0.824331
C18   C     C_3   0.555250 0.432091 0.962638 -0.163525
C19   C     C_3   0.444750 0.567909 0.037362 -0.163525
C20   C     C_1   0.610475 0.500002 0.889679 -0.147808
C21   C     C_1   0.389525 0.499998 0.110321 -0.147809
C22   C     C_3   0.512576 0.549425 0.037323 -0.160139
C23   C     C_3   0.518045 0.975104 0.037132 -0.207248
C24   C     C_3   0.487424 0.450575 0.962677 -0.160139
C25   C     C_3   0.536470 0.500004 0.963594 0.202399
C26   C     C_3   0.463530 0.499996 0.036406 0.202399
C27   C     C_1   0.577075 0.500006 0.923050 -0.085581
C28   C     C_1   0.422925 0.499994 0.076949 -0.085581
C29   C     C_3   0.987888 0.567674 0.036825 -0.163627
C30   C     C_3   0.012112 0.432326 0.963175 -0.163627
C31   C     C_3   0.012900 0.517591 0.962463 -0.163633
C32   C     C_3   0.987100 0.482409 0.037537 -0.163632
C33   C     C_1   0.889732 0.499985 0.889545 -0.147793
C34   C     C_3   0.481955 0.024896 0.962867 -0.207249
C35   C     C_1   0.110268 0.500015 0.110455 -0.147794
C36   C     C_3   0.937969 0.550070 0.037256 -0.160250
C37   C     C_3   0.062031 0.449929 0.962744 -0.160249
C38   C     C_3   0.963615 0.499988 0.963530 0.202455
C39   C     C_3   0.036385 0.500012 0.036470 0.202455
C40   C     C_R   0.849890 0.500023 0.650071 0.825000
C41   C     C_R   0.150110 0.499976 0.349928 0.825000
C42   C     C_1   0.923091 0.499981 0.922931 -0.085647
C43   C     C_1   0.076909 0.500019 0.077069 -0.085648
C44   C     C_3   0.036142 0.975282 0.444044 -0.163691
C45   C     C_3   0.536519 0.926872 0.963457 0.110975
C46   C     C_3   0.963858 0.024718 0.555956 -0.163691
C47   C     C_3   0.961782 0.024738 0.469983 -0.163665
C48   C     C_3   0.038218 0.975261 0.530017 -0.163665
C49   C     C_1   0.889685 0.220759 0.610388 -0.148035
C50   C     C_1   0.110315 0.779241 0.389612 -0.148036
C51   C     C_3   0.037321 0.024673 0.511129 -0.160209
C52   C     C_3   0.962679 0.975327 0.488871 -0.160208
C53   C     C_3   0.963594 0.072864 0.536435 0.202484
C54   C     C_3   0.036406 0.927136 0.463565 0.202484
C55   C     C_1   0.923050 0.154003 0.577008 -0.085723
C56   C     C_3   0.463481 0.073127 0.036543 0.110975
C57   C     C_1   0.076950 0.845997 0.422992 -0.085723
C58   C     C_3   0.035997 0.520020 0.531316 -0.163875
C59   C     C_3   0.964002 0.479980 0.468684 -0.163875
C60   C     C_3   0.961645 0.568308 0.554650 -0.163646
C61   C     C_3   0.038355 0.431692 0.445350 -0.163646
C62   C     C_1   0.889587 0.500035 0.610358 -0.148047
C63   C     C_1   0.110413 0.499964 0.389642 -0.148047
C64   C     C_R   0.650208 0.499987 0.849943 0.825320
C65   C     C_R   0.349792 0.500013 0.150056 0.825321
C66   C     C_3   0.037260 0.451730 0.513730 -0.160201
C67   C     C_1   0.577050 0.845795 0.922918 -0.077042
C68   C     C_3   0.962740 0.548269 0.486270 -0.160201
C69   C     C_3   0.963544 0.500019 0.536427 0.202670
C70   C     C_3   0.036456 0.499981 0.463572 0.202670
C71   C     C_1   0.922966 0.500034 0.576983 -0.086033
C72   C     C_1   0.077034 0.499966 0.423016 -0.086033
C73   C     C_R   0.849964 0.300201 0.650110 0.825146
C74   C     C_R   0.150036 0.699799 0.349890 0.825146
C75   C     C_R   0.650162 0.699757 0.849867 0.823856
C76   C     C_R   0.349838 0.300243 0.150133 0.823857
C77   C     C_3   0.448303 0.024251 0.041234 0.233937
C78   C     C_1   0.422950 0.154205 0.077082 -0.077042
C79   C     C_3   0.551697 0.975749 0.958766 0.233936
C80   C     C_3   0.466764 0.975136 0.967451 -0.209929
C81   C     C_3   0.533236 0.024864 0.032549 -0.209929
C82   C     C_1   0.610437 0.779102 0.889550 -0.148455
C83   C     C_1   0.389563 0.220898 0.110450 -0.148455
C84   C     C_3   0.388294 0.053967 0.089306 -0.420242
C85   C     C_3   0.387523 0.991111 0.081556 -0.870350
C86   C     C_3   0.611706 0.946033 0.910694 -0.420241
C87   C     C_3   0.612477 0.008889 0.918444 -0.870351
C88   C     C_3   0.384955 0.645493 0.560961 -0.430032
C89   C     C_3   0.446748 0.567955 0.528952 0.161580
C90   C     C_3   0.383021 0.700925 0.626130 -0.339271
C91   C     C_3   0.321200 0.778290 0.657997 -0.882174
C92   C     C_3   0.615039 0.354505 0.439045 -0.430028
C93   C     C_3   0.616969 0.299071 0.373880 -0.339288
C94   C     C_3   0.678748 0.221685 0.342058 -0.882181
H1    H     H_    0.439756 0.954062 0.940754 0.142207
H2    H     H_    0.070107 0.953993 0.554236 0.132373
H3    H     H_    0.066324 0.954030 0.397568 0.132326
H4    H     H_    0.933676 0.045970 0.602432 0.132326
H5    H     H_    0.932453 0.954112 0.479256 0.134309
H6    H     H_    0.067547 0.045888 0.520744 0.134309
H7    H     H_    0.929634 0.624469 0.600057 0.132359
H8    H     H_    0.070366 0.375531 0.399943 0.132359
H9    H     H_    0.066070 0.536478 0.556588 0.132194
H10   H     H_    0.933930 0.463522 0.443412 0.132194
H11   H     H_    0.932582 0.587955 0.474506 0.134290
H12   H     H_    0.560244 0.045938 0.059246 0.142206
H13   H     H_    0.067417 0.412045 0.525494 0.134290
H14   H     H_    0.467166 0.045996 0.932769 0.144267
H15   H     H_    0.532833 0.954003 0.067231 0.144267
H16   H     H_    0.441808 0.540202 0.604002 0.135719
H17   H     H_    0.558193 0.459795 0.395997 0.135718
H18   H     H_    0.472189 0.414161 0.481793 0.137669
H19   H     H_    0.527809 0.585841 0.518208 0.137669
H20   H     H_    0.601148 0.376252 0.931450 0.132492
H21   H     H_    0.398852 0.623748 0.068550 0.132492
H22   H     H_    0.555515 0.466310 0.067891 0.132342
H23   H     H_    0.023040 0.532054 0.931130 0.132453
H24   H     H_    0.444485 0.533690 0.932109 0.132342
H25   H     H_    0.476614 0.409936 0.932457 0.134399
H26   H     H_    0.523386 0.590064 0.067543 0.134399
H27   H     H_    0.387865 0.956154 0.032618 0.257675
H28   H     H_    0.429932 0.956141 0.089801 0.259677
H29   H     H_    0.343371 0.014603 0.117136 0.250220
H30   H     H_    0.386984 0.088916 0.138762 0.209681
H31   H     H_    0.345097 0.088934 0.081838 0.206006
H32   H     H_    0.570068 0.043859 0.910200 0.259677
H33   H     H_    0.612135 0.043846 0.967382 0.257675
H34   H     H_    0.976960 0.467946 0.068870 0.132453
H35   H     H_    0.656629 0.985397 0.882864 0.250221
H36   H     H_    0.654903 0.911066 0.918162 0.206005
H37   H     H_    0.613016 0.911084 0.861238 0.209681
H38   H     H_    0.317610 0.798341 0.627358 0.261898
H39   H     H_    0.278827 0.777618 0.666161 0.260255
H40   H     H_    0.321090 0.817241 0.705039 0.248173
H41   H     H_    0.386011 0.682811 0.658276 0.220423
H42   H     H_    0.424617 0.703431 0.619652 0.222309
H43   H     H_    0.382116 0.663501 0.528766 0.205708
H44   H     H_    0.343397 0.642942 0.567428 0.202195
H45   H     H_    0.978394 0.623319 0.067573 0.132476
H46   H     H_    0.721158 0.222297 0.333901 0.260268
H47   H     H_    0.682266 0.201682 0.372725 0.261894
H48   H     H_    0.678859 0.182732 0.295017 0.248178
H49   H     H_    0.575337 0.296623 0.380353 0.222326
H50   H     H_    0.614046 0.317141 0.341709 0.220412
H51   H     H_    0.656604 0.357044 0.432574 0.202170
H52   H     H_    0.617868 0.336508 0.471247 0.205734
H53   H     H_    0.021606 0.376681 0.932427 0.132476
H54   H     H_    0.113503 0.408759 0.932578 0.134313
H55   H     H_    0.886497 0.591241 0.067421 0.134313
H56   H     H_    0.929893 0.046007 0.445764 0.132373
O1    O     O_3   0.750050 0.500010 0.750000 -0.478470
O2    O     O_R   0.332180 0.543100 0.332140 -0.638062
O3    O     O_R   0.789210 0.543100 0.875260 -0.637650
O4    O     O_R   0.210790 0.456900 0.124740 -0.637650
O5    O     O_R   0.667790 0.543110 0.667830 -0.637692
O6    O     O_R   0.332210 0.456890 0.332170 -0.637693
O7    O     O_R   0.875320 0.456920 0.667760 -0.637436
O8    O     O_R   0.124680 0.543080 0.332240 -0.637436
O9    O     O_R   0.667890 0.456890 0.789150 -0.637450
O10   O     O_R   0.332110 0.543110 0.210850 -0.637450
O11   O     O_R   0.875360 0.335610 0.667790 -0.637376
O12   O     O_3   0.249950 0.499990 0.250000 -0.478470
O13   O     O_R   0.124640 0.664390 0.332210 -0.637376
O14   O     O_R   0.667870 0.664400 0.875290 -0.636870
O15   O     O_R   0.332130 0.335600 0.124710 -0.636870
O16   O     O_R   0.789160 0.335600 0.667830 -0.637617
O17   O     O_R   0.210840 0.664400 0.332170 -0.637618
O18   O     O_R   0.667820 0.664410 0.789090 -0.638749
O19   O     O_R   0.332180 0.335590 0.210910 -0.638749
O20   O     O_R   0.789090 0.543120 0.667780 -0.637886
O21   O     O_R   0.210910 0.456880 0.332220 -0.637886
O22   O     O_R   0.667910 0.543090 0.875320 -0.637317
O23   O     O_R   0.332090 0.456910 0.124680 -0.637317
O24   O     O_R   0.875390 0.456910 0.789050 -0.637386
O25   O     O_R   0.124610 0.543090 0.210950 -0.637386
O26   O     O_R   0.667820 0.456900 0.667860 -0.638063
Zn1   Zn    Zn3+2 0.719220 0.561590 0.719210 0.970849
Zn2   Zn    Zn3+2 0.280780 0.438410 0.280790 0.970849
Zn3   Zn    Zn3+2 0.842430 0.438430 0.719180 0.972509
Zn4   Zn    Zn3+2 0.157570 0.561570 0.280820 0.972510
Zn5   Zn    Zn3+2 0.719260 0.438420 0.719240 0.971915
Zn6   Zn    Zn3+2 0.280740 0.561580 0.280760 0.971915
Zn7   Zn    Zn3+2 0.719300 0.561580 0.842360 0.972621
Zn8   Zn    Zn3+2 0.280700 0.438420 0.157640 0.972621

loop_
_geom_bond_atom_site_label_1
_geom_bond_atom_site_label_2
_ccdc_geom_bond_type
C61   C70   S    
C56   C78   S    
C34   C56   S    
C93   C94   S    
C23   C45   S    
C94   H46   S    
C14   C18   S    
C2    C4    S    
C66   H13   S    
C18   H20   S    
C87   H33   S    
C23   C77   S    
C1    C33   S    
C56   C81   S    
C85   H28   S    
C22   H26   S    
C18   C25   S    
C29   C36   S    
C18   C24   S    
C59   H10   S    
C32   C36   S    
C23   C81   S    
C24   C26   S    
O12   Zn6   S    
C50   C74   S    
C74   O13   A    
C34   C79   S    
C36   H55   S    
O1    Zn1   S    
C66   C69   S    
C3    H16   S    
C58   C60   S    
O18   Zn1   S    
C7    C89   S    
C46   C52   S    
C51   H6    S    
C40   C62   S    
C30   C38   S    
O7    Zn3   S    
C32   C39   S    
C69   C71   S    
C19   C26   S    
O8    Zn4   S    
C31   H23   S    
C5    C16   S    
C73   O11   A    
C34   C80   S    
C15   C19   S    
O6    Zn2   S    
C61   C66   S    
C58   C66   S    
C48   C51   S    
O3    Zn7   S    
O23   Zn8   S    
C22   C25   S    
O4    Zn8   S    
C45   C67   S    
O21   Zn2   S    
C85   H27   S    
C75   O18   A    
O11   Zn3   S    
C35   C43   T    
O12   Zn4   S    
C93   H49   S    
C44   C47   S    
C32   H34   S    
C47   C53   S    
C21   C65   S    
C88   C89   S    
C16   O26   A    
C46   H4    S    
C50   C57   T    
O16   Zn5   S    
C65   O10   A    
C23   H15   S    
C78   C83   T    
C76   C83   S    
O10   Zn6   S    
C74   O17   A    
C52   C54   S    
O1    Zn5   S    
C53   C55   S    
O26   Zn5   S    
C29   H45   S    
C46   C48   S    
C1    O24   A    
C59   C61   S    
O20   Zn1   S    
C92   H52   S    
C94   H48   S    
C40   O7    A    
C30   H53   S    
C19   C22   S    
C84   C85   S    
C10   C89   S    
C3    C8    S    
C79   C81   S    
C87   H35   S    
C86   C87   S    
C86   H36   S    
C39   C43   S    
C91   H38   S    
C77   C84   S    
C4    C7    S    
C49   C55   T    
C14   C26   S    
C56   C77   S    
C31   C37   S    
C30   C37   S    
C75   O14   A    
C80   H1    S    
C20   C64   S    
C48   C54   S    
O12   Zn8   S    
C3    C9    S    
C59   C68   S    
C90   H42   S    
C44   H3    S    
O1    Zn3   S    
C91   H39   S    
C47   H56   S    
C19   H21   S    
C29   C39   S    
C16   O5    A    
C76   O15   A    
C45   C79   S    
O9    Zn5   S    
C12   C35   S    
C1    O3    A    
C9    C11   S    
C88   H44   S    
O25   Zn4   S    
C93   H50   S    
C59   C69   S    
C12   O25   A    
C44   C51   S    
C8    C10   S    
C15   C24   S    
C4    H17   S    
C88   C90   S    
C64   O22   A    
C49   C73   S    
C17   O2    A    
C25   C27   S    
C68   H11   S    
C33   C42   T    
C4    C10   S    
C60   H7    S    
O19   Zn2   S    
C36   C38   S    
C94   H47   S    
C77   C80   S    
C84   H31   S    
C7    C9    S    
C6    C17   S    
C81   H12   S    
C24   H25   S    
C48   H2    S    
C65   O23   A    
C92   H51   S    
O15   Zn8   S    
O1    Zn7   S    
C21   C28   T    
C58   C70   S    
C12   O4    A    
C73   O16   A    
C10   C13   S    
C31   C38   S    
C75   C82   S    
C5    C11   T    
C47   C52   S    
C20   C27   T    
C84   H30   S    
C40   O20   A    
C52   H5    S    
C26   C28   S    
C15   H24   S    
C3    C89   S    
C34   H14   S    
C7    H19   S    
C8    H18   S    
C61   H8    S    
C41   O21   A    
C29   C31   S    
O14   Zn7   S    
C6    C13   T    
C30   C32   S    
C90   H41   S    
C17   O6    A    
O22   Zn7   S    
C14   C22   S    
C90   C91   S    
C91   H40   S    
C60   C69   S    
C14   H22   S    
C46   C53   S    
C2    C92   S    
C92   C93   S    
C62   C71   T    
C85   H29   S    
C45   C80   S    
C64   O9    A    
C79   C86   S    
C37   H54   S    
C76   O19   A    
C86   H37   S    
C88   H43   S    
O12   Zn2   S    
C15   C25   S    
C41   O8    A    
O17   Zn6   S    
C38   C42   S    
C44   C54   S    
C37   C39   S    
C63   C72   T    
C60   C68   S    
C67   C82   T    
C68   C70   S    
C2    C8    S    
O13   Zn4   S    
C41   C63   S    
C70   C72   S    
C58   H9    S    
C51   C53   S    
C2    C9    S    
O2    Zn6   S    
O24   Zn3   S    
C87   H32   S    
O5    Zn1   S    
C54   C57   S    
