data_mof_unit_54512.cif
_audit_creation_date              2012-12-10T17:08:43-0500
_audit_creation_method            fapswitch 2.2
_symmetry_space_group_name_H-M    P1
_symmetry_Int_Tables_number       1
_space_group_crystal_system       triclinic
_cell_length_a                    15.829788
_cell_length_b                    10.640169
_cell_length_c                    10.089951
_cell_angle_alpha                 91.587991
_cell_angle_beta                  89.177243
_cell_angle_gamma                 91.484411
_cell_volume                      1698.08574809

loop_
_atom_site_label
_atom_site_type_symbol
_atom_type_description
_atom_site_fract_x
_atom_site_fract_y
_atom_site_fract_z
_atom_type_partial_charge
C1    C     C_R   0.511114 0.264247 0.498548 0.839897
C2    C     C_2   0.500856 0.874046 0.500551 0.356007
C3    C     C_2   0.551602 0.064953 0.391318 0.403131
C4    C     C_R   0.338090 0.500818 0.500691 0.896402
C5    C     C_2   0.546182 0.139708 0.500331 0.277464
C6    C     C_2   0.479892 0.594601 0.928424 -0.152549
C7    C     C_2   0.492907 0.599015 0.075199 -0.006850
C8    C     C_R   0.499317 0.738479 0.501374 0.803324
C9    C     C_R   0.661226 0.502086 0.499104 0.858607
C10   C     C_3   0.041666 0.483536 0.645382 0.343177
C11   C     C_3   0.048527 0.408782 0.398248 0.740151
C12   C     C_3   0.943810 0.476433 0.633870 -0.652450
C13   C     C_3   0.947557 0.409638 0.392848 0.166333
C14   C     C_1   0.749468 0.507766 0.496825 -0.206156
C15   C     C_3   0.080662 0.513206 0.503607 -0.055520
C16   C     C_3   0.144179 0.588499 0.788729 0.184044
C17   C     C_3   0.184555 0.466053 0.828374 -0.471215
C18   C     C_3   0.269243 0.494502 0.892967 -0.910810
C19   C     C_3   0.940909 0.696969 0.232474 0.185270
C20   C     C_3   0.970535 0.824359 0.180091 -0.449950
C21   C     C_3   0.993071 0.814998 0.032718 -0.912832
C22   C     C_3   0.431732 0.927613 0.698796 0.174027
C23   C     C_3   0.915328 0.511459 0.493040 -0.032223
C24   C     C_3   0.353091 0.849572 0.736579 -0.423289
C25   C     C_3   0.325482 0.875136 0.880283 -0.998285
C26   C     C_3   0.611589 0.064212 0.182048 0.088497
C27   C     C_3   0.630810 0.153352 0.069612 -0.782847
C28   C     C_3   0.653598 0.148264 0.651477 0.067329
C29   C     C_3   0.722163 0.055937 0.609142 -0.357937
C30   C     C_3   0.809904 0.107579 0.645309 -0.976180
C31   C     C_3   0.412985 0.337109 0.110825 0.297046
C32   C     C_3   0.396945 0.226983 0.014072 -0.950457
C33   C     C_3   0.075415 0.344517 0.174362 0.245469
C34   C     C_3   0.952654 0.645686 0.464516 0.315458
C35   C     C_3   0.159174 0.277505 0.151380 -0.357075
C36   C     C_3   0.146427 0.161633 0.059859 -1.014979
C37   C     C_3   0.041102 0.201083 0.502649 0.010648
C38   C     C_3   0.010278 0.093798 0.410968 -0.877293
C39   C     C_3   0.857239 0.349940 0.215267 0.090142
C40   C     C_3   0.835065 0.383528 0.074600 -0.846591
C41   C     C_3   0.135025 0.828232 0.518736 0.100118
C42   C     C_3   0.142552 0.928556 0.628343 -0.840610
C43   C     C_3   0.051580 0.647211 0.464412 0.196349
C44   C     C_1   0.824296 0.511448 0.494345 0.070604
C45   C     C_1   0.173154 0.510322 0.502793 0.045979
C46   C     C_1   0.248671 0.505817 0.501602 -0.218946
C47   C     C_2   0.553140 0.928729 0.411301 -0.324447
H1    H     H_    0.918185 0.382442 0.661085 0.160251
H2    H     H_    0.934282 0.701232 0.555314 0.184828
H3    H     H_    0.144102 0.652277 0.877517 0.148930
H4    H     H_    0.183824 0.639292 0.715509 0.168484
H5    H     H_    0.142139 0.415400 0.897954 0.225845
H6    H     H_    0.195941 0.403627 0.740539 0.225386
H7    H     H_    0.307146 0.563051 0.834858 0.281925
H8    H     H_    0.304499 0.406416 0.895459 0.281743
H9    H     H_    0.259754 0.534126 0.994917 0.250043
H10   H     H_    0.886739 0.662033 0.171910 0.192560
H11   H     H_    0.991589 0.628555 0.217223 0.189318
H12   H     H_    0.914553 0.541668 0.708733 0.245237
H13   H     H_    0.919776 0.893746 0.195699 0.242537
H14   H     H_    0.027076 0.858348 0.235328 0.215523
H15   H     H_    0.044735 0.747791 0.015995 0.270960
H16   H     H_    0.014650 0.908582 0.997583 0.263403
H17   H     H_    0.937157 0.782801 0.974482 0.272316
H18   H     H_    0.426171 0.023609 0.743904 0.198287
H19   H     H_    0.489510 0.888001 0.741915 0.136275
H20   H     H_    0.301626 0.873211 0.670075 0.247616
H21   H     H_    0.364433 0.748064 0.720650 0.229500
H22   H     H_    0.378356 0.860391 0.948793 0.264554
H23   H     H_    0.596238 0.872427 0.351119 0.098104
H24   H     H_    0.272015 0.810514 0.906427 0.263906
H25   H     H_    0.304251 0.973449 0.893107 0.278774
H26   H     H_    0.590391 0.971674 0.138627 0.146136
H27   H     H_    0.671874 0.053046 0.236217 0.111301
H28   H     H_    0.645833 0.249162 0.110549 0.279806
H29   H     H_    0.685935 0.119555 0.010727 0.178316
H30   H     H_    0.576064 0.157348 0.002798 0.266899
H31   H     H_    0.656303 0.164064 0.760596 0.173954
H32   H     H_    0.667097 0.241607 0.606827 0.120074
H33   H     H_    0.710319 0.965073 0.658809 0.232082
H34   H     H_    0.453123 0.675539 0.884385 0.150970
H35   H     H_    0.720157 0.038429 0.500163 0.206049
H36   H     H_    0.824134 0.195568 0.591714 0.253895
H37   H     H_    0.857941 0.037372 0.616537 0.275543
H38   H     H_    0.813757 0.127108 0.753820 0.262595
H39   H     H_    0.364623 0.409101 0.097401 0.100795
H40   H     H_    0.405071 0.302206 0.212312 0.195089
H41   H     H_    0.430648 0.143009 0.045757 0.279729
H42   H     H_    0.328666 0.203333 0.011390 0.221319
H43   H     H_    0.418494 0.251357 0.912503 0.271455
H44   H     H_    0.055961 0.386287 0.080436 0.131098
H45   H     H_    0.542180 0.438222 0.888099 0.241908
H46   H     H_    0.025739 0.273088 0.198729 0.160800
H47   H     H_    0.206551 0.342984 0.107183 0.213189
H48   H     H_    0.184752 0.246616 0.246557 0.271740
H49   H     H_    0.094588 0.099742 0.098136 0.268234
H50   H     H_    0.204445 0.105614 0.055336 0.272978
H51   H     H_    0.130850 0.190246 0.958256 0.263670
H52   H     H_    0.989838 0.235556 0.566934 0.110205
H53   H     H_    0.086347 0.163422 0.572611 0.183395
H54   H     H_    0.063159 0.062086 0.346059 0.264116
H55   H     H_    0.986147 0.013790 0.470027 0.243569
H56   H     H_    0.488942 0.690448 0.124725 0.100876
H57   H     H_    0.958424 0.123925 0.347822 0.223760
H58   H     H_    0.798960 0.352997 0.277783 0.162824
H59   H     H_    0.880833 0.252517 0.212325 0.113693
H60   H     H_    0.893073 0.386828 0.011377 0.249722
H61   H     H_    0.790475 0.311736 0.031895 0.209087
H62   H     H_    0.805006 0.476661 0.074898 0.254163
H63   H     H_    0.112602 0.872261 0.427761 0.138132
H64   H     H_    0.197793 0.786556 0.499055 0.140383
H65   H     H_    0.187807 0.004360 0.598378 0.220161
H66   H     H_    0.079574 0.967784 0.650612 0.253832
H67   H     H_    0.061745 0.390504 0.677666 0.080853
H68   H     H_    0.163804 0.886393 0.721107 0.258551
H69   H     H_    0.918750 0.319375 0.424550 0.067917
H70   H     H_    0.079856 0.668996 0.366065 0.086540
N1    N     N_2   0.500900 0.501330 0.852150 -0.182292
N2    N     N_2   0.500920 0.501360 0.147810 0.072802
O1    O     O_R   0.499990 0.319060 0.613040 -0.600753
O2    O     O_3   0.911119 0.712724 0.364540 -0.656236
O3    O     O_3   0.435416 0.941325 0.559591 -0.658774
O4    O     O_3   0.547111 0.113884 0.265148 -0.604154
O5    O     O_3   0.572506 0.096543 0.621522 -0.673646
O6    O     O_3   0.495220 0.386579 0.088198 -0.549113
O7    O     O_3   0.082830 0.443376 0.272017 -0.668243
O8    O     O_3   0.086755 0.292125 0.429658 -0.652881
O9    O     O_3   0.919524 0.436869 0.263439 -0.619812
O10   O     O_3   0.077358 0.736214 0.563962 -0.584388
O11   O     O_R   0.500010 0.319100 0.386900 -0.585948
O12   O     O_R   0.377130 0.499990 0.613120 -0.610735
O13   O     O_R   0.377160 0.500030 0.386980 -0.633076
O14   O     O_R   0.499990 0.680900 0.613100 -0.637015
O15   O     O_R   0.500010 0.680940 0.386960 -0.637698
O16   O     O_R   0.622840 0.499970 0.613020 -0.623713
O17   O     O_R   0.622870 0.500010 0.386880 -0.598626
O18   O     O_3   0.059105 0.575739 0.747602 -0.586757
Zn1   Zn    Zn3+2 0.499980 0.499970 0.650990 0.925420
Zn2   Zn    Zn3+2 0.500020 0.500030 0.349010 0.981944

loop_
_geom_bond_atom_site_label_1
_geom_bond_atom_site_label_2
_ccdc_geom_bond_type
O16   Zn1   S    
C17   H6    S    
C39   H59   S    
C41   C42   S    
C19   C20   S    
C16   H4    S    
C12   H1    S    
C22   H18   S    
C4    C46   S    
C45   C46   T    
C19   H10   S    
O13   Zn2   S    
C12   C23   S    
C26   C27   S    
C37   C38   S    
C1    C5    S    
C28   C29   S    
C16   H3    S    
C38   H54   S    
C10   C15   S    
C33   H44   S    
C32   H41   S    
C30   H36   S    
C26   H26   S    
C13   C23   S    
C20   H14   S    
C28   H32   S    
H45   N1    S    
C22   H19   S    
C21   H17   S    
C42   H65   S    
C24   H20   S    
C33   C35   S    
C12   H12   S    
C11   C15   S    
C32   H43   S    
C16   O18   S    
C16   C17   S    
C38   H57   S    
C36   H50   S    
C25   H24   S    
C10   O18   S    
C20   H13   S    
C28   H31   S    
C10   H67   S    
C18   H9    S    
C40   H61   S    
O14   Zn1   S    
C31   H39   S    
C7    H56   S    
C13   O9    S    
O17   Zn2   S    
C27   H28   S    
O11   Zn2   S    
C17   H5    S    
C3    O4    S    
C22   O3    S    
C4    O12   A    
C2    O3    S    
C19   H11   S    
C31   H40   S    
C8    O15   A    
C7    N2    D    
C43   O10   S    
C11   O7    S    
C24   C25   S    
C4    O13   A    
C1    O11   A    
O15   Zn2   S    
C24   H21   S    
C3    C5    D    
C23   C44   S    
C1    O1    A    
C11   O8    S    
C9    C14   S    
C47   H23   S    
C29   C30   S    
C36   H49   S    
C42   H66   S    
C31   C32   S    
C5    O5    S    
C23   C34   S    
C17   C18   S    
C25   H25   S    
C30   H38   S    
C21   H15   S    
C40   H62   S    
C10   C12   S    
C18   H8    S    
C43   H70   S    
C40   H60   S    
C9    O16   A    
C34   O2    S    
C41   H63   S    
C32   H42   S    
C22   C24   S    
O1    Zn1   S    
C26   O4    S    
C15   C45   S    
C27   H29   S    
N2    O6    S    
C37   H52   S    
C14   C44   T    
C35   H47   S    
C39   H58   S    
C19   O2    S    
C34   H2    S    
C39   O9    S    
C8    O14   A    
C2    C8    S    
C34   C43   S    
C27   H30   S    
C33   H46   S    
C28   O5    S    
C6    C7    S    
C35   H48   S    
C2    C47   D    
N2    Zn2   S    
C15   C43   S    
C29   H35   S    
C38   H55   S    
O12   Zn1   S    
C41   O10   S    
C11   C13   S    
C29   H33   S    
C3    C47   S    
C33   O7    S    
C26   H27   S    
C30   H37   S    
C21   H16   S    
C13   H69   S    
C18   H7    S    
C39   C40   S    
C9    O17   A    
C42   H68   S    
C25   H22   S    
C20   C21   S    
C41   H64   S    
C6    H34   S    
C31   O6    S    
C36   H51   S    
C35   C36   S    
N1    Zn1   S    
C6    N1    D    
C37   H53   S    
C37   O8    S    
