data_mof_unit_23712.cif
_audit_creation_date              2012-10-26T18:27:30-0400
_audit_creation_method            fapswitch 2.2
_symmetry_space_group_name_H-M    P1
_symmetry_Int_Tables_number       1
_space_group_crystal_system       triclinic
_cell_length_a                    10.767209
_cell_length_b                    11.049996
_cell_length_c                    9.836695
_cell_angle_alpha                 111.369794
_cell_angle_beta                  98.017073
_cell_angle_gamma                 91.121294
_cell_volume                      1076.08230343

loop_
_atom_site_label
_atom_site_type_symbol
_atom_type_description
_atom_site_fract_x
_atom_site_fract_y
_atom_site_fract_z
_atom_type_partial_charge
C1    C     C_R   0.490911 0.253998 0.440296 0.562123
C2    C     C_2   0.498881 0.932327 0.487812 -0.135548
C3    C     C_2   0.510826 0.510464 0.081318 -0.009046
C4    C     C_R   0.262872 0.503779 0.502250 0.535555
C5    C     C_2   0.489022 0.489692 0.918736 -0.008603
C6    C     C_R   0.508857 0.746180 0.560119 0.551729
C7    C     C_R   0.737447 0.504804 0.499865 0.537058
C8    C     C_R   0.159649 0.732210 0.702458 -0.097681
C9    C     C_R   0.108610 0.840257 0.796318 -0.116065
C10   C     C_R   0.979104 0.841492 0.793320 -0.116206
C11   C     C_R   0.899826 0.734679 0.696449 -0.098375
C12   C     C_R   0.081207 0.621913 0.604788 0.022505
C13   C     C_R   0.949565 0.623172 0.601696 0.023400
C14   C     C_R   0.129734 0.511905 0.505980 0.004019
C15   C     C_R   0.049727 0.408768 0.402475 -0.146420
C16   C     C_R   0.921377 0.409967 0.399540 -0.145280
C17   C     C_R   0.871280 0.514330 0.500143 0.002704
C18   C     C_2   0.486246 0.114432 0.406727 -0.134621
C19   C     C_2   0.502065 0.071099 0.517296 -0.141611
C20   C     C_2   0.513128 0.886434 0.597123 0.057356
Cu1   Cu    Cu3+1 0.521920 0.521810 0.644910 0.954778
Cu2   Cu    Cu3+1 0.478080 0.478190 0.355090 0.956367
H1    H     H_    0.087214 0.325681 0.325144 0.128959
H2    H     H_    0.799671 0.741808 0.694763 0.146733
H3    H     H_    0.860950 0.327369 0.321049 0.138711
H4    H     H_    0.484595 0.865816 0.372867 0.141317
H5    H     H_    0.517773 0.139690 0.630685 0.197823
H6    H     H_    0.470174 0.047311 0.292109 0.120482
H7    H     H_    0.415293 0.417758 0.845850 0.154754
H8    H     H_    0.584212 0.582777 0.154305 0.147142
H9    H     H_    0.624852 0.621594 0.934222 0.211270
H10   H     H_    0.376091 0.377368 0.065481 0.214557
H11   H     H_    0.260404 0.737458 0.705823 0.154785
H12   H     H_    0.169743 0.924032 0.870421 0.134966
H13   H     H_    0.939733 0.926239 0.865057 0.134414
I1    I     I_    0.540992 0.008118 0.827079 -0.446885
N1    N     N_2   0.445130 0.445430 0.137370 -0.342120
N2    N     N_2   0.554930 0.554500 0.862630 -0.346728
O1    O     O_R   0.511700 0.332330 0.577400 -0.493903
O2    O     O_R   0.474680 0.295500 0.332650 -0.476855
O3    O     O_R   0.338160 0.518420 0.622400 -0.506267
O4    O     O_R   0.301140 0.481590 0.377650 -0.491345
O5    O     O_R   0.525320 0.704500 0.667350 -0.477627
O6    O     O_R   0.488300 0.667670 0.422600 -0.514317
O7    O     O_R   0.698860 0.518410 0.622350 -0.493561
O8    O     O_R   0.661840 0.481580 0.377600 -0.494444

loop_
_geom_bond_atom_site_label_1
_geom_bond_atom_site_label_2
_ccdc_geom_bond_type
C3    H8    S    
C10   H13   S    
C6    C20   S    
C9    C10   A    
C5    H7    S    
Cu1   O1    S    
H9    N2    S    
C13   C17   A    
C8    C12   A    
Cu2   O2    S    
C15   H1    S    
C2    H4    S    
C6    O6    A    
H10   N1    S    
C11   C13   A    
C1    C18   S    
Cu2   O4    S    
C4    O4    A    
Cu1   O3    S    
C7    O7    A    
C19   H5    S    
Cu2   O8    S    
C12   C14   A    
C5    N2    D    
Cu1   O7    S    
C6    O5    A    
C4    C14   S    
C9    H12   S    
Cu2   O6    S    
C4    O3    A    
C1    O1    A    
C2    C20   D    
C15   C16   A    
C20   I1    S    
C7    O8    A    
C11   H2    S    
C18   H6    S    
C12   C13   A    
C3    N1    D    
C18   C19   D    
C10   C11   A    
C16   H3    S    
C14   C15   A    
C8    C9    A    
C8    H11   S    
C1    O2    A    
C3    C5    S    
C2    C19   S    
Cu1   Cu2   S    
Cu2   N1    S    
Cu1   O5    S    
Cu1   N2    S    
C16   C17   A    
C7    C17   S    
