data_mof_unit_20304.cif
_audit_creation_date              2012-12-10T19:45:47-0500
_audit_creation_method            fapswitch 2.2
_symmetry_space_group_name_H-M    P1
_symmetry_Int_Tables_number       1
_space_group_crystal_system       triclinic
_cell_length_a                    10.802813
_cell_length_b                    14.818611
_cell_length_c                    14.619983
_cell_angle_alpha                 65.170515
_cell_angle_beta                  105.324742
_cell_angle_gamma                 102.361655
_cell_volume                      2034.27694842

loop_
_atom_site_label
_atom_site_type_symbol
_atom_type_description
_atom_site_fract_x
_atom_site_fract_y
_atom_site_fract_z
_atom_type_partial_charge
C1    C     C_R   0.474841 0.119227 0.310982 0.799369
C2    C     C_R   0.655576 0.773086 0.979955 -0.063807
C3    C     C_R   0.373506 0.155749 0.121279 -0.076243
C4    C     C_R   0.626491 0.844252 0.878721 -0.076258
C5    C     C_R   0.499246 0.287656 0.175180 -0.247878
C6    C     C_R   0.500756 0.712343 0.824820 -0.247881
C7    C     C_R   0.469744 0.360776 0.075287 0.080142
C8    C     C_R   0.530259 0.639224 0.924712 0.080143
C9    C     C_R   0.394963 0.328672 0.996453 0.093805
C10   C     C_R   0.605038 0.671328 0.003547 0.093808
C11   C     C_R   0.512882 0.464921 0.051835 0.082215
C12   C     C_R   0.525159 0.880773 0.689018 0.799387
C13   C     C_R   0.487122 0.535079 0.948165 0.082213
C14   C     C_R   0.420840 0.498553 0.871065 -0.220960
C15   C     C_R   0.579164 0.501447 0.128935 -0.220962
C16   C     C_R   0.263031 0.999395 0.501797 0.801669
C17   C     C_R   0.736968 0.000607 0.498200 0.801658
C18   C     C_R   0.373679 0.398610 0.894969 -0.212609
C19   C     C_R   0.626323 0.601390 0.105030 -0.212616
C20   C     C_R   0.713444 0.281281 0.673806 -0.285846
C21   C     C_R   0.286554 0.718719 0.326196 -0.285858
C22   C     C_R   0.687898 0.205575 0.636613 0.097034
C23   C     C_R   0.870501 0.000832 0.496491 -0.071387
C24   C     C_R   0.312101 0.794425 0.363387 0.097032
C25   C     C_R   0.514478 0.285018 0.507905 0.091543
C26   C     C_R   0.485521 0.714981 0.492095 0.091563
C27   C     C_R   0.548038 0.371594 0.533501 -0.066493
C28   C     C_R   0.451959 0.628405 0.466500 -0.066485
C29   C     C_R   0.639804 0.361939 0.625380 0.138555
C30   C     C_R   0.360193 0.638059 0.374622 0.138564
C31   C     C_R   0.490630 0.464124 0.477098 0.069775
C32   C     C_R   0.509367 0.535874 0.522904 0.069765
C33   C     C_R   0.580219 0.510351 0.624647 -0.217928
C34   C     C_R   0.129499 0.999173 0.503502 -0.071382
C35   C     C_R   0.419778 0.489648 0.375354 -0.217920
C36   C     C_R   0.652128 0.429765 0.671250 -0.174677
C37   C     C_R   0.347868 0.570233 0.328752 -0.174672
C38   C     C_R   0.368304 0.040480 0.789547 -0.086289
C39   C     C_R   0.631658 0.959399 0.210508 -0.086266
C40   C     C_R   0.270389 0.007083 0.722842 -0.126379
C41   C     C_R   0.729569 0.992841 0.277183 -0.126317
C42   C     C_R   0.193986 0.074954 0.639250 0.073980
C43   C     C_R   0.806016 0.925005 0.360777 0.073979
C44   C     C_R   0.215203 0.177159 0.625077 0.020190
C45   C     C_R   0.903887 0.961890 0.434176 0.007984
C46   C     C_R   0.784850 0.822793 0.374980 0.020175
C47   C     C_R   0.315324 0.210020 0.691505 -0.159525
C48   C     C_R   0.684737 0.789889 0.308579 -0.159557
C49   C     C_R   0.391997 0.141941 0.773058 -0.090296
C50   C     C_R   0.608018 0.857932 0.227027 -0.090333
C51   C     C_R   0.966381 0.038607 0.561196 -0.204543
C52   C     C_R   0.033620 0.961401 0.438794 -0.204551
C53   C     C_1   0.256195 0.195497 0.941749 0.219401
C54   C     C_1   0.743799 0.804506 0.058251 0.219401
C55   C     C_1   0.602139 0.725758 0.564261 0.299154
C56   C     C_R   0.096113 0.038109 0.565821 0.007994
C57   C     C_1   0.397861 0.274241 0.435739 0.299162
C58   C     C_1   0.137877 0.249699 0.541783 0.232267
C59   C     C_1   0.862217 0.750288 0.458280 0.232290
C60   C     C_1   0.676256 0.947936 0.859434 0.263609
C61   C     C_1   0.323736 0.052066 0.140566 0.263591
C62   C     C_R   0.450276 0.186625 0.200228 -0.121136
C63   C     C_R   0.549724 0.813376 0.799772 -0.121138
C64   C     C_R   0.344423 0.226915 0.020045 -0.063803
Cu1   Cu    Cu3+1 0.466270 0.918260 0.475690 0.964754
Cu2   Cu    Cu3+1 0.533730 0.081740 0.524310 0.964757
H1    H     H_    0.468911 0.167759 0.824214 0.136044
H2    H     H_    0.573653 0.012231 0.146231 0.130168
H3    H     H_    0.255019 0.928391 0.735507 0.115180
H4    H     H_    0.744900 0.071537 0.264495 0.115159
H5    H     H_    0.940205 0.066495 0.610464 0.155380
H6    H     H_    0.059797 0.933511 0.389528 0.155379
H7    H     H_    0.712800 0.417441 0.746532 0.151410
H8    H     H_    0.287196 0.582558 0.253470 0.151405
H9    H     H_    0.253091 0.855094 0.328960 0.152678
H10   H     H_    0.746908 0.144905 0.671042 0.152676
H11   H     H_    0.334094 0.288429 0.680302 0.136500
H12   H     H_    0.531108 0.832080 0.175894 0.136042
H13   H     H_    0.666008 0.711474 0.319805 0.136507
H14   H     H_    0.321935 0.376424 0.831941 0.155517
H15   H     H_    0.678068 0.623577 0.168059 0.155513
H16   H     H_    0.437146 0.692966 0.763981 0.158877
H17   H     H_    0.562857 0.307033 0.236018 0.158875
H18   H     H_    0.403983 0.544701 0.790287 0.141966
H19   H     H_    0.596022 0.455299 0.209712 0.141964
H20   H     H_    0.789084 0.276166 0.740826 0.159689
H21   H     H_    0.210912 0.723833 0.259176 0.159689
H22   H     H_    0.579574 0.550112 0.671424 0.150708
H23   H     H_    0.420422 0.449887 0.328578 0.150706
H24   H     H_    0.426272 0.987621 0.853824 0.130157
N1    N     N_R   0.584450 0.204570 0.560790 -0.202318
N2    N     N_1   0.283211 0.970033 0.152269 -0.312775
N3    N     N_R   0.415550 0.795430 0.439210 -0.202317
N4    N     N_1   0.184896 0.170291 0.880043 -0.272291
N5    N     N_1   0.815096 0.829713 0.119957 -0.272285
N6    N     N_1   0.695794 0.733917 0.622518 -0.288190
N7    N     N_1   0.304206 0.266082 0.377481 -0.288182
N8    N     N_1   0.075909 0.307886 0.475025 -0.260883
N9    N     N_1   0.924220 0.692129 0.525043 -0.260893
N10   N     N_1   0.716776 0.029970 0.847732 -0.312770
O1    O     O_R   0.455540 0.022090 0.338120 -0.576501
O2    O     O_R   0.544460 0.977910 0.661880 -0.576490
O3    O     O_R   0.512510 0.160150 0.379180 -0.580733
O4    O     O_R   0.487490 0.839850 0.620820 -0.580734
O5    O     O_R   0.291160 0.930970 0.479480 -0.593054
O6    O     O_R   0.708840 0.069030 0.520520 -0.593054
O7    O     O_R   0.348130 0.069020 0.520540 -0.566826
O8    O     O_R   0.651870 0.930980 0.479460 -0.566825

loop_
_geom_bond_atom_site_label_1
_geom_bond_atom_site_label_2
_ccdc_geom_bond_type
C37   H8    S    
C21   H21   S    
C34   C56   A    
C8    C13   A    
C6    H16   S    
C46   C59   S    
C27   C29   A    
C9    C64   A    
C59   N9    T    
C39   H2    S    
C14   C18   A    
C17   O6    A    
C58   N8    T    
C14   H18   S    
Cu2   O7    S    
C1    C62   S    
C47   C49   A    
C38   C49   A    
C3    C64   A    
C15   C19   A    
C29   C36   A    
C17   C23   S    
C25   C57   S    
C23   C45   A    
C48   H13   S    
C35   C37   A    
C33   H22   S    
C12   O4    A    
C5    H17   S    
C53   C64   S    
C33   C36   A    
C51   C56   A    
Cu2   O2    S    
C16   O7    A    
C16   C34   S    
C11   C15   A    
C44   C58   S    
C20   H20   S    
C22   N1    A    
Cu1   O1    S    
C1    O3    A    
Cu1   O8    S    
C61   N2    T    
C15   H19   S    
C42   C56   S    
C26   N3    A    
C40   C42   A    
C13   C14   A    
C26   C55   S    
C41   C43   A    
C51   H5    S    
Cu2   O6    S    
C50   H12   S    
Cu1   O5    S    
C7    C11   A    
C20   C29   A    
C3    C61   S    
C22   H10   S    
C46   C48   A    
C25   N1    A    
C40   H3    S    
C27   C31   A    
C28   C32   A    
C39   C41   A    
C2    C54   S    
C17   O8    A    
C5    C7    A    
C12   C63   S    
C6    C8    A    
C45   C52   A    
C30   C37   A    
C6    C63   A    
C2    C4    A    
C12   O2    A    
C52   H6    S    
C23   C51   A    
C31   C32   A    
C4    C63   A    
C10   C19   A    
C57   N7    T    
C4    C60   S    
C43   C45   S    
C54   N5    T    
C16   O5    A    
C35   H23   S    
C18   H14   S    
C20   C22   A    
C31   C35   A    
C47   H11   S    
C2    C10   A    
C1    O1    A    
C3    C62   A    
C7    C9    A    
C49   H1    S    
C53   N4    T    
C26   C28   A    
Cu2   O3    S    
C55   N6    T    
C60   N10   T    
C44   C47   A    
C24   H9    S    
Cu2   N1    S    
C25   C27   A    
C21   C30   A    
C38   H24   S    
C34   C52   A    
C32   C33   A    
C28   C30   A    
C42   C44   A    
C24   N3    A    
C38   C40   A    
C11   C13   A    
C48   C50   A    
Cu1   N3    S    
C5    C62   A    
C43   C46   A    
C36   H7    S    
C9    C18   A    
C39   C50   A    
C8    C10   A    
Cu1   Cu2   S    
C21   C24   A    
Cu1   O4    S    
C19   H15   S    
C41   H4    S    
