data_mof_unit_14912.cif
_audit_creation_date              2012-12-10T18:18:27-0500
_audit_creation_method            fapswitch 2.2
_symmetry_space_group_name_H-M    P1
_symmetry_Int_Tables_number       1
_space_group_crystal_system       triclinic
_cell_length_a                    14.001647
_cell_length_b                    15.014945
_cell_length_c                    15.522055
_cell_angle_alpha                 89.974822
_cell_angle_beta                  67.100344
_cell_angle_gamma                 90.092625
_cell_volume                      3006.07200107

loop_
_atom_site_label
_atom_site_type_symbol
_atom_type_description
_atom_site_fract_x
_atom_site_fract_y
_atom_site_fract_z
_atom_type_partial_charge
C1    C     C_R   0.500303 0.673549 0.499358 0.891973
C2    C     C_R   0.501730 0.769373 0.495979 -0.093841
C3    C     C_R   0.588243 0.185161 0.497105 -0.249928
C4    C     C_R   0.416294 0.814818 0.492585 -0.249005
C5    C     C_R   0.591759 0.092808 0.492546 0.087871
C6    C     C_R   0.416764 0.907206 0.488292 0.087960
C7    C     C_R   0.504850 0.046381 0.489893 0.012410
C8    C     C_R   0.504297 0.953649 0.489562 0.011974
C9    C     C_R   0.417522 0.092789 0.489415 0.102860
C10   C     C_R   0.590575 0.907242 0.492379 0.102609
C11   C     C_R   0.679018 0.045878 0.492548 0.209150
C12   C     C_R   0.500091 0.326450 0.499729 0.891981
C13   C     C_R   0.331018 0.954156 0.484938 0.211765
C14   C     C_R   0.677075 0.953071 0.493359 -0.295830
C15   C     C_R   0.331905 0.046964 0.486488 -0.297411
C16   C     C_R   0.434866 0.498348 0.676718 0.891783
C17   C     C_R   0.565142 0.499608 0.323288 0.885207
C18   C     C_R   0.180351 0.436444 0.549567 -0.065424
C19   C     C_R   0.820156 0.562676 0.449115 -0.065269
C20   C     C_R   0.223803 0.562863 0.449422 -0.057985
C21   C     C_R   0.776119 0.437303 0.550774 -0.055711
C22   C     C_R   0.123842 0.564114 0.447778 0.014510
C23   C     C_R   0.371228 0.476417 0.109707 -0.230989
C24   C     C_R   0.876340 0.435617 0.551778 0.014806
C25   C     C_R   0.050779 0.499735 0.499586 0.087519
C26   C     C_R   0.949509 0.499801 0.499676 0.087321
C27   C     C_R   0.078991 0.435204 0.551191 0.013481
C28   C     C_R   0.921455 0.564057 0.447680 0.013258
C29   C     C_R   0.095323 0.627863 0.395863 -0.209387
C30   C     C_R   0.905012 0.371608 0.603343 -0.207647
C31   C     C_R   0.995002 0.627803 0.395767 -0.218144
C32   C     C_R   0.005542 0.371322 0.602934 -0.219416
C33   C     C_R   0.392795 0.489481 0.779075 -0.108535
C34   C     C_R   0.608751 0.416532 0.903782 -0.227805
C35   C     C_R   0.606249 0.488587 0.221354 -0.105771
C36   C     C_R   0.256080 0.497492 0.934052 -0.273924
C37   C     C_R   0.732324 0.433050 0.074431 -0.278647
C38   C     C_R   0.287085 0.501295 0.836792 0.214889
C39   C     C_R   0.707514 0.458195 0.167661 0.219328
C40   C     C_R   0.463505 0.468970 0.819447 -0.316585
C41   C     C_R   0.534712 0.497331 0.179763 -0.310326
C42   C     C_R   0.433447 0.463194 0.916087 0.095108
C43   C     C_R   0.555287 0.465117 0.090228 0.095483
C44   C     C_R   0.328615 0.480726 0.973777 0.144242
C45   C     C_R   0.297885 0.483381 0.070438 -0.224831
C46   C     C_R   0.656954 0.435879 0.035753 0.143969
C47   C     C_R   0.506927 0.447317 0.956505 0.078677
C48   C     C_R   0.477535 0.463606 0.053116 0.077605
C49   C     C_3   0.840441 0.531926 0.203127 -0.771152
C50   C     C_3   0.155966 0.442399 0.789007 -0.771464
C51   C     C_3   0.840400 0.119084 0.402264 -0.805349
C52   C     C_3   0.253925 0.881383 0.389309 -0.818132
C53   C     C_R   0.681939 0.409858 0.943459 -0.220017
C54   C     C_R   0.416650 0.184795 0.492502 -0.236251
C55   C     C_R   0.588866 0.815230 0.495033 -0.237251
C56   C     C_R   0.501408 0.230626 0.496853 -0.092271
H1    H     H_    0.217397 0.494290 0.115782 0.148696
H2    H     H_    0.543954 0.462256 0.774105 0.172669
H3    H     H_    0.175464 0.509290 0.978517 0.137211
H4    H     H_    0.810114 0.410214 0.032688 0.135597
H5    H     H_    0.342037 0.479042 0.185054 0.153109
H6    H     H_    0.633220 0.394258 0.832351 0.141328
H7    H     H_    0.349605 0.220583 0.492032 0.158580
H8    H     H_    0.655144 0.779462 0.497232 0.158804
H9    H     H_    0.652748 0.222036 0.501476 0.192872
H10   H     H_    0.349180 0.777907 0.494003 0.194101
H11   H     H_    0.743431 0.916765 0.494607 0.145912
H12   H     H_    0.758967 0.385799 0.901122 0.145419
H13   H     H_    0.265571 0.083281 0.485209 0.145795
H14   H     H_    0.203992 0.386833 0.587820 0.128433
H15   H     H_    0.796978 0.611426 0.409624 0.128241
H16   H     H_    0.832481 0.396822 0.181698 0.217397
H17   H     H_    0.886857 0.550658 0.129240 0.224562
H18   H     H_    0.893887 0.521882 0.239592 0.233508
H19   H     H_    0.786555 0.587068 0.238285 0.244479
H20   H     H_    0.162891 0.571233 0.832387 0.219570
H21   H     H_    0.108765 0.414227 0.859000 0.223192
H22   H     H_    0.210545 0.390836 0.745964 0.243802
H23   H     H_    0.281043 0.611888 0.410233 0.131318
H24   H     H_    0.103141 0.461418 0.754190 0.236059
H25   H     H_    0.804433 0.058401 0.530633 0.225526
H26   H     H_    0.874570 0.059891 0.358080 0.240960
H27   H     H_    0.903766 0.158595 0.409881 0.242842
H28   H     H_    0.801391 0.161419 0.367058 0.252010
H29   H     H_    0.173835 0.941543 0.516849 0.227159
H30   H     H_    0.260971 0.940748 0.344407 0.245713
H31   H     H_    0.184532 0.842580 0.393915 0.237160
H32   H     H_    0.323304 0.838512 0.356683 0.246518
H33   H     H_    0.718680 0.388622 0.590432 0.129439
H34   H     H_    0.150588 0.677688 0.355306 0.139528
H35   H     H_    0.849754 0.321760 0.643905 0.139886
H36   H     H_    0.974922 0.677634 0.355189 0.139464
H37   H     H_    0.025774 0.321282 0.643211 0.139100
H38   H     H_    0.461707 0.529097 0.219365 0.165098
N1    N     N_R   0.249980 0.499930 0.499960 -0.094277
N2    N     N_R   0.750020 0.500070 0.500040 -0.094294
N3    N     N_2   0.783591 0.450496 0.206873 -0.283109
N4    N     N_2   0.212306 0.520121 0.798342 -0.282761
N5    N     N_2   0.767918 0.091332 0.493634 -0.318662
N6    N     N_2   0.242903 0.908736 0.482064 -0.311794
O1    O     O_R   0.419720 0.632140 0.499980 -0.627200
O2    O     O_R   0.580280 0.367860 0.500020 -0.627397
O3    O     O_R   0.580270 0.632160 0.499970 -0.627698
O4    O     O_R   0.419730 0.367840 0.500030 -0.628985
O5    O     O_R   0.373870 0.499980 0.632250 -0.578728
O6    O     O_R   0.626130 0.500020 0.367750 -0.581706
O7    O     O_R   0.534420 0.500000 0.632240 -0.624341
O8    O     O_R   0.465580 0.500000 0.367760 -0.623189
Zn1   Zn    Zn3+2 0.392800 0.499980 0.500010 0.950042
Zn2   Zn    Zn3+2 0.607200 0.500020 0.499990 0.949600

loop_
_geom_bond_atom_site_label_1
_geom_bond_atom_site_label_2
_ccdc_geom_bond_type
C18   H14   S    
C30   C32   A    
C23   C45   A    
C22   C29   A    
C51   H27   S    
C19   H15   S    
C38   N4    S    
C36   H3    S    
C7    C8    A    
C21   H33   S    
C45   H1    S    
O3    Zn2   S    
C24   C26   A    
C12   O4    A    
C2    C55   A    
O4    Zn1   S    
C11   C14   A    
C39   N3    S    
C54   H7    S    
O1    Zn1   S    
C34   H6    S    
O8    Zn1   S    
C11   N5    S    
C1    C2    S    
C53   H12   S    
C16   O7    A    
C41   H38   S    
C22   C25   A    
C14   H11   S    
C49   H19   S    
C43   C48   A    
C1    O3    A    
C40   C42   A    
C32   H37   S    
C18   N1    A    
C41   C43   A    
C3    H9    S    
C42   C44   A    
C50   H22   S    
C29   H34   S    
H16   N3    S    
C28   C31   A    
C51   N5    S    
C15   H13   S    
C54   C56   A    
C50   N4    S    
C33   C40   A    
C40   H2    S    
C52   H32   S    
C4    C6    A    
N1    Zn1   S    
C17   O8    A    
C5    C7    A    
C6    C8    A    
H25   N5    S    
C25   C26   A    
N2    Zn2   S    
C52   N6    S    
C35   C39   A    
C12   O2    A    
C10   C55   A    
C16   C33   S    
C3    C56   A    
C47   C48   A    
C55   H8    S    
C19   C28   A    
C51   H26   S    
C12   C56   S    
C16   O5    A    
C8    C10   A    
C20   N1    A    
C20   C22   A    
C13   C15   A    
C10   C14   A    
O7    Zn2   S    
C49   H17   S    
O2    Zn2   S    
C50   H21   S    
C1    O1    A    
C44   C45   A    
O6    Zn2   S    
C7    C9    A    
O5    Zn1   S    
C23   C48   A    
C20   H23   S    
C27   C32   A    
C52   H31   S    
C18   C27   A    
C30   H35   S    
C3    C5    A    
C50   H24   S    
C5    C11   A    
C9    C54   A    
C21   N2    A    
C25   C27   A    
C26   C28   A    
C33   C38   A    
C13   N6    S    
C52   H30   S    
C9    C15   A    
C29   C31   A    
H29   N6    S    
C17   O6    A    
C6    C13   A    
C4    H10   S    
C2    C4    A    
C46   C53   A    
C36   C38   A    
C42   C47   A    
C35   C41   A    
C43   C46   A    
C24   C30   A    
C37   H4    S    
C36   C44   A    
C49   N3    S    
C23   H5    S    
C34   C53   A    
C37   C39   A    
C31   H36   S    
C21   C24   A    
C49   H18   S    
C34   C47   A    
C17   C35   S    
C37   C46   A    
H20   N4    S    
C51   H28   S    
C19   N2    A    
