data_mof_unit_45907.cif
_audit_creation_date              2013-03-05T16:05:30-0500
_audit_creation_method            fapswitch 2.2
_symmetry_space_group_name_H-M    P1
_symmetry_Int_Tables_number       1
_space_group_crystal_system       triclinic
_cell_length_a                    10.978105
_cell_length_b                    9.668821
_cell_length_c                    10.626056
_cell_angle_alpha                 90.119266
_cell_angle_beta                  95.195221
_cell_angle_gamma                 90.88516
_cell_volume                      1123.13185022

loop_
_atom_site_label
_atom_site_type_symbol
_atom_site_description
_atom_site_fract_x
_atom_site_fract_y
_atom_site_fract_z
_atom_type_partial_charge
O1    O     O_R   0.319640 0.618740 0.499990 -0.578724
O2    O     O_R   0.680360 0.381260 0.500010 -0.578754
O3    O     O_R   0.680360 0.618740 0.500010 -0.582361
O4    O     O_R   0.319640 0.381260 0.499990 -0.582353
C1    C     C_R   0.871031 0.502888 0.489354 -0.147190
C2    C     C_R   0.128972 0.497109 0.510665 -0.147246
C3    C     C_R   0.263047 0.498897 0.505327 0.775876
C4    C     C_R   0.736954 0.501102 0.494678 0.775980
O5    O     O_R   0.499970 0.618770 0.316850 -0.590696
O6    O     O_R   0.500030 0.381230 0.683150 -0.590718
O7    O     O_R   0.500030 0.618770 0.683150 -0.582553
O8    O     O_R   0.499970 0.381230 0.316850 -0.582663
C5    C     C_R   0.499461 0.500029 0.259760 0.787154
C6    C     C_R   0.500542 0.499970 0.740239 0.787091
Cu1   Cu    Cu3+1 0.500000 0.640660 0.500000 0.947418
Cu2   Cu    Cu3+1 0.500000 0.359340 0.500000 0.947369
N1    N     N_R   0.500000 0.852070 0.500000 -0.191793
N2    N     N_R   0.500000 0.147930 0.500000 -0.191800
C7    C     C_3   0.500661 0.632027 0.041557 -0.175960
C8    C     C_3   0.499340 0.367971 0.958442 -0.175873
C9    C     C_3   0.601271 0.567110 0.967552 -0.222163
C10   C     C_3   0.398734 0.432885 0.032445 -0.222232
C11   C     C_3   0.401058 0.563402 0.949573 0.210562
C12   C     C_3   0.598945 0.436593 0.050424 0.210674
H1    H     H_    0.500237 0.740068 0.077085 0.150228
H2    H     H_    0.499763 0.259930 0.922912 0.150236
H3    H     H_    0.684305 0.620872 0.938566 0.138516
H4    H     H_    0.315700 0.379123 0.061432 0.138515
C13   C     C_3   0.500331 0.499517 0.877072 -0.016771
C14   C     C_3   0.499673 0.500482 0.122926 -0.016747
C15   C     C_R   0.427957 0.072977 0.409987 0.261996
C16   C     C_R   0.572040 0.927023 0.590016 0.262005
C17   C     C_R   0.574413 0.075499 0.588029 0.261970
C18   C     C_R   0.425586 0.924501 0.411972 0.261949
C19   C     C_R   0.059505 0.373467 0.486653 -0.083057
C20   C     C_R   0.940500 0.626528 0.513375 -0.083069
C21   C     C_R   0.932039 0.378028 0.468567 -0.080519
C22   C     C_R   0.067966 0.621966 0.531461 -0.080553
C23   C     C_3   0.357825 0.146123 0.300126 -0.756203
H5    H     H_    0.325166 0.247695 0.325093 0.264695
H6    H     H_    0.416176 0.155122 0.220395 0.214280
H7    H     H_    0.271645 0.093211 0.264499 0.195121
C24   C     C_3   0.642160 0.853875 0.699883 -0.756165
H8    H     H_    0.674839 0.752313 0.674908 0.264679
H9    H     H_    0.728326 0.906798 0.735541 0.195104
H10   H     H_    0.583790 0.844852 0.779598 0.214290
C25   C     C_3   0.664727 0.148894 0.683239 -0.765637
H11   H     H_    0.669778 0.260615 0.678553 0.270173
H12   H     H_    0.643550 0.123252 0.780811 0.191992
H13   H     H_    0.759029 0.116781 0.668419 0.212858
C26   C     C_3   0.335269 0.851106 0.316764 -0.765601
H14   H     H_    0.330223 0.739385 0.321445 0.270168
H15   H     H_    0.240968 0.883213 0.331593 0.212848
H16   H     H_    0.356438 0.876755 0.219192 0.192019
C27   C     C_3   0.288319 0.635977 0.890155 -0.858189
H17   H     H_    0.235005 0.564645 0.823323 0.226334
H18   H     H_    0.230429 0.668091 0.965149 0.228124
H19   H     H_    0.316766 0.728881 0.838402 0.254353
C28   C     C_3   0.711662 0.363967 0.109824 -0.858881
H20   H     H_    0.683171 0.271642 0.162315 0.254590
H21   H     H_    0.769058 0.330938 0.034760 0.228264
H22   H     H_    0.765477 0.435552 0.175969 0.226436
C29   C     C_1   0.115203 0.238110 0.488271 0.280952
N3    N     N_1   0.157525 0.129232 0.490908 -0.265250
C30   C     C_1   0.884805 0.761885 0.511770 0.280930
N4    N     N_1   0.842486 0.870764 0.509145 -0.265246
C31   C     C_1   0.866010 0.254216 0.420642 0.286430
N5    N     N_1   0.813880 0.155831 0.382049 -0.261857
C32   C     C_1   0.133999 0.745768 0.579406 0.286452
N6    N     N_1   0.186135 0.844142 0.618016 -0.261805

loop_
_geom_bond_atom_site_label_1
_geom_bond_atom_site_label_2
_geom_bond_distance
_ccdc_geom_bond_type
C9    C13   1.536719 S    
O4    Cu2   1.994565 S    
C1    C4    1.477948 S    
C7    C11   1.540318 S    
C24   H8    1.091088 S    
C2    C22   1.416133 A    
C11   C27   1.519868 S    
C2    C3    1.477939 S    
O1    Cu1   1.988054 S    
C1    C21   1.416145 A    
C23   H7    1.104311 S    
O2    Cu2   1.988053 S    
C25   H11   1.082257 S    
C27   H17   1.110313 S    
C26   H16   1.110587 S    
C16   C17   1.435658 A    
C20   C22   1.396518 A    
O5    Cu1   1.957170 S    
C22   C32   1.456599 S    
C28   H20   1.109428 S    
C25   H12   1.110589 S    
C10   H4    1.110355 S    
O8    C5    1.299968 A    
C24   H9    1.104323 S    
C18   C26   1.517829 S    
C27   H19   1.109659 S    
O6    Cu2   1.957169 S    
C8    H2    1.110240 S    
O1    C3    1.310074 A    
C12   C28   1.519853 S    
C7    H1    1.110242 S    
Cu1   Cu2   2.720033 S    
C11   C13   1.527631 S    
Cu2   N2    2.044086 S    
C31   N5    1.157431 T    
C7    C9    1.552080 S    
C16   C24   1.520930 S    
C15   C23   1.520928 S    
O3    C4    1.308003 A    
C25   H13   1.110048 S    
C8    C13   1.539898 S    
C27   H18   1.110007 S    
C9    H3    1.110354 S    
C32   N6    1.157431 T    
C17   C25   1.517828 S    
N2    C17   1.383758 A    
C12   C14   1.527640 S    
C28   H21   1.109691 S    
N1    C18   1.383759 A    
C6    C13   1.454222 S    
C26   H14   1.082257 S    
C1    C20   1.418161 A    
C21   C31   1.456596 S    
C5    C14   1.454233 S    
C23   H5    1.091070 S    
O3    Cu1   1.994564 S    
C2    C19   1.418152 A    
C19   C21   1.396516 A    
C23   H6    1.110222 S    
C30   N4    1.156611 T    
O6    C6    1.297076 A    
C9    C12   1.541531 S    
O7    C6    1.299968 A    
Cu1   N1    2.044085 S    
N1    C16   1.381300 A    
O5    C5    1.297082 A    
C20   C30   1.452543 S    
C28   H22   1.110069 S    
C19   C29   1.452549 S    
N2    C15   1.381301 A    
C10   C14   1.536739 S    
O4    C3    1.307997 A    
C10   C11   1.541533 S    
C7    C14   1.539894 S    
O7    Cu1   1.958046 S    
C8    C12   1.540314 S    
C15   C18   1.435655 A    
O2    C4    1.310072 A    
C24   H10   1.110237 S    
O8    Cu2   1.958047 S    
C8    C10   1.552032 S    
C29   N3    1.156611 T    
C26   H15   1.110048 S    
