data_mof_unit_46487.cif
_audit_creation_date              2013-03-05T15:41:11-0500
_audit_creation_method            fapswitch 2.2
_symmetry_space_group_name_H-M    P1
_symmetry_Int_Tables_number       1
_space_group_crystal_system       triclinic
_cell_length_a                    15.849636
_cell_length_b                    8.711181
_cell_length_c                    7.480327
_cell_angle_alpha                 103.079743
_cell_angle_beta                  93.985461
_cell_angle_gamma                 92.497109
_cell_volume                      1001.70343029

loop_
_atom_site_label
_atom_site_type_symbol
_atom_site_description
_atom_site_fract_x
_atom_site_fract_y
_atom_site_fract_z
_atom_type_partial_charge
O1    O     O_R   0.506050 0.286130 0.619770 -0.517011
O2    O     O_R   0.490330 0.256780 0.308370 -0.606773
C1    C     C_R   0.498408 0.200021 0.453887 0.889617
O3    O     O_R   0.387300 0.514690 0.655770 -0.527753
O4    O     O_R   0.371580 0.485340 0.344370 -0.533406
C2    C     C_R   0.340442 0.499829 0.502564 0.827134
Cu1   Cu    Cu3+1 0.509300 0.517380 0.684380 1.037163
Cu2   Cu    Cu3+1 0.490700 0.482620 0.315620 1.028596
O5    O     O_R   0.509670 0.743220 0.691630 -0.582352
O6    O     O_R   0.493950 0.713870 0.380230 -0.604332
O7    O     O_R   0.628420 0.514660 0.655630 -0.585777
O8    O     O_R   0.612700 0.485310 0.344230 -0.611211
C3    C     C_R   0.506974 0.799932 0.546392 0.803536
C4    C     C_R   0.659548 0.500059 0.497428 0.793805
C5    C     C_3   0.051591 0.464916 0.686087 0.206458
C6    C     C_3   0.042235 0.372847 0.340851 -0.416873
C7    C     C_3   0.944378 0.371037 0.337149 -0.354326
H1    H     H_    0.926714 0.348639 0.693439 0.177064
H2    H     H_    0.069111 0.342996 0.689879 0.122244
H3    H     H_    0.062591 0.394932 0.209091 0.245820
H4    H     H_    0.063495 0.254750 0.350965 0.191265
H5    H     H_    0.919315 0.253299 0.351188 0.198352
H6    H     H_    0.917171 0.385663 0.201633 0.223737
C8    C     C_1   0.748993 0.499844 0.492619 -0.117668
C9    C     C_3   0.083170 0.501981 0.506034 0.101407
C10   C     C_3   0.953233 0.465753 0.680403 -0.493119
C11   C     C_3   0.916954 0.501587 0.497001 0.122678
C12   C     C_3   0.955717 0.667519 0.487862 0.214529
C13   C     C_3   0.053271 0.663192 0.479165 -0.381101
C14   C     C_1   0.824587 0.500294 0.492872 -0.010079
C15   C     C_1   0.175449 0.501088 0.508357 0.016596
C16   C     C_1   0.251000 0.500526 0.507663 -0.048246
H7    H     H_    0.085693 0.762467 0.585021 0.195568
H8    H     H_    0.072091 0.681576 0.344547 0.240001
H9    H     H_    0.943873 0.752167 0.618375 0.136517
H10   H     H_    0.932876 0.554201 0.798922 0.245987
C17   C     C_2   0.493254 0.032286 0.432800 -0.383403
H11   H     H_    0.460799 0.961555 0.306061 0.160739
C18   C     C_2   0.521130 0.967538 0.570430 0.080362
N1    N     N_2   0.476670 0.456430 0.038530 0.002080
N2    N     N_2   0.523330 0.543570 0.961470 -0.202415
H12   H     H_    0.577983 0.592403 0.039759 0.200207
N3    N     N_R   0.091828 0.573102 0.853048 0.142382
O9    O     O_R   0.072893 0.720003 0.898278 -0.347783
O10   O     O_R   0.144186 0.519914 0.963074 -0.331690
N4    N     N_R   0.916289 0.725887 0.334490 0.133057
O11   O     O_R   0.872864 0.851127 0.368580 -0.378667
O12   O     O_R   0.927185 0.658894 0.164423 -0.360366
N5    N     N_2   0.575408 0.055404 0.723596 -0.418147
H13   H     H_    0.638532 0.033410 0.713691 0.242001
C19   C     C_3   0.547897 0.062649 0.905664 -0.497492
H14   H     H_    0.572769 0.176140 0.998175 0.228232
H15   H     H_    0.573383 0.964972 0.962125 0.198158
H16   H     H_    0.477696 0.055546 0.903299 0.258593
N6    N     N_R   0.395288 0.418270 0.955710 0.299096
O13   O     O_R   0.372070 0.271734 0.879777 -0.367033
O14   O     O_R   0.337423 0.519624 0.993259 -0.285957

loop_
_geom_bond_atom_site_label_1
_geom_bond_atom_site_label_2
_geom_bond_distance
_ccdc_geom_bond_type
C9    C15   1.461860 S    
O4    Cu2   1.915573 S    
C2    C16   1.421025 S    
N3    O9    1.301434 A    
C6    H4    1.113345 S    
N2    H12   1.029023 S    
C7    H5    1.113461 S    
H1    C10   1.113705 S    
Cu2   O8    1.929155 S    
C6    H3    1.112272 S    
C19   H16   1.110368 S    
N1    N6    1.384352 S    
N6    O13   1.299749 A    
Cu1   N2    2.028585 S    
O2    C1    1.294402 A    
C5    N3    1.469308 S    
Cu1   Cu2   2.699769 S    
C17   C18   1.339611 D    
C7    H6    1.110076 S    
C11   C14   1.461667 S    
C5    H2    1.115408 S    
N3    O10   1.300729 A    
C12   N4    1.468784 S    
C10   C11   1.552421 S    
C17   H11   1.087773 S    
O3    Cu1   1.929153 S    
C10   H10   1.111751 S    
N1    N2    1.289888 D    
C18   N5    1.430852 S    
O8    C4    1.299178 A    
Cu1   O7    1.915573 S    
N4    O12   1.300800 A    
N6    O14   1.301418 A    
C9    C13   1.552292 S    
O4    C2    1.295692 A    
O7    C4    1.295589 A    
C8    C14   1.197842 T    
C5    C9    1.563731 S    
C3    C18   1.435772 S    
C19   H15   1.111060 S    
C19   H14   1.109123 S    
C7    C11   1.553031 S    
C13   H7    1.110737 S    
C11   C12   1.563548 S    
C1    C17   1.431801 S    
O3    C2    1.299185 A    
N5    H13   1.031387 S    
C4    C8    1.420686 S    
C6    C9    1.552091 S    
Cu1   O5    1.955514 S    
O5    C3    1.290163 A    
N4    O11   1.301110 A    
C12   C13   1.553820 S    
C5    C10   1.556943 S    
Cu2   N1    2.028586 S    
N5    C19   1.447406 S    
O1    Cu1   1.959877 S    
C13   H8    1.113203 S    
Cu2   O6    1.959877 S    
O2    Cu2   1.955514 S    
C15   C16   1.198039 T    
C12   H9    1.115254 S    
C6    C7    1.548640 S    
O1    C1    1.291112 A    
O6    C3    1.295633 A    
