data_mof_unit_27414.cif
_audit_creation_date              2012-10-26T20:18:18-0400
_audit_creation_method            fapswitch 2.2
_symmetry_space_group_name_H-M    P1
_symmetry_Int_Tables_number       1
_space_group_crystal_system       triclinic
_cell_length_a                    23.439366
_cell_length_b                    8.742036
_cell_length_c                    7.565384
_cell_angle_alpha                 103.347857
_cell_angle_beta                  94.685826
_cell_angle_gamma                 94.459548
_cell_volume                      1495.8084144

loop_
_atom_site_label
_atom_site_type_symbol
_atom_type_description
_atom_site_fract_x
_atom_site_fract_y
_atom_site_fract_z
_atom_type_partial_charge
C1    C     C_R   0.494176 0.199212 0.453937 0.533336
C2    C     C_R   0.712375 0.558111 0.632337 0.049615
C3    C     C_R   0.231319 0.358171 0.464874 0.334454
C4    C     C_R   0.768528 0.512778 0.638449 0.352644
C5    C     C_R   0.208003 0.497540 0.437960 0.229540
C6    C     C_R   0.788347 0.433040 0.474503 0.211585
C7    C     C_2   0.485406 0.028513 0.437360 0.228279
C8    C     C_2   0.513038 0.968278 0.565722 0.232427
C9    C     C_R   0.391173 0.497647 0.499759 0.560366
C10   C     C_R   0.608943 0.498798 0.497968 0.533018
C11   C     C_R   0.880718 0.590940 0.507208 0.418622
C12   C     C_R   0.504449 0.799875 0.546599 0.576221
C13   C     C_R   0.112418 0.384400 0.296572 0.438290
C14   C     C_R   0.875183 0.314066 0.373070 0.413464
C15   C     C_R   0.121495 0.628809 0.518152 0.407936
C16   C     C_R   0.934190 0.327334 0.346245 0.037772
C17   C     C_R   0.061044 0.629557 0.504723 0.052106
C18   C     C_R   0.967297 0.473356 0.423346 -0.093120
C19   C     C_R   0.027219 0.488440 0.414505 -0.091282
C20   C     C_R   0.940516 0.605605 0.505439 -0.028949
C21   C     C_R   0.053234 0.364098 0.310396 -0.024697
C22   C     C_R   0.961434 0.200070 0.247475 0.264641
C23   C     C_R   0.245058 0.629340 0.430712 -0.108901
C24   C     C_R   0.033997 0.765166 0.579980 0.254565
C25   C     C_R   0.019965 0.222728 0.224386 -0.138087
C26   C     C_R   0.973488 0.751678 0.576201 -0.150817
C27   C     C_3   0.946180 0.935342 0.239878 -0.001485
C28   C     C_3   0.959875 0.794507 0.094569 -0.381028
C29   C     C_3   0.052150 0.018463 0.777366 0.004592
C30   C     C_3   0.030191 0.163877 0.726372 -0.362725
C31   C     C_3   0.197002 0.088450 0.377064 0.050850
C32   C     C_3   0.137233 0.001039 0.311982 -0.310458
C33   C     C_3   0.788860 0.523794 0.944324 -0.019459
C34   C     C_R   0.747584 0.361198 0.325356 -0.152327
C35   C     C_3   0.810909 0.649644 0.116211 -0.318302
C36   C     C_3   0.430455 0.960950 0.153437 0.001202
C37   C     C_3   0.393292 0.822049 0.027358 -0.312597
C38   C     C_3   0.604928 0.081819 0.655024 -0.003010
C39   C     C_3   0.644910 0.184142 0.813920 -0.339593
C40   C     C_3   0.415445 0.260827 0.923957 0.053155
C41   C     C_3   0.353165 0.231251 0.962672 -0.366605
C42   C     C_3   0.593376 0.718214 0.037729 0.054874
C43   C     C_3   0.624916 0.837240 0.202730 -0.387035
C44   C     C_R   0.304242 0.630072 0.462684 -0.176749
C45   C     C_R   0.689064 0.377734 0.336953 -0.208025
C46   C     C_R   0.328306 0.496241 0.493456 -0.011631
C47   C     C_R   0.670846 0.479616 0.489418 -0.034044
C48   C     C_R   0.292377 0.356722 0.485739 0.017288
Cu1   Cu    Cu3+1 0.506340 0.517380 0.684380 1.036808
Cu2   Cu    Cu3+1 0.493660 0.482620 0.315620 1.055485
H1    H     H_    0.039736 0.125976 0.145600 0.123561
H2    H     H_    0.960681 0.688555 0.151705 0.112657
H3    H     H_    0.927041 0.769259 0.974415 0.217957
H4    H     H_    0.092192 0.057431 0.871013 0.211695
H5    H     H_    0.020673 0.967620 0.854923 0.116822
H6    H     H_    0.024328 0.253704 0.851924 0.139174
H7    H     H_    0.061587 0.216675 0.649649 0.181237
H8    H     H_    0.988144 0.132112 0.641988 0.136475
H9    H     H_    0.219586 0.015057 0.456068 0.182853
H10   H     H_    0.219698 0.095210 0.254589 0.160684
H11   H     H_    0.104293 0.059040 0.393197 0.211349
H12   H     H_    0.951924 0.855987 0.624884 0.160902
H13   H     H_    0.125730 0.996869 0.165818 0.132555
H14   H     H_    0.136457 0.876806 0.324018 0.140375
H15   H     H_    0.806748 0.411069 0.951658 0.148898
H16   H     H_    0.741210 0.504211 0.942456 0.116541
H17   H     H_    0.785759 0.635772 0.230222 0.147996
H18   H     H_    0.856702 0.638094 0.153950 0.135536
H19   H     H_    0.806597 0.769624 0.094087 0.232368
H20   H     H_    0.471780 0.976636 0.093370 0.165821
H21   H     H_    0.405864 0.064404 0.166145 0.160537
H22   H     H_    0.351091 0.805256 0.080891 0.163987
H23   H     H_    0.227856 0.733009 0.401250 0.148107
H24   H     H_    0.386038 0.843842 0.888704 0.102078
H25   H     H_    0.415222 0.713414 0.017729 0.243083
H26   H     H_    0.604081 0.142710 0.541004 0.118577
H27   H     H_    0.622607 0.966643 0.610095 0.145337
H28   H     H_    0.648143 0.124564 0.928519 0.165422
H29   H     H_    0.688449 0.203572 0.770193 0.116094
H30   H     H_    0.628147 0.300463 0.861281 0.162016
H31   H     H_    0.444654 0.201786 0.001703 0.125249
H32   H     H_    0.419710 0.206090 0.779710 0.182682
H33   H     H_    0.324933 0.299330 0.891536 0.203303
H34   H     H_    0.761019 0.297185 0.197889 0.160374
H35   H     H_    0.338104 0.103657 0.914343 0.122350
H36   H     H_    0.349248 0.268832 0.110923 0.174095
H37   H     H_    0.590573 0.774554 0.920966 0.200153
H38   H     H_    0.618133 0.612852 0.008616 0.143706
H39   H     H_    0.627462 0.784115 0.322579 0.161431
H40   H     H_    0.669299 0.871784 0.175822 0.150074
H41   H     H_    0.601669 0.944701 0.234215 0.131122
H42   H     H_    0.331676 0.734430 0.457760 0.166690
H43   H     H_    0.658323 0.317366 0.223013 0.134505
H44   H     H_    0.909158 0.897968 0.307946 0.194274
H45   H     H_    0.983969 0.968489 0.345298 0.125798
H46   H     H_    0.003036 0.818311 0.051392 0.123621
I1    I     I_    0.332793 0.146360 0.485366 -0.509359
I2    I     I_    0.702709 0.786195 0.789113 -0.456321
N1    N     N_R   0.849377 0.445067 0.452668 -0.390026
N2    N     N_R   0.146290 0.504696 0.416623 -0.378890
N3    N     N_2   0.484110 0.456420 0.038520 0.093010
N4    N     N_2   0.515890 0.543580 0.961480 0.075778
O1    O     O_R   0.504120 0.286130 0.619770 -0.477446
O2    O     O_2   0.135944 0.286117 0.164078 -0.527304
O3    O     O_2   0.844220 0.171628 0.323002 -0.452103
O4    O     O_2   0.154749 0.748131 0.635771 -0.465339
O5    O     O_3   0.930280 0.058300 0.157969 -0.509249
O6    O     O_3   0.066444 0.911548 0.620441 -0.551948
O7    O     O_3   0.193401 0.237993 0.496212 -0.532184
O8    O     O_3   0.807546 0.573269 0.791195 -0.501876
O9    O     O_3   0.439311 0.932111 0.327294 -0.569192
O10   O     O_3   0.549647 0.059585 0.712056 -0.582801
O11   O     O_3   0.430244 0.423793 0.955631 -0.456414
O12   O     O_R   0.495880 0.713870 0.380230 -0.428699
O13   O     O_3   0.537959 0.679186 0.078769 -0.457659
O14   O     O_R   0.493410 0.256770 0.308360 -0.554843
O15   O     O_R   0.506590 0.743230 0.691640 -0.514169
O16   O     O_R   0.423230 0.514630 0.655730 -0.461614
O17   O     O_R   0.576770 0.485370 0.344270 -0.502669
O18   O     O_R   0.412530 0.485280 0.344320 -0.481202
O19   O     O_R   0.587470 0.514720 0.655680 -0.532858
O20   O     O_2   0.853995 0.722847 0.560498 -0.456950

loop_
_geom_bond_atom_site_label_1
_geom_bond_atom_site_label_2
_ccdc_geom_bond_type
C37   H24   S    
N3    N4    D    
N3    O11   S    
C27   H45   S    
C15   N2    A    
C10   O19   A    
C45   H43   S    
C33   H15   S    
C14   N1    A    
C38   H26   S    
C48   I1    S    
C43   H39   S    
Cu2   O18   S    
C15   O4    S    
C36   C37   S    
C19   C21   A    
C24   C26   A    
C32   H11   S    
C8    O10   S    
C38   C39   S    
C29   H4    S    
C22   O5    S    
C41   H33   S    
C30   H7    S    
C3    C48   A    
C11   N1    A    
C18   C19   A    
C31   H9    S    
C21   C25   A    
C10   O17   A    
C17   C19   A    
C14   O3    S    
Cu1   O15   S    
C40   O11   S    
C36   H20   S    
C22   C25   A    
C29   O6    S    
N4    O13   S    
C1    O14   A    
C27   O5    S    
C1    O1    A    
Cu2   O14   S    
C44   H42   S    
C36   H21   S    
C37   H25   S    
C9    C46   S    
C9    O16   A    
C34   H34   S    
C23   H23   S    
C44   C46   A    
C33   H16   S    
C12   O12   A    
C45   C47   A    
C46   C48   A    
C11   C20   A    
C17   C24   A    
Cu2   O17   S    
C43   H40   S    
C39   H28   S    
C40   H32   S    
C7    C8    D    
C32   H14   S    
C4    C6    A    
Cu1   N4    S    
C29   H5    S    
C30   H6    S    
C43   H41   S    
C23   C44   A    
C6    C34   A    
Cu2   O12   S    
C39   H29   S    
C31   H10   S    
C2    C4    A    
C25   H1    S    
C29   C30   S    
C41   H36   S    
Cu1   O16   S    
C5    C23   A    
C5    N2    S    
C35   H17   S    
C8    C12   S    
Cu1   O19   S    
C36   O9    S    
C31   O7    S    
C13   C21   A    
C34   C45   A    
C13   O2    S    
C2    I2    S    
C24   O6    S    
C40   C41   S    
C14   C16   A    
C11   O20   S    
C42   H38   S    
C42   C43   S    
C38   O10   S    
C10   C47   S    
C15   C17   A    
C4    O8    S    
C16   C22   A    
C1    C7    S    
C40   H31   S    
C31   C32   S    
C32   H13   S    
C3    C5    A    
Cu1   O1    S    
C28   H3    S    
C42   H37   S    
C38   H27   S    
C2    C47   A    
C41   H35   S    
C28   H46   S    
C39   H30   S    
C13   N2    A    
C26   H12   S    
C6    N1    S    
C28   H2    S    
C20   C26   A    
C35   H18   S    
C3    O7    S    
C30   H8    S    
C33   C35   S    
C7    O9    S    
C18   C20   A    
C12   O15   A    
C42   O13   S    
C35   H19   S    
Cu2   N3    S    
C16   C18   A    
Cu1   Cu2   S    
C37   H22   S    
C27   C28   S    
C9    O18   A    
C27   H44   S    
C33   O8    S    
