data_mof_unit_20931.cif
_audit_creation_date              2012-12-10T16:44:42-0500
_audit_creation_method            fapswitch 2.2
_symmetry_space_group_name_H-M    P1
_symmetry_Int_Tables_number       1
_space_group_crystal_system       triclinic
_cell_length_a                    14.993258
_cell_length_b                    8.722942
_cell_length_c                    7.554563
_cell_angle_alpha                 102.391945
_cell_angle_beta                  96.164379
_cell_angle_gamma                 93.994039
_cell_volume                      955.046198457

loop_
_atom_site_label
_atom_site_type_symbol
_atom_type_description
_atom_site_fract_x
_atom_site_fract_y
_atom_site_fract_z
_atom_type_partial_charge
C1    C     C_R   0.496878 0.200189 0.453759 0.912378
C2    C     C_R   0.503122 0.799810 0.546240 0.912378
C3    C     C_R   0.025637 0.215067 0.361464 -0.040814
C4    C     C_R   0.974363 0.784933 0.638536 -0.040814
C5    C     C_2   0.495247 0.032382 0.428041 -0.201050
C6    C     C_2   0.504753 0.967618 0.571959 -0.201050
C7    C     C_R   0.329434 0.498527 0.498884 0.925737
C8    C     C_R   0.670566 0.501473 0.501116 0.925737
C9    C     C_R   0.820593 0.645829 0.542018 0.293200
C10   C     C_R   0.179407 0.354171 0.457982 0.293200
C11   C     C_R   0.767201 0.502434 0.504462 -0.192349
C12   C     C_R   0.232799 0.497566 0.495537 -0.192349
C13   C     C_R   0.804932 0.359455 0.474440 0.275152
C14   C     C_R   0.195068 0.640545 0.525559 0.275152
C15   C     C_R   0.896460 0.357196 0.447754 -0.019123
C16   C     C_R   0.103540 0.642804 0.552246 -0.019123
C17   C     C_R   0.953134 0.500951 0.501703 -0.008381
C18   C     C_R   0.046866 0.499048 0.498297 -0.008381
C19   C     C_R   0.915771 0.646325 0.560097 -0.018603
C20   C     C_R   0.084229 0.353675 0.439903 -0.018603
C21   C     C_R   0.931847 0.217238 0.363867 -0.087667
C22   C     C_R   0.068153 0.782762 0.636133 -0.087667
Cu1   Cu    Cu3+1 0.510010 0.517380 0.684380 1.172613
Cu2   Cu    Cu3+1 0.489990 0.482620 0.315620 1.172613
H1    H     H_    0.486293 0.961641 0.288982 0.204284
H2    H     H_    0.513707 0.038359 0.711018 0.204284
N1    N     N_2   0.474890 0.456420 0.038520 0.102882
N2    N     N_2   0.525110 0.543580 0.961480 0.102882
O1    O     O_R   0.506510 0.286130 0.619770 -0.558989
O2    O     O_R   0.493490 0.713870 0.380230 -0.558989
O3    O     O_R   0.489600 0.256770 0.308360 -0.557996
O4    O     O_R   0.510400 0.743230 0.691640 -0.557995
O5    O     O_R   0.378710 0.514640 0.655720 -0.545388
O6    O     O_R   0.621290 0.485360 0.344280 -0.545388
O7    O     O_R   0.361800 0.485290 0.344300 -0.549775
O8    O     O_R   0.638200 0.514710 0.655700 -0.549775
Cl1   Cl    Cl    0.763632 0.819130 0.555668 -0.484538
Cl2   Cl    Cl    0.236368 0.180870 0.444332 -0.484538
Cl3   Cl    Cl    0.737574 0.189324 0.493606 -0.522699
Cl4   Cl    Cl    0.262426 0.810676 0.506393 -0.522699
C23   C     C_2   0.870443 0.082506 0.249972 1.010949
O9    O     O_2   0.813380 0.105924 0.132713 -0.514731
O10   O     O_R   0.877000 0.930307 0.277928 -0.659736
H3    H     H_    0.830921 0.849537 0.193058 0.387330
C24   C     C_2   0.129557 0.917494 0.750028 1.010949
O11   O     O_2   0.186620 0.894076 0.867287 -0.514731
O12   O     O_R   0.123000 0.069693 0.722072 -0.659736
H4    H     H_    0.169079 0.150463 0.806942 0.387330
C25   C     C_2   0.059143 0.078841 0.243277 0.975357
O13   O     O_2   0.090724 0.097128 0.106221 -0.585912
O14   O     O_R   0.056575 0.932145 0.289804 -0.665733
H5    H     H_    0.082068 0.849483 0.197990 0.359840
C26   C     C_2   0.940857 0.921159 0.756723 0.975357
O15   O     O_2   0.909276 0.902872 0.893779 -0.585912
O16   O     O_R   0.943425 0.067855 0.710196 -0.665733
H6    H     H_    0.917932 0.150517 0.802010 0.359840
Cl5   Cl    Cl    0.395768 0.313150 0.905255 -0.406238
Cl6   Cl    Cl    0.604232 0.686850 0.094745 -0.406238

loop_
_geom_bond_atom_site_label_1
_geom_bond_atom_site_label_2
_ccdc_geom_bond_type
C1    O3    A    
O16   H6    S    
C14   C16   A    
N2    Cl6   S    
C4    C26   S    
C23   O10   S    
C23   O9    D    
C26   O16   S    
O12   H4    S    
C1    C5    S    
Cu2   N1    S    
C10   Cl2   S    
Cu1   Cu2   S    
Cu1   O4    S    
C9    Cl1   S    
C17   C18   A    
C3    C25   S    
Cu2   O3    S    
C3    C20   A    
C16   C18   A    
C6    H2    S    
C26   O15   D    
C7    O5    A    
C9    C11   A    
C2    C6    S    
C10   C12   A    
C8    C11   S    
C21   C23   S    
Cu1   O1    S    
C1    O1    A    
C17   C19   A    
C12   C14   A    
Cu1   O8    S    
C18   C20   A    
C13   C15   A    
O10   H3    S    
C8    O8    A    
C5    C6    D    
C5    H1    S    
C7    C12   S    
C13   Cl3   S    
Cu2   O7    S    
C3    C21   A    
C2    O2    A    
Cu2   O2    S    
C14   Cl4   S    
O14   H5    S    
C24   O11   D    
C15   C21   A    
C22   C24   S    
C4    C22   A    
C2    O4    A    
C25   O13   D    
N1    Cl5   S    
C24   O12   S    
C8    O6    A    
N1    N2    D    
C15   C17   A    
C16   C22   A    
Cu1   O5    S    
Cu1   N2    S    
C4    C19   A    
C7    O7    A    
C11   C13   A    
C9    C19   A    
Cu2   O6    S    
C10   C20   A    
C25   O14   S    
