data_mof_unit_67130.cif
_audit_creation_date              2013-03-05T15:58:41-0500
_audit_creation_method            fapswitch 2.2
_symmetry_space_group_name_H-M    P1
_symmetry_Int_Tables_number       1
_space_group_crystal_system       triclinic
_cell_length_a                    8.258669
_cell_length_b                    12.736209
_cell_length_c                    15.044769
_cell_angle_alpha                 97.253604
_cell_angle_beta                  97.302513
_cell_angle_gamma                 98.541526
_cell_volume                      1535.13898293

loop_
_atom_site_label
_atom_site_type_symbol
_atom_site_description
_atom_site_fract_x
_atom_site_fract_y
_atom_site_fract_z
_atom_type_partial_charge
P1    P     P_3+3 0.998770 0.403620 0.291990 0.499824
O1    O     O_2   0.827930 0.435360 0.277760 -0.314793
O2    O     O_3   0.100310 0.439010 0.391180 -0.426137
O3    O     O_3   0.625610 0.634200 0.333270 -0.375167
O4    O     O_2   0.697195 0.552342 0.174138 -0.347909
O5    O     O_3   0.959349 0.263427 0.265543 -0.528130
O6    O     O_3   0.654752 0.751971 0.189282 -0.513647
H1    H     H_    0.696497 0.878656 0.293214 0.137571
C1    C     C_3   0.519572 0.904056 0.183132 -0.915156
H2    H     H_    0.468154 0.966071 0.224506 0.257949
H3    H     H_    0.617029 0.943417 0.148248 0.288924
P2    P     P_3+3 0.687370 0.751000 0.571300 0.481577
P3    P     P_3+3 0.105290 0.828554 0.381539 0.450250
O7    O     O_2   0.857120 0.766320 0.543890 -0.394208
O8    O     O_3   0.056570 0.691100 0.379020 -0.387283
O9    O     O_2   0.989598 0.881530 0.439395 -0.384112
O10   O     O_3   0.723985 0.786260 0.688885 -0.518812
O11   O     O_3   0.047414 0.856980 0.272618 -0.516765
C2    C     C_3   0.087486 0.776660 0.210298 0.383823
H4    H     H_    0.010276 0.697814 0.212049 0.152397
H5    H     H_    0.220410 0.770144 0.224040 0.019478
C3    C     C_3   0.051054 0.804918 0.115900 -0.796420
H6    H     H_    0.916394 0.804256 0.100416 0.310352
H7    H     H_    0.119100 0.885909 0.112117 0.259588
C4    C     C_3   0.261002 0.779549 0.651582 0.385006
H8    H     H_    0.389108 0.775744 0.639623 0.114715
H9    H     H_    0.172064 0.740067 0.590870 0.127611
C5    C     C_3   0.237773 0.895284 0.667513 -0.887013
H10   H     H_    0.316160 0.934832 0.731551 0.302746
H11   H     H_    0.271704 0.936148 0.610137 0.244064
H12   H     H_    0.106969 0.899555 0.674719 0.255194
Ba1   Ba    Ba6+2 0.843760 0.550230 0.455610 1.584226
C6    C     C_3   0.931817 0.216780 0.342793 0.396286
H13   H     H_    0.807518 0.227021 0.358012 0.107907
H14   H     H_    0.026424 0.251556 0.402478 0.115897
C7    C     C_3   0.939752 0.097735 0.323124 -0.848700
H15   H     H_    0.849211 0.059021 0.262934 0.280443
H16   H     H_    0.910962 0.057953 0.381856 0.223129
H17   H     H_    0.065871 0.086810 0.309884 0.250960
C8    C     C_3   0.813450 0.715120 0.729078 0.215805
H18   H     H_    0.908960 0.692077 0.688869 0.056168
H19   H     H_    0.727820 0.641706 0.736281 0.107359
C9    C     C_3   0.901092 0.772008 0.821812 0.244637
H20   H     H_    0.970371 0.851483 0.814796 0.131698
H21   H     H_    0.991815 0.725362 0.850812 0.013154
P4    P     P_3+3 0.190950 0.596470 0.708020 0.467547
O12   O     O_2   0.361790 0.564680 0.722290 -0.325805
O13   O     O_3   0.089410 0.561080 0.608830 -0.420406
O14   O     O_3   0.564100 0.365890 0.666740 -0.381857
O15   O     O_3   0.236080 0.736216 0.730524 -0.560674
P5    P     P_3+3 0.082697 0.168246 0.611937 0.444871
O16   O     O_3   0.601940 0.368260 0.453780 -0.380138
O17   O     O_3   0.133140 0.308990 0.620990 -0.384110
O18   O     O_2   0.200865 0.116360 0.555129 -0.383986
O19   O     O_3   0.123580 0.124547 0.716349 -0.570103
Ba2   Ba    Ba6+2 0.346080 0.449860 0.544400 1.568701
P6    P     P_3+3 0.583075 0.624955 0.215351 0.477287
C10   C     C_3   0.592656 0.830698 0.243512 0.383043
H22   H     H_    0.495758 0.798683 0.282563 0.043055
H23   H     H_    0.419253 0.856567 0.131063 0.249120
O20   O     O_3   0.587770 0.631830 0.546230 -0.384898
C11   C     C_3   0.396770 0.272933 0.269118 0.197509
H24   H     H_    0.288085 0.292910 0.299975 0.052308
H25   H     H_    0.490166 0.346818 0.274050 0.126370
C12   C     C_3   0.338575 0.226722 0.170693 0.214034
H26   H     H_    0.249987 0.150778 0.166146 0.109406
H27   H     H_    0.272324 0.283774 0.137420 0.039685
P7    P     P_3+3 0.506691 0.233063 0.425810 0.438174
O21   O     O_2   0.332600 0.233710 0.456170 -0.373345
O22   O     O_3   0.466057 0.194127 0.309812 -0.559898
H28   H     H_    0.087707 0.745113 0.065407 0.220019
C13   C     C_3   0.142466 0.211134 0.785766 0.149056
H29   H     H_    0.245752 0.273815 0.777451 0.153615
H30   H     H_    0.027319 0.245805 0.786359 0.092572
C14   C     C_3   0.184518 0.169482 0.875270 0.232577
H31   H     H_    0.094198 0.096759 0.877849 0.206097
H32   H     H_    0.306511 0.142579 0.877591 0.165131
P8    P     P_3+3 0.611075 0.385065 0.784984 0.422418
C15   C     C_3   0.645087 0.185540 0.772818 1.046126
O23   O     O_2   0.487460 0.450723 0.824396 -0.401968
O24   O     O_3   0.567212 0.260466 0.821214 -0.625923
H33   H     H_    0.757165 0.222089 0.747117 -0.131894
H34   H     H_    0.564468 0.048362 0.667061 0.222757
C16   C     C_3   0.522526 0.122937 0.693758 -0.901216
H35   H     H_    0.503780 0.171772 0.639046 0.258137
H36   H     H_    0.403432 0.101794 0.717287 0.278368
C17   C     C_R   0.361074 0.571669 0.171676 0.187285
H37   H     H_    0.328883 0.525112 0.301679 0.176235
H38   H     H_    0.496523 0.663515 0.039149 0.230292
C18   C     C_R   0.107736 0.472384 0.207104 0.270090
C19   C     C_R   0.925023 0.482131 0.768740 -0.519987
C20   C     C_R   0.823486 0.448970 0.829770 0.254729
C21   C     C_R   0.882776 0.462102 0.922617 -0.165273
C22   C     C_R   0.047215 0.512300 0.957183 0.081495
C23   C     C_R   0.145715 0.556148 0.893965 -0.077998
C24   C     C_R   0.117759 0.518741 0.051605 0.031842
C25   C     C_R   0.284500 0.571804 0.081074 -0.069232
C26   C     C_R   0.372053 0.620696 0.018751 -0.177133
C27   C     C_R   0.304162 0.613641 0.927909 -0.075870
C28   C     C_R   0.032637 0.468867 0.116614 -0.222968
C29   C     C_R   0.270144 0.524635 0.233081 -0.518641
C30   C     C_R   0.083514 0.538571 0.798244 0.217378
H39   H     H_    0.908908 0.425438 0.098600 0.181026
H40   H     H_    0.875978 0.468961 0.697273 0.178356
H41   H     H_    0.797473 0.432948 0.965943 0.143275
H42   H     H_    0.379911 0.651253 0.883786 0.232874
C31   C     C_R   0.771364 0.178796 0.527167 -0.542679
C32   C     C_R   0.419906 0.808353 0.464917 -0.527887
C33   C     C_R   0.389139 0.984711 0.429439 -0.201073
C34   C     C_R   0.323266 0.877605 0.427721 0.210751
C35   C     C_R   0.580165 0.846733 0.510903 0.298971
C36   C     C_R   0.647450 0.957661 0.515415 -0.096677
C37   C     C_R   0.550019 0.026895 0.473701 -0.056470
C38   C     C_R   0.614126 0.137818 0.481155 0.262007
C39   C     C_R   0.869938 0.111632 0.563056 0.270521
C40   C     C_R   0.807556 0.002864 0.561015 -0.138843
H43   H     H_    0.310872 0.034539 0.398038 0.182732
H44   H     H_    0.885673 0.955511 0.595219 0.188071
H45   H     H_    0.820698 0.263269 0.531472 0.170119
H46   H     H_    0.366431 0.724937 0.462293 0.171100
S1    S     S_3+6 0.757905 0.790188 0.899262 -0.020076
O25   O     O_2   0.592259 0.800009 0.849774 -0.238076
O26   O     O_2   0.739529 0.695281 0.949328 -0.354443
O27   O     O_3   0.832740 0.903124 0.972319 -0.489125
H47   H     H_    0.752419 0.906775 0.015698 0.361541
S2    S     S_3+6 0.510599 0.199351 0.115524 -0.002555
O28   O     O_2   0.627165 0.147261 0.173406 -0.252622
O29   O     O_2   0.445373 0.124532 0.029232 -0.292392
O30   O     O_3   0.615155 0.314173 0.093679 -0.550658
H48   H     H_    0.684841 0.290782 0.048511 0.380272
O31   O     O_3   0.178065 0.245425 0.951161 -0.600756
C41   C     C_3   0.310028 0.331606 0.960096 -0.022398
H49   H     H_    0.329611 0.375910 0.029211 0.158028
H50   H     H_    0.278802 0.387099 0.912862 0.130053
H51   H     H_    0.428757 0.305790 0.949190 0.205877
S3    S     S_3+6 0.705836 0.094491 0.846113 -0.011450
O32   O     O_2   0.803679 0.020410 0.798687 -0.301403
O33   O     O_2   0.809493 0.156066 0.931292 -0.280407
O34   O     O_3   0.535278 0.022014 0.871416 -0.505256
H52   H     H_    0.572162 0.994760 0.927913 0.421182

loop_
_geom_bond_atom_site_label_1
_geom_bond_atom_site_label_2
_geom_bond_distance
_ccdc_geom_bond_type
C21   C22   1.414944 A    
C32   H46   1.082077 S    
C35   C36   1.429114 A    
C19   H40   1.082506 S    
C14   H31   1.107700 S    
C25   C26   1.405640 A    
C33   H43   1.078731 S    
O8    Ba1   2.781334 S    
C31   C38   1.384489 A    
C4    C5    1.507797 S    
C15   S3    1.779738 S    
P4    C30   1.880993 S    
Ba2   O21   2.881257 S    
S2    O28   1.499243 D    
P3    O11   1.745544 S    
C5    H10   1.105919 S    
C2    H5    1.108345 S    
C16   H36   1.095035 S    
Ba1   O20   2.904483 S    
O11   C2    1.404395 S    
S3    O34   1.679254 S    
C15   C16   1.513188 S    
C23   C27   1.400134 A    
C39   C40   1.399514 A    
C6    C7    1.520463 S    
O14   P8    1.749723 S    
C11   O22   1.395117 S    
O1    Ba1   2.860535 S    
P1    O1    1.521319 D    
C31   H45   1.083118 S    
C4    O15   1.396931 S    
Ba1   O16   2.820554 S    
S1    O27   1.680178 S    
C11   H25   1.112728 S    
C21   H41   1.076662 S    
C17   C29   1.399544 A    
C8    C9    1.525632 S    
C2    H4    1.111966 S    
C32   C34   1.395815 A    
C41   H49   1.098972 S    
C12   H27   1.103746 S    
P2    O10   1.745190 S    
C1    H2    1.110990 S    
C9    S1    1.781365 S    
O6    C10   1.409454 S    
P5    O19   1.741573 S    
O19   C13   1.395652 S    
O16   P7    1.758211 S    
C23   C30   1.443700 A    
C33   C37   1.403602 A    
H1    C10   1.110732 S    
C8    H19   1.111204 S    
P2    Ba1   3.415371 S    
Ba1   Ba2   4.536334 S    
Ba1   O13   2.845359 S    
C22   C23   1.440164 A    
C13   C14   1.526922 S    
C18   C28   1.414853 A    
C36   C37   1.428631 A    
C14   O31   1.412058 S    
H37   C29   1.082002 S    
C7    H17   1.110278 S    
P4    O13   1.591559 S    
P1    O5    1.751401 S    
C2    C3    1.513145 S    
C16   H35   1.101743 S    
C13   H30   1.106931 S    
C19   C20   1.383130 A    
C15   O24   1.407233 S    
P7    O21   1.563762 D    
S2    O30   1.676492 S    
P8    C20   1.825014 S    
C4    H8    1.102486 S    
C28   H39   1.071165 S    
P5    C39   1.819180 S    
P6    C17   1.861537 S    
P1    O2    1.591558 S    
O10   C8    1.398624 S    
O3    P6    1.749601 S    
C9    H20   1.110563 S    
C18   C29   1.389438 A    
C11   H24   1.108994 S    
C9    H21   1.104203 S    
O2    Ba2   2.845958 S    
H34   C16   1.104625 S    
C24   C25   1.429077 A    
C6    H13   1.102371 S    
C22   C24   1.452629 A    
C14   H32   1.109191 S    
P3    C34   1.830867 S    
C31   C39   1.377592 A    
S1    O25   1.502297 D    
O3    Ba1   2.829092 S    
C41   H50   1.097904 S    
S3    O33   1.502668 D    
C8    H18   1.104304 S    
O12   Ba2   2.860956 S    
P2    O7    1.503166 D    
C12   H26   1.111695 S    
C1    H3    1.108389 S    
C3    H7    1.110778 S    
C10   H22   1.111272 S    
C19   C30   1.385380 A    
O31   C41   1.407379 S    
P1    C18   1.883687 S    
C3    H28   1.108923 S    
C36   C40   1.412096 A    
C37   C38   1.418245 A    
O17   Ba2   2.781965 S    
O13   Ba2   2.916685 S    
C27   H42   1.076257 S    
P4    O12   1.521621 D    
C1    C10   1.518181 S    
S2    O29   1.496995 D    
C11   C12   1.511657 S    
Ba2   O20   2.819924 S    
C5    H12   1.107892 S    
O7    Ba1   2.880985 S    
C13   H29   1.109345 S    
C15   H33   1.109682 S    
O34   H52   0.987846 S    
O5    C6    1.398855 S    
C4    H9    1.109239 S    
O14   Ba2   2.828439 S    
P4    O15   1.743579 S    
C32   C35   1.399633 A    
O4    P6    1.546179 D    
H38   C26   1.076703 S    
C1    H23   1.110131 S    
C12   S2    1.789581 S    
P5    O18   1.542895 D    
P3    O8    1.731533 S    
O30   H48   0.990450 S    
C33   C34   1.387275 A    
C7    H16   1.106651 S    
P2    O20   1.590037 S    
P8    O24   1.744852 S    
C41   H51   1.104331 S    
C24   C28   1.432917 A    
C5    H11   1.107313 S    
C20   C21   1.400639 A    
C6    H14   1.109673 S    
C40   H44   1.074387 S    
P8    O23   1.541217 D    
P1    Ba1   3.396407 S    
O2    Ba1   2.915854 S    
S1    O26   1.501984 D    
C7    H15   1.108086 S    
C26   C27   1.396252 A    
P3    O9    1.542860 D    
P4    Ba2   3.396950 S    
P7    O22   1.728378 S    
C3    H6    1.105429 S    
S3    O32   1.501772 D    
P5    O17   1.762787 S    
O6    P6    1.748136 S    
P2    C35   1.868718 S    
O16   Ba2   2.903580 S    
P7    C38   1.827314 S    
O27   H47   0.989777 S    
C17   C25   1.428186 A    
