data_mof_unit_11635.cif
_audit_creation_date              2012-12-11T15:35:53-0500
_audit_creation_method            fapswitch 2.2
_symmetry_space_group_name_H-M    P1
_symmetry_Int_Tables_number       1
_space_group_crystal_system       triclinic
_cell_length_a                    6.997123
_cell_length_b                    11.826071
_cell_length_c                    35.891968
_cell_angle_alpha                 89.945667
_cell_angle_beta                  90.593627
_cell_angle_gamma                 89.729817
_cell_volume                      2969.81165643

loop_
_atom_site_label
_atom_site_type_symbol
_atom_type_description
_atom_site_fract_x
_atom_site_fract_y
_atom_site_fract_z
_atom_type_partial_charge
O1    O     O_R   0.379730 0.148600 0.662710 -0.539362
O2    O     O_R   0.620270 0.851400 0.337290 -0.537679
O3    O     O_R   0.120270 0.648600 0.337290 -0.537086
O4    O     O_R   0.879730 0.351400 0.662710 -0.539421
O5    O     O_R   0.722480 0.134490 0.741330 -0.536428
O6    O     O_R   0.277520 0.865510 0.258670 -0.540337
O7    O     O_R   0.777520 0.634490 0.258670 -0.544492
O8    O     O_R   0.222480 0.365510 0.741330 -0.536459
O9    O     O_R   0.892880 0.345890 0.741600 -0.534686
O10   O     O_R   0.107120 0.654110 0.258400 -0.538363
O11   O     O_R   0.607120 0.845890 0.258400 -0.539575
O12   O     O_R   0.392880 0.154110 0.741600 -0.534523
C1    C     C_R   0.553032 0.110024 0.753879 0.694308
C2    C     C_R   0.445537 0.881961 0.244260 0.697048
C3    C     C_R   0.946288 0.617793 0.244271 0.699767
C4    C     C_R   0.052604 0.389864 0.753854 0.694213
O13   O     O_R   0.709490 0.135560 0.662990 -0.540425
O14   O     O_R   0.290510 0.864440 0.337010 -0.538997
O15   O     O_R   0.790510 0.635560 0.337010 -0.539285
O16   O     O_R   0.209490 0.364440 0.662990 -0.540171
C5    C     C_R   0.540667 0.107262 0.651004 0.694306
C6    C     C_R   0.459323 0.892671 0.349018 0.704031
C7    C     C_R   0.959852 0.607230 0.348985 0.704577
C8    C     C_R   0.040135 0.392838 0.651038 0.694261
O17   O     O_3   0.552800 0.316610 0.702160 -0.366109
O18   O     O_3   0.447200 0.683390 0.297840 -0.367344
O19   O     O_3   0.947200 0.816610 0.297840 -0.367395
O20   O     O_3   0.052800 0.183390 0.702160 -0.366156
V1    V     V_3+5 0.827630 0.234380 0.702160 1.426529
V2    V     V_3+5 0.172370 0.765620 0.297840 1.419282
V3    V     V_3+5 0.672370 0.734380 0.297840 1.413460
V4    V     V_3+5 0.327630 0.265620 0.702160 1.426008
C9    C     C_R   0.990104 0.685616 0.908724 0.539328
C10   C     C_R   0.989844 0.392172 0.073966 0.565234
C11   C     C_R   0.485200 0.105957 0.073751 0.564200
C12   C     C_R   0.489389 0.812964 0.908819 0.539577
O21   O     O_2   0.963686 0.575079 0.916261 -0.551789
O22   O     O_2   0.984518 0.504359 0.067312 -0.550605
O23   O     O_2   0.494028 0.993780 0.067309 -0.550864
O24   O     O_2   0.460115 0.923307 0.916422 -0.551759
N1    N     N_R   0.015902 0.721206 0.872539 -0.542254
N2    N     N_R   0.985653 0.352665 0.110009 -0.541251
N3    N     N_R   0.470068 0.145367 0.109655 -0.543876
N4    N     N_R   0.515400 0.777829 0.872582 -0.541902
C13   C     C_R   0.035154 0.835250 0.865469 0.538304
C14   C     C_R   0.992287 0.238449 0.116654 0.574774
C15   C     C_R   0.455025 0.259350 0.116062 0.555505
C16   C     C_R   0.535968 0.663798 0.865423 0.537384
C17   C     C_R   0.930005 0.656280 0.807735 -0.035818
C18   C     C_R   0.829430 0.406498 0.168936 -0.114715
C19   C     C_R   0.601138 0.091336 0.171590 -0.106124
C20   C     C_R   0.430677 0.843665 0.807678 -0.035559
C21   C     C_R   0.935258 0.574635 0.779358 -0.192951
C22   C     C_R   0.821724 0.467606 0.202017 -0.189857
C23   C     C_R   0.592943 0.030242 0.204754 -0.189441
C24   C     C_R   0.436899 0.925298 0.779260 -0.194406
C25   C     C_R   0.139156 0.456668 0.817759 -0.185841
C26   C     C_R   0.091355 0.577888 0.181882 -0.209690
C27   C     C_R   0.331784 0.921245 0.179167 -0.205911
C28   C     C_R   0.638044 0.042614 0.817957 -0.185276
C29   C     C_R   0.128090 0.536205 0.846519 -0.077284
C30   C     C_R   0.093960 0.518337 0.148046 -0.061429
C31   C     C_R   0.346195 0.979897 0.145303 -0.066919
C32   C     C_R   0.625935 0.963097 0.846760 -0.079728
C33   C     C_R   0.024889 0.638281 0.842192 0.323364
C34   C     C_R   0.967320 0.428423 0.141753 0.376198
C35   C     C_R   0.475373 0.069606 0.141651 0.371489
C36   C     C_R   0.523955 0.861203 0.842292 0.323493
C37   C     C_R   0.009194 0.879622 0.931530 -0.020980
C38   C     C_R   0.988433 0.198399 0.050380 -0.047372
C39   C     C_R   0.493776 0.299779 0.050256 -0.047050
C40   C     C_R   0.514798 0.618848 0.931512 -0.020647
C41   C     C_R   0.986093 0.763550 0.938470 -0.045675
C42   C     C_R   0.998057 0.315521 0.043607 -0.033988
C43   C     C_R   0.493862 0.182612 0.043372 -0.031599
C44   C     C_R   0.488687 0.734764 0.938566 -0.045859
C45   C     C_R   0.958787 0.727053 0.975040 -0.114251
C46   C     C_R   0.011851 0.353111 0.006777 -0.124716
C47   C     C_R   0.505798 0.145035 0.006494 -0.123723
C48   C     C_R   0.460981 0.770659 0.975237 -0.112226
C49   C     C_R   0.037810 0.915223 0.894729 0.003385
C50   C     C_R   0.977108 0.160669 0.087319 -0.058073
C51   C     C_R   0.480962 0.337668 0.087168 -0.057563
C52   C     C_R   0.541103 0.583480 0.894630 0.003555
C53   C     C_R   0.041150 0.474556 0.784078 -0.048048
C54   C     C_R   0.955853 0.552017 0.209338 -0.049308
C55   C     C_R   0.454106 0.947109 0.209293 -0.041180
C56   C     C_R   0.542109 0.024989 0.784078 -0.047746
H1    H     H_    0.221736 0.379958 0.822098 0.112663
H2    H     H_    0.193133 0.645313 0.186344 0.115255
H3    H     H_    0.227577 0.854343 0.181624 0.110600
H4    H     H_    0.719601 0.119154 0.822428 0.112419
H5    H     H_    0.940140 0.638269 0.981349 0.167645
H6    H     H_    0.017925 0.442574 0.000525 0.161839
H7    H     H_    0.505721 0.055558 0.000181 0.162448
H8    H     H_    0.436594 0.859005 0.981569 0.166928
C57   C     C_R   0.972329 0.001304 0.028134 0.046072
C58   C     C_R   0.024885 0.077287 0.953637 0.040956
C59   C     C_R   0.533217 0.420925 0.953503 0.041846
C60   C     C_R   0.499814 0.497106 0.028245 0.047877
C61   C     C_R   0.012905 0.157691 0.983296 0.026665
C62   C     C_R   0.975623 0.921555 0.998366 0.011170
C63   C     C_R   0.493251 0.576635 0.998469 0.008768
C64   C     C_R   0.519400 0.340402 0.983132 0.026180
C65   C     C_R   0.991252 0.118857 0.020445 0.067715
C66   C     C_R   0.003276 0.959857 0.961298 0.075042
C67   C     C_R   0.513896 0.538461 0.961265 0.076829
C68   C     C_R   0.504628 0.379292 0.020394 0.067802
C69   C     C_R   0.949013 0.967814 0.065660 -0.103230
C70   C     C_R   0.060394 0.109692 0.916382 -0.173986
C71   C     C_R   0.566076 0.388559 0.916171 -0.174407
C72   C     C_R   0.504498 0.531379 0.065941 -0.102675
C73   C     C_R   0.950909 0.046022 0.094454 -0.152783
C74   C     C_R   0.066845 0.030441 0.887686 -0.113432
C75   C     C_R   0.570820 0.468156 0.887487 -0.113670
C76   C     C_R   0.496217 0.452975 0.094689 -0.149106
O25   O     O_2   0.020788 0.199743 0.151652 -0.523134
O26   O     O_2   0.050328 0.872978 0.830238 -0.559199
O27   O     O_2   0.550266 0.626384 0.830156 -0.559415
O28   O     O_2   0.408298 0.297171 0.150264 -0.521649
C77   C     C_R   0.953641 0.803835 0.004308 -0.163459
C78   C     C_R   0.020194 0.276251 0.977282 -0.159322
C79   C     C_R   0.517956 0.221904 0.976999 -0.161117
C80   C     C_R   0.462786 0.693588 0.004544 -0.164921
H9    H     H_    0.713546 0.446854 0.222255 0.141154
H10   H     H_    0.858353 0.590279 0.753503 0.115953
H11   H     H_    0.361103 0.909978 0.753299 0.115901
H12   H     H_    0.691644 0.050148 0.227236 0.132067
H13   H     H_    0.729995 0.339612 0.164828 0.153878
H14   H     H_    0.844687 0.731488 0.803037 0.169565
H15   H     H_    0.345882 0.768826 0.802853 0.170522
H16   H     H_    0.703263 0.157791 0.169659 0.157286
H17   H     H_    0.931532 0.015758 0.122661 0.149737
H18   H     H_    0.093331 0.060369 0.859680 0.154696
H19   H     H_    0.595748 0.438397 0.859407 0.154440
H20   H     H_    0.503474 0.483302 0.123113 0.144852
H21   H     H_    0.930052 0.881417 0.074145 0.118962
H22   H     H_    0.086194 0.195995 0.908364 0.114824
H23   H     H_    0.591529 0.302052 0.908177 0.114914
H24   H     H_    0.518684 0.618491 0.074243 0.117952
H25   H     H_    0.931102 0.767049 0.031306 0.144710
H26   H     H_    0.029347 0.313079 0.949918 0.142695
H27   H     H_    0.522672 0.185441 0.949533 0.143001
H28   H     H_    0.434540 0.728341 0.031683 0.144612
C81   C     C_R   0.967164 0.527820 0.380060 -0.039811
C82   C     C_R   0.032774 0.472290 0.619979 -0.036700
C83   C     C_R   0.534446 0.027886 0.619963 -0.036597
C84   C     C_R   0.465505 0.972000 0.380077 -0.039879
C85   C     C_R   0.907681 0.342060 0.405031 -0.167955
C86   C     C_R   0.091882 0.658116 0.595028 -0.167518
C87   C     C_R   0.594921 0.841883 0.595120 -0.167403
C88   C     C_R   0.404752 0.157950 0.404939 -0.167757
C89   C     C_R   0.919066 0.414637 0.374621 -0.180811
C90   C     C_R   0.080588 0.585508 0.625434 -0.184221
C91   C     C_R   0.583464 0.914570 0.625476 -0.183953
C92   C     C_R   0.416296 0.085294 0.374580 -0.181513
C93   C     C_R   0.003131 0.568902 0.415881 -0.219853
C94   C     C_R   0.996907 0.431217 0.584156 -0.218703
C95   C     C_R   0.497749 0.068999 0.584117 -0.218822
C96   C     C_R   0.502244 0.930867 0.415921 -0.219690
C97   C     C_R   0.986500 0.498104 0.447449 0.080807
C98   C     C_R   0.013328 0.502058 0.552596 0.080020
C99   C     C_R   0.514355 0.998060 0.552599 0.080192
C100  C     C_R   0.485475 0.001770 0.447447 0.080951
C101  C     C_R   0.938844 0.382910 0.441285 0.127396
C102  C     C_R   0.060820 0.617270 0.558768 0.127635
C103  C     C_R   0.562807 0.882721 0.558843 0.127842
C104  C     C_R   0.436913 0.117099 0.441210 0.127655
C105  C     C_R   0.011354 0.538289 0.484755 0.051471
C106  C     C_R   0.988425 0.461887 0.515291 0.051417
C107  C     C_R   0.488516 0.038201 0.515266 0.051441
C108  C     C_R   0.511266 0.961616 0.484782 0.051435
C109  C     C_R   0.942567 0.347830 0.507498 -0.195992
C110  C     C_R   0.057078 0.652363 0.492551 -0.195908
C111  C     C_R   0.557735 0.847399 0.492657 -0.195863
C112  C     C_R   0.441944 0.152405 0.507393 -0.195930
C113  C     C_R   0.918898 0.309560 0.471276 -0.197457
C114  C     C_R   0.080672 0.690639 0.528777 -0.197450
C115  C     C_R   0.582396 0.809176 0.528906 -0.197409
C116  C     C_R   0.417238 0.190627 0.471148 -0.197473
H29   H     H_    0.882644 0.221528 0.466733 0.141258
H30   H     H_    0.116788 0.778689 0.533324 0.141203
H31   H     H_    0.619080 0.721006 0.533512 0.141305
H32   H     H_    0.380454 0.278784 0.466545 0.141361
H33   H     H_    0.963670 0.342648 0.582070 0.098658
H34   H     H_    0.036635 0.657439 0.417960 0.098564
H35   H     H_    0.536735 0.842271 0.418055 0.098568
H36   H     H_    0.463439 0.157617 0.581978 0.098632
H37   H     H_    0.870078 0.254370 0.400291 0.128517
H38   H     H_    0.129308 0.745828 0.599775 0.127992
H39   H     H_    0.633143 0.754077 0.599919 0.128140
H40   H     H_    0.366411 0.245742 0.400148 0.128853
H41   H     H_    0.922620 0.284945 0.528751 0.130173
H42   H     H_    0.076878 0.715264 0.471297 0.130226
H43   H     H_    0.577281 0.784340 0.471448 0.130292
H44   H     H_    0.422281 0.215454 0.528601 0.130242
H45   H     H_    0.111005 0.617193 0.653171 0.105331
H46   H     H_    0.888502 0.382950 0.346891 0.108897
H47   H     H_    0.385194 0.117046 0.346838 0.109986
H48   H     H_    0.614481 0.882831 0.653223 0.105285
H49   H     H_    0.201245 0.517245 0.872276 0.148214
H50   H     H_    0.195657 0.541820 0.127195 0.133379
H51   H     H_    0.255362 0.955994 0.122313 0.135955
H52   H     H_    0.697450 0.981916 0.872655 0.148405

loop_
_geom_bond_atom_site_label_1
_geom_bond_atom_site_label_2
_ccdc_geom_bond_type
C13   O26   S    
C26   C30   A    
C103  C115  A    
C107  C108  A    
C94   H33   S    
O1    C5    A    
C58   C70   A    
C23   H12   S    
C96   C100  A    
O13   V1    S    
C105  C106  A    
C72   H24   S    
O3    C7    A    
C10   N2    A    
C72   C76   A    
C40   C44   A    
C83   C95   A    
C28   C56   A    
C76   H20   S    
C71   H23   S    
C64   C79   A    
C7    C81   S    
C11   C43   A    
C18   C22   A    
C31   H51   S    
C32   C36   A    
O20   V1    S    
O9    C4    A    
C2    C55   S    
O10   C3    A    
N2    C14   A    
O4    C8    A    
O11   C2    A    
C113  H29   S    
C24   C56   A    
O6    C2    A    
C86   C102  A    
C101  C113  A    
C69   H21   S    
C84   C96   A    
C24   H11   S    
C5    C83   S    
C85   C89   A    
C30   H50   S    
C12   C44   A    
C29   H49   S    
C98   C102  A    
C88   C92   A    
C98   C106  A    
C49   C74   A    
C38   C42   A    
C105  C110  A    
C37   C41   A    
C102  C114  A    
C71   C75   A    
C15   C51   A    
C48   H8    S    
C62   C77   A    
C11   N3    A    
O15   V3    S    
C70   C74   A    
C86   C90   A    
O5    C1    A    
C57   C62   A    
C20   C36   A    
C108  C111  A    
O9    V1    S    
C97   C105  A    
O17   V4    S    
O7    C3    A    
C59   C64   A    
C32   H52   S    
O11   V3    S    
O18   V3    S    
O8    C4    A    
C73   H17   S    
C39   C68   A    
O12   V4    S    
O19   V2    S    
C61   C65   A    
C21   C53   A    
C48   C80   A    
C38   C50   A    
C63   C80   A    
C26   C54   A    
C111  H43   S    
C88   C104  A    
C16   O27   S    
C39   C51   A    
C28   H4    S    
O17   V1    S    
C22   H9    S    
C31   C35   A    
C60   C68   A    
O7    V3    S    
C30   C34   A    
C107  C112  A    
O19   V3    S    
O8    V4    S    
C115  H31   S    
C14   C50   A    
C12   O24   S    
C85   C101  A    
C93   H34   S    
C27   C55   A    
C22   C54   A    
C90   H45   S    
C94   C98   A    
O15   C7    A    
C19   C35   A    
C89   H46   S    
C104  C116  A    
C47   C79   A    
C60   C63   A    
O13   C5    A    
C16   C52   A    
C14   O25   S    
O2    V3    S    
C95   H36   S    
O3    V2    S    
C11   O23   S    
C47   H7    S    
C17   C33   A    
C18   H13   S    
C77   H25   S    
C86   H38   S    
C81   C93   A    
O10   V2    S    
C82   C90   A    
C40   C67   A    
O20   V4    S    
C99   C103  A    
C19   H16   S    
C59   C71   A    
C87   H39   S    
C74   H18   S    
C27   H3    S    
C112  H44   S    
C25   C29   A    
C26   H2    S    
C40   C52   A    
C25   H1    S    
C10   C42   A    
C37   C49   A    
O14   V2    S    
C100  C104  A    
C9    C41   A    
C15   O28   S    
O6    V2    S    
C6    C84   S    
O18   V2    S    
C52   C75   A    
C87   C91   A    
C3    C54   S    
C109  H41   S    
C4    C53   S    
C95   C99   A    
N4    C36   S    
C92   H47   S    
C43   C47   A    
C78   H26   S    
O5    V1    S    
C93   C97   A    
C64   C68   A    
C99   C107  A    
O16   V4    S    
C81   C89   A    
C100  C108  A    
C110  C114  A    
N1    C13   A    
C110  H42   S    
C10   O22   S    
C20   H15   S    
C27   C31   A    
C51   C76   A    
C12   N4    A    
C13   C49   A    
C44   C48   A    
C50   C73   A    
C38   C65   A    
O4    V1    S    
N1    C33   S    
C37   C66   A    
C18   C34   A    
C60   C72   A    
C82   C94   A    
C87   C103  A    
C69   C73   A    
C83   C91   A    
C114  H30   S    
C58   C61   A    
C59   C67   A    
C17   H14   S    
C111  C115  A    
C85   H37   S    
C61   C78   A    
C58   C66   A    
C28   C32   A    
C9    N1    A    
O14   C6    A    
C57   C69   A    
C57   C65   A    
C88   H40   S    
N4    C16   A    
C8    C82   S    
O2    C6    A    
C39   C43   A    
C75   H19   S    
C46   H6    S    
C17   C21   A    
C1    C56   S    
C45   H5    S    
C25   C53   A    
C62   C66   A    
C19   C23   A    
O1    V4    S    
C29   C33   A    
C23   C55   A    
C46   C78   A    
C9    O21   S    
C45   C77   A    
C21   H10   S    
C70   H22   S    
C116  H32   S    
C112  C116  A    
O12   C1    A    
N3    C35   S    
C42   C46   A    
C79   H27   S    
N2    C34   S    
C41   C45   A    
C80   H28   S    
C63   C67   A    
C84   C92   A    
C96   H35   S    
C109  C113  A    
N3    C15   A    
O16   C8    A    
C97   C101  A    
C91   H48   S    
C20   C24   A    
C106  C109  A    
