data_mof_unit_18783.cif
_audit_creation_date              2012-12-11T16:23:29-0500
_audit_creation_method            fapswitch 2.2
_symmetry_space_group_name_H-M    P1
_symmetry_Int_Tables_number       1
_space_group_crystal_system       triclinic
_cell_length_a                    20.05405
_cell_length_b                    7.201323
_cell_length_c                    19.819817
_cell_angle_alpha                 90.585129
_cell_angle_beta                  98.935788
_cell_angle_gamma                 90.697712
_cell_volume                      2827.13113625

loop_
_atom_site_label
_atom_site_type_symbol
_atom_type_description
_atom_site_fract_x
_atom_site_fract_y
_atom_site_fract_z
_atom_type_partial_charge
O1    O     O_R   0.188410 0.619490 0.310050 -0.529928
O2    O     O_R   0.811590 0.380510 0.689950 -0.534204
O3    O     O_R   0.311590 0.119490 0.189950 -0.536841
O4    O     O_R   0.688410 0.880510 0.810050 -0.539224
O5    O     O_R   0.327280 0.288800 0.321740 -0.543578
O6    O     O_R   0.672720 0.711200 0.678260 -0.544883
O7    O     O_R   0.172720 0.788800 0.178260 -0.520076
O8    O     O_R   0.827280 0.211200 0.821740 -0.515873
C1    C     C_R   0.350865 0.459702 0.339236 0.800580
C2    C     C_R   0.649240 0.540442 0.660838 0.786788
C3    C     C_R   0.147953 0.955866 0.161714 0.768551
C4    C     C_R   0.851908 0.043930 0.838335 0.768483
O9    O     O_R   0.189900 0.289710 0.318190 -0.548858
O10   O     O_R   0.810100 0.710290 0.681810 -0.544315
O11   O     O_R   0.310100 0.789710 0.181810 -0.541550
O12   O     O_R   0.689900 0.210290 0.818190 -0.542556
O13   O     O_R   0.173230 0.120350 0.186370 -0.525944
O14   O     O_R   0.826770 0.879650 0.813630 -0.514973
O15   O     O_R   0.326770 0.620350 0.313630 -0.529494
O16   O     O_R   0.673230 0.379650 0.686370 -0.539792
C5    C     C_R   0.169758 0.457290 0.334552 0.689509
C6    C     C_R   0.831010 0.542737 0.666646 0.720538
C7    C     C_R   0.329033 0.957923 0.164476 0.684357
C8    C     C_R   0.670184 0.042153 0.834340 0.678192
O17   O     O_3   0.244690 0.453290 0.206760 -0.373377
O18   O     O_3   0.755310 0.546710 0.793240 -0.366005
O19   O     O_3   0.255310 0.953290 0.293240 -0.379675
O20   O     O_3   0.744690 0.046710 0.706760 -0.387536
V1    V     V_3+5 0.250980 0.178070 0.258020 1.426667
V2    V     V_3+5 0.749020 0.821930 0.741980 1.440522
V3    V     V_3+5 0.249020 0.678070 0.241980 1.465839
V4    V     V_3+5 0.750980 0.321930 0.758020 1.471144
C9    C     C_R   0.456191 0.149581 0.058693 -0.162546
C10   C     C_R   0.519311 0.891564 0.914466 -0.154649
C11   C     C_R   0.036903 0.644607 0.434373 -0.161696
C12   C     C_R   0.926085 0.364531 0.528265 -0.148563
H1    H     H_    0.479474 0.283981 0.053841 0.111924
H2    H     H_    0.478303 0.792682 0.901112 0.114699
H3    H     H_    0.011044 0.774923 0.437303 0.117110
H4    H     H_    0.924630 0.240794 0.496532 0.118686
C13   C     C_R   0.410922 0.133716 0.105294 -0.195688
C14   C     C_R   0.568434 0.901436 0.871731 -0.215334
C15   C     C_R   0.084386 0.629373 0.389920 -0.187697
C16   C     C_R   0.880703 0.378193 0.574928 -0.222525
H5    H     H_    0.403471 0.254240 0.136097 0.150276
H6    H     H_    0.564119 0.808236 0.827983 0.165269
H7    H     H_    0.092859 0.748154 0.359389 0.148487
H8    H     H_    0.845611 0.264087 0.577824 0.143218
C17   C     C_R   0.375902 0.966443 0.112457 -0.065616
C18   C     C_R   0.620835 0.034364 0.883117 -0.054641
C19   C     C_R   0.119256 0.463195 0.383352 -0.066568
C20   C     C_R   0.880020 0.536587 0.617024 -0.071578
C21   C     C_R   0.386928 0.813187 0.069556 0.148486
C22   C     C_R   0.623600 0.158281 0.939751 0.151030
C23   C     C_R   0.103304 0.307476 0.422503 0.143948
C24   C     C_R   0.926987 0.683674 0.611159 0.156113
C25   C     C_R   0.435734 0.828315 0.025895 -0.134549
C26   C     C_R   0.575806 0.140264 0.984361 -0.136665
C27   C     C_R   0.055371 0.325681 0.467029 -0.138849
C28   C     C_R   0.971961 0.667905 0.563514 -0.137383
H9    H     H_    0.446494 0.706567 0.997291 0.105609
H10   H     H_    0.580751 0.229739 0.029048 0.107773
H11   H     H_    0.044462 0.208501 0.497615 0.105044
H12   H     H_    0.008308 0.778538 0.559891 0.105762
C29   C     C_R   0.470847 0.995799 0.019410 0.064238
C30   C     C_R   0.522497 0.009275 0.972122 0.057754
C31   C     C_R   0.021953 0.493068 0.473569 0.060924
C32   C     C_R   0.972200 0.509204 0.521955 0.061357
C33   C     C_R   0.086652 0.954411 0.107939 -0.229928
C34   C     C_R   0.912784 0.044561 0.892367 -0.239891
C35   C     C_R   0.412795 0.471641 0.391383 -0.208914
C36   C     C_R   0.587592 0.528957 0.608719 -0.224621
C37   C     C_R   0.020425 0.187020 0.943158 -0.254675
C38   C     C_R   0.978128 0.816048 0.057677 -0.260905
C39   C     C_R   0.464995 0.533124 0.580652 -0.227302
C40   C     C_R   0.535482 0.467439 0.419788 -0.256868
C41   C     C_R   0.966199 0.171965 0.888921 0.370370
C42   C     C_R   0.034876 0.819788 0.109961 0.360854
C43   C     C_R   0.523799 0.537518 0.629533 0.325461
C44   C     C_R   0.476555 0.462388 0.370317 0.346474
C45   C     C_R   0.916340 0.926636 0.949381 0.348846
C46   C     C_R   0.082383 0.075740 0.051681 0.329060
C47   C     C_R   0.591984 0.510878 0.538473 0.327549
C48   C     C_R   0.408472 0.494235 0.461584 0.322844
C49   C     C_R   0.973253 0.935822 0.001969 -0.040644
C50   C     C_R   0.025443 0.067595 0.999166 -0.060191
C51   C     C_R   0.532190 0.494386 0.489555 -0.038407
C52   C     C_R   0.468182 0.507885 0.510667 -0.045239
H13   H     H_    0.059091 0.291853 0.940680 0.170471
H14   H     H_    0.937074 0.719420 0.060452 0.157833
H15   H     H_    0.416782 0.546909 0.598225 0.175734
H16   H     H_    0.584107 0.450981 0.403435 0.164942
C53   C     C_3   0.346795 0.633987 0.066998 -0.778452
H17   H     H_    0.291954 0.663712 0.057217 0.207411
H18   H     H_    0.357565 0.539803 0.025389 0.196586
H19   H     H_    0.359551 0.558090 0.115509 0.221569
C54   C     C_3   0.675999 0.311394 0.953864 -0.778171
H20   H     H_    0.666242 0.418301 0.913788 0.222143
H21   H     H_    0.674588 0.381347 0.003812 0.196116
H22   H     H_    0.727351 0.256023 0.954920 0.193710
C55   C     C_3   0.135324 0.120157 0.418478 -0.745872
H23   H     H_    0.190981 0.132722 0.430660 0.212708
H24   H     H_    0.118856 0.020400 0.455171 0.187846
H25   H     H_    0.120447 0.060371 0.366487 0.214232
C56   C     C_3   0.932754 0.854752 0.656459 -0.774062
H26   H     H_    0.938221 0.814474 0.710960 0.204419
H27   H     H_    0.977572 0.941372 0.650312 0.191250
H28   H     H_    0.887608 0.942425 0.643077 0.219821
O21   O     O_3   0.134209 0.202104 0.047907 -0.546925
C57   C     C_3   0.183146 0.115561 0.014500 0.105539
H29   H     H_    0.161554 0.076168 0.960995 0.108481
H30   H     H_    0.203474 0.989251 0.042039 0.088806
C58   C     C_3   0.241631 0.250399 0.012530 -0.709646
H31   H     H_    0.264058 0.291953 0.065348 0.240321
H32   H     H_    0.281003 0.183278 0.987327 0.180144
H33   H     H_    0.223617 0.376101 0.983577 0.211721
O22   O     O_3   0.865073 0.798168 0.952758 -0.540932
C59   C     C_3   0.814962 0.883564 0.984684 0.101662
H34   H     H_    0.794236 0.006205 0.955519 0.085825
H35   H     H_    0.835481 0.927491 0.038000 0.112085
C60   C     C_3   0.757267 0.746356 0.986894 -0.695308
H36   H     H_    0.775977 0.622546 0.016627 0.212933
H37   H     H_    0.717235 0.812536 0.011412 0.177787
H38   H     H_    0.735433 0.702457 0.934170 0.236466
O23   O     O_3   0.345989 0.516591 0.481687 -0.557458
C61   C     C_3   0.321809 0.342004 0.499847 0.067536
H39   H     H_    0.361224 0.261626 0.532815 0.118992
H40   H     H_    0.303220 0.258653 0.453081 0.127939
C62   C     C_3   0.263754 0.372041 0.539673 -0.712827
H41   H     H_    0.223602 0.453704 0.508939 0.233984
H42   H     H_    0.242324 0.236038 0.552161 0.182537
H43   H     H_    0.282133 0.448934 0.587972 0.216529
O24   O     O_3   0.654787 0.502597 0.517918 -0.560008
C63   C     C_3   0.674519 0.683904 0.501786 0.068383
H44   H     H_    0.686991 0.770251 0.549011 0.136264
H45   H     H_    0.634372 0.753784 0.466001 0.119590
C64   C     C_3   0.737020 0.673257 0.467315 -0.708109
H46   H     H_    0.725620 0.590715 0.419166 0.216222
H47   H     H_    0.753534 0.815248 0.455299 0.179432
H48   H     H_    0.778565 0.606654 0.501666 0.230847
O25   O     O_3   0.039416 0.703512 0.166378 -0.550465
C65   C     C_3   0.012050 0.523951 0.148984 0.094997
H49   H     H_    0.025069 0.472616 0.099392 0.144271
H50   H     H_    0.956357 0.524302 0.147045 0.114753
C66   C     C_3   0.040502 0.388417 0.203695 -0.658936
H51   H     H_    0.026515 0.430573 0.253620 0.205301
H52   H     H_    0.020083 0.246586 0.190111 0.165247
H53   H     H_    0.096130 0.387126 0.207531 0.242726
O26   O     O_3   0.964071 0.285401 0.832634 -0.537839
C67   C     C_3   0.017624 0.239794 0.796979 0.076353
H54   H     H_    0.021728 0.086514 0.790065 0.107583
H55   H     H_    0.066333 0.296787 0.824266 0.119414
C68   C     C_3   0.004803 0.325295 0.726578 -0.689950
H56   H     H_    0.000915 0.478433 0.731190 0.224391
H57   H     H_    0.046781 0.292319 0.698112 0.173110
H58   H     H_    0.957082 0.267383 0.697961 0.227269
O27   O     O_3   0.479368 0.439216 0.301057 -0.555389
C69   C     C_3   0.527215 0.562262 0.279440 0.089563
H59   H     H_    0.577790 0.497324 0.286849 0.125473
H60   H     H_    0.530327 0.698799 0.307053 0.116649
C70   C     C_3   0.506860 0.600347 0.203835 -0.707712
H61   H     H_    0.456876 0.667646 0.195554 0.225650
H62   H     H_    0.544464 0.694795 0.185910 0.181381
H63   H     H_    0.504097 0.468598 0.173916 0.216813
O28   O     O_3   0.519092 0.560828 0.697981 -0.558340
C71   C     C_3   0.503332 0.387217 0.724524 0.091477
H64   H     H_    0.540107 0.279253 0.714464 0.121955
H65   H     H_    0.451396 0.340838 0.701952 0.119662
C72   C     C_3   0.506483 0.405542 0.801489 -0.709230
H66   H     H_    0.470135 0.511290 0.813592 0.213616
H67   H     H_    0.493419 0.270253 0.822807 0.191577
H68   H     H_    0.558225 0.447803 0.825582 0.220056

loop_
_geom_bond_atom_site_label_1
_geom_bond_atom_site_label_2
_ccdc_geom_bond_type
C26   H10   S    
C47   C51   A    
C51   C52   A    
O1    C5    A    
O28   C71   S    
C23   C27   A    
O19   V1    S    
O13   V1    S    
C72   H66   S    
C56   H26   S    
O3    C7    A    
C10   C14   A    
O4    V2    S    
O15   V3    S    
C10   C30   A    
C63   C64   S    
C54   H20   S    
C9    C29   A    
C49   C50   A    
O7    C3    A    
C64   H47   S    
C53   H17   S    
O9    V1    S    
C58   H31   S    
C36   C43   A    
C66   H51   S    
O4    C8    A    
C7    C17   S    
C45   O22   S    
O1    V3    S    
O2    V4    S    
C14   H6    S    
O3    V1    S    
C34   C45   A    
C37   C41   A    
C59   H34   S    
C60   H38   S    
C33   C46   A    
C69   C70   S    
C70   H62   S    
C57   H29   S    
O25   C65   S    
C26   C30   A    
O27   C69   S    
C2    O16   A    
C67   C68   S    
O2    C6    A    
C22   C54   S    
O14   V2    S    
C47   O24   S    
C68   H57   S    
C11   C15   A    
C19   C23   A    
C39   H15   S    
C62   H43   S    
C27   C31   A    
C16   C20   A    
O11   C7    A    
O23   C61   S    
O12   C8    A    
C34   C41   A    
C71   H65   S    
C72   H67   S    
C65   C66   S    
C33   C42   A    
O10   V2    S    
O16   V4    S    
C13   C17   A    
C35   C44   A    
C54   H21   S    
C55   H23   S    
C1    O15   A    
C70   H61   S    
O5    V1    S    
C8    C18   S    
C37   C50   A    
C64   H48   S    
O7    V3    S    
C66   H52   S    
C21   C53   S    
C31   C32   S    
O8    V4    S    
C46   O21   S    
C40   C44   A    
C12   H4    S    
O21   C57   S    
C42   O25   S    
C41   O26   S    
C21   C25   A    
O18   V4    S    
C63   H45   S    
C61   C62   S    
C46   C50   A    
O10   C6    A    
C9    H1    S    
C24   C28   A    
C59   C60   S    
C35   C48   A    
C11   H3    S    
O5    C1    A    
C56   H27   S    
C40   C51   A    
C11   C31   A    
O8    C4    A    
C3    C33   S    
O9    C5    A    
C18   C22   A    
C56   H28   S    
C43   O28   S    
C68   H58   S    
O11   V3    S    
C57   C58   S    
C60   H36   S    
C14   C18   A    
C59   H35   S    
O6    V2    S    
C40   H16   S    
C53   H19   S    
C69   H59   S    
C72   H68   S    
C65   H50   S    
C12   C16   A    
C5    C19   S    
C66   H53   S    
C70   H63   S    
C6    C20   S    
C62   H41   S    
C22   C26   A    
C48   O23   S    
C4    C34   S    
C3    O13   A    
C61   H40   S    
C54   H22   S    
C1    C35   S    
C10   H2    S    
O17   V3    S    
C48   C52   A    
C25   C29   A    
O6    C2    A    
C12   C32   A    
C25   H9    S    
C63   H44   S    
O12   V4    S    
C64   H46   S    
C23   C55   S    
C27   H11   S    
C55   H24   S    
C28   H12   S    
C9    C13   A    
C58   H33   S    
O20   V2    S    
C37   H13   S    
O26   C67   S    
C69   H60   S    
C15   C19   A    
C44   O27   S    
O24   C63   S    
C71   H64   S    
C15   H7    S    
C61   H39   S    
C17   C21   A    
C38   H14   S    
C67   H55   S    
C38   C49   A    
C57   H30   S    
C24   C56   S    
C60   H37   S    
C36   C47   A    
C20   C24   A    
C39   C52   A    
C28   C32   A    
C71   C72   S    
C53   H18   S    
C29   C30   S    
C38   C42   A    
C4    O14   A    
C65   H49   S    
C13   H5    S    
C67   H54   S    
C55   H25   S    
C58   H32   S    
C68   H56   S    
O22   C59   S    
C39   C43   A    
C45   C49   A    
C16   H8    S    
C62   H42   S    
C2    C36   S    
