data_mof_unit_45598.cif
_audit_creation_date              2012-12-11T15:21:40-0500
_audit_creation_method            fapswitch 2.2
_symmetry_space_group_name_H-M    P1
_symmetry_Int_Tables_number       1
_space_group_crystal_system       triclinic
_cell_length_a                    19.147387
_cell_length_b                    7.13754
_cell_length_c                    17.67807
_cell_angle_alpha                 89.999199
_cell_angle_beta                  109.023597
_cell_angle_gamma                 90.000719
_cell_volume                      2284.02764684

loop_
_atom_site_label
_atom_site_type_symbol
_atom_type_description
_atom_site_fract_x
_atom_site_fract_y
_atom_site_fract_z
_atom_type_partial_charge
O1    O     O_R   0.562310 0.505770 0.439670 -0.538162
O2    O     O_R   0.437690 0.005770 0.560330 -0.538163
O3    O     O_R   0.411650 0.169150 0.405330 -0.538417
O4    O     O_R   0.588350 0.669150 0.594670 -0.538418
C1    C     C_R   0.384812 0.345432 0.382906 0.629011
C2    C     C_R   0.615187 0.845433 0.617095 0.629004
O5    O     O_R   0.560140 0.175610 0.430010 -0.534619
O6    O     O_R   0.439860 0.675610 0.569990 -0.534620
O7    O     O_R   0.587240 0.012100 0.585200 -0.536412
O8    O     O_R   0.412760 0.512100 0.414800 -0.536412
C3    C     C_R   0.579071 0.344611 0.412807 0.702985
C4    C     C_R   0.420928 0.844609 0.587193 0.702975
O9    O     O_3   0.508720 0.341420 0.550890 -0.371111
O10   O     O_3   0.491280 0.841420 0.449110 -0.371096
V1    V     V_3+5 0.498380 0.063930 0.490560 1.365968
V2    V     V_3+5 0.501620 0.563930 0.509440 1.365969
C5    C     C_R   0.188439 0.782889 0.886157 -0.217702
C6    C     C_R   0.811589 0.282803 0.113875 -0.217708
C7    C     C_R   0.131575 0.916442 0.867143 -0.078433
C8    C     C_R   0.868427 0.416429 0.132859 -0.078448
C9    C     C_R   0.123700 0.039048 0.802744 -0.208337
C10   C     C_R   0.876282 0.539093 0.197234 -0.208347
C11   C     C_R   0.171152 0.025767 0.756601 0.067661
C12   C     C_R   0.828837 0.525794 0.243384 0.067637
C13   C     C_R   0.228941 0.893263 0.776723 0.056816
C14   C     C_R   0.771068 0.393233 0.223286 0.056804
C15   C     C_R   0.237752 0.772881 0.842475 0.112337
C16   C     C_R   0.762276 0.272795 0.157557 0.112323
C17   C     C_R   0.161002 0.142051 0.690301 -0.222966
C18   C     C_R   0.838983 0.642096 0.309677 -0.222928
C19   C     C_R   0.207035 0.128959 0.642730 0.152244
C20   C     C_R   0.792964 0.628969 0.357261 0.152278
C21   C     C_R   0.266789 0.998668 0.663874 0.066503
C22   C     C_R   0.733210 0.498675 0.336122 0.066431
C23   C     C_R   0.277812 0.881013 0.731365 -0.023993
C24   C     C_R   0.722198 0.380978 0.268645 -0.024008
C25   C     C_R   0.337589 0.751402 0.754131 0.079647
C26   C     C_R   0.662435 0.251321 0.245896 0.079714
C27   C     C_R   0.345530 0.635464 0.821352 -0.187261
C28   C     C_R   0.654513 0.135330 0.178697 -0.187200
C29   C     C_R   0.295922 0.644663 0.863972 -0.197929
C30   C     C_R   0.704124 0.144523 0.136082 -0.197934
C31   C     C_R   0.315038 0.981287 0.618915 -0.257562
C32   C     C_R   0.684951 0.481327 0.381071 -0.257583
C33   C     C_R   0.374297 0.854509 0.639977 -0.113028
C34   C     C_R   0.625704 0.354506 0.360024 -0.113050
C35   C     C_R   0.387723 0.741423 0.709615 0.094533
C36   C     C_R   0.612296 0.241355 0.290405 0.094505
H1    H     H_    0.079545 0.141715 0.787452 0.120027
H2    H     H_    0.920418 0.641813 0.212505 0.120047
H3    H     H_    0.116221 0.243001 0.674962 0.123151
H4    H     H_    0.883758 0.743062 0.325010 0.123165
H5    H     H_    0.307102 0.065951 0.566108 0.139070
H6    H     H_    0.692867 0.566062 0.433855 0.139095
H7    H     H_    0.389538 0.534334 0.841961 0.139278
H8    H     H_    0.610516 0.034167 0.158101 0.139233
H9    H     H_    0.303591 0.551791 0.914562 0.129809
H10   H     H_    0.696470 0.051610 0.085510 0.129815
C37   C     C_3   0.791967 0.698488 0.792465 -0.278450
C38   C     C_3   0.208011 0.198485 0.207563 -0.278438
H11   H     H_    0.836735 0.632284 0.774312 0.134743
H12   H     H_    0.163239 0.132342 0.225732 0.134723
H13   H     H_    0.790432 0.620041 0.846025 0.144067
H14   H     H_    0.209531 0.119977 0.154012 0.144066
C39   C     C_3   0.718081 0.672903 0.723664 -0.336093
C40   C     C_3   0.281899 0.172896 0.276361 -0.336088
H15   H     H_    0.677831 0.598122 0.746204 0.138780
H16   H     H_    0.322138 0.098064 0.253823 0.138786
H17   H     H_    0.727475 0.583667 0.676240 0.137241
H18   H     H_    0.272501 0.083704 0.323798 0.137223
H19   H     H_    0.759535 0.887108 0.615426 0.133765
H20   H     H_    0.240469 0.387232 0.384580 0.133773
C41   C     C_3   0.818445 0.998416 0.735030 -0.387331
C42   C     C_3   0.181563 0.498489 0.264964 -0.387342
C43   C     C_3   0.743963 0.008764 0.829083 0.040735
C44   C     C_3   0.256043 0.508699 0.170905 0.040738
C45   C     C_3   0.810993 0.910351 0.812420 0.090023
C46   C     C_3   0.189005 0.410351 0.187582 0.090032
C47   C     C_3   0.686213 0.865053 0.688307 0.094744
C48   C     C_3   0.313785 0.365052 0.311695 0.094749
C49   C     C_3   0.746582 0.969036 0.662758 -0.325653
C50   C     C_3   0.253427 0.469110 0.337236 -0.325633
C51   C     C_3   0.671468 0.981423 0.756123 -0.301117
C52   C     C_3   0.328539 0.481352 0.243862 -0.301140
H21   H     H_    0.626829 0.912687 0.772950 0.131838
H22   H     H_    0.373166 0.412553 0.227036 0.131837
H23   H     H_    0.649540 0.121924 0.732757 0.122461
H24   H     H_    0.350486 0.621853 0.267212 0.122430
O11   O     O_R   0.087220 0.271820 0.085230 -0.538288
O12   O     O_R   0.912780 0.771820 0.914770 -0.538292
O13   O     O_R   0.939860 0.595540 0.069990 -0.537572
O14   O     O_R   0.060140 0.095540 0.930010 -0.537566
C53   C     C_R   0.918921 0.426667 0.084918 0.701654
C54   C     C_R   0.081079 0.926670 0.915081 0.701662
O15   O     O_R   0.088340 0.601930 0.094680 -0.543045
O16   O     O_R   0.911660 0.101930 0.905320 -0.543044
O17   O     O_R   0.062310 0.765410 0.939660 -0.536536
O18   O     O_R   0.937690 0.265410 0.060340 -0.536543
C55   C     C_R   0.116139 0.431396 0.117879 0.636314
C56   C     C_R   0.883860 0.931396 0.882122 0.636304
O19   O     O_3   0.991270 0.429630 0.949130 -0.371684
O20   O     O_3   0.008730 0.929630 0.050870 -0.371689
V3    V     V_3+5 0.001620 0.707150 0.009440 1.380440
V4    V     V_3+5 0.998380 0.207150 0.990560 1.380450
H25   H     H_    0.195147 0.689005 0.936136 0.112712
H26   H     H_    0.804899 0.188862 0.063918 0.112744
H27   H     H_    0.865926 0.934259 0.721311 0.136765
H28   H     H_    0.134078 0.434384 0.278694 0.136761
H29   H     H_    0.756729 0.161547 0.831324 0.082382
H30   H     H_    0.243292 0.661493 0.168652 0.082368
C57   C     C_3   0.735397 0.967454 0.912505 -0.347688
C58   C     C_3   0.687232 0.799996 0.918648 -0.754463
H31   H     H_    0.627830 0.838563 0.896351 0.209062
H32   H     H_    0.695956 0.676194 0.885490 0.221666
H33   H     H_    0.700516 0.759809 0.982501 0.213507
H34   H     H_    0.790514 0.949764 0.958393 0.164696
H35   H     H_    0.710905 0.093509 0.931069 0.162335
C59   C     C_3   0.264601 0.467336 0.087483 -0.347679
C60   C     C_3   0.312734 0.299803 0.081343 -0.754402
H36   H     H_    0.372144 0.338292 0.103642 0.209047
H37   H     H_    0.303982 0.176024 0.114500 0.221646
H38   H     H_    0.299444 0.259612 0.017490 0.213517
H39   H     H_    0.209480 0.449708 0.041596 0.164704
H40   H     H_    0.289121 0.593349 0.068919 0.162314
H41   H     H_    0.830296 0.150957 0.744010 0.140529
H42   H     H_    0.169727 0.651035 0.255967 0.140538
H43   H     H_    0.725711 0.108066 0.636571 0.146418
H44   H     H_    0.274312 0.608148 0.363405 0.146428
C61   C     C_3   0.189320 0.254790 0.569624 -0.376604
C62   C     C_3   0.239079 0.427301 0.585598 -0.733495
H45   H     H_    0.233013 0.507750 0.636859 0.240409
H46   H     H_    0.297618 0.386505 0.598960 0.227176
H47   H     H_    0.223158 0.519054 0.531944 0.206150
H48   H     H_    0.193149 0.176430 0.516886 0.162602
H49   H     H_    0.131134 0.304176 0.552316 0.175332
C63   C     C_3   0.810713 0.754712 0.430397 -0.376607
C64   C     C_3   0.761031 0.927363 0.414450 -0.733472
H50   H     H_    0.767209 0.007944 0.363270 0.240365
H51   H     H_    0.702463 0.886703 0.400967 0.227201
H52   H     H_    0.776926 0.018940 0.468164 0.206126
H53   H     H_    0.806834 0.676335 0.483110 0.162600
H54   H     H_    0.868923 0.803925 0.447741 0.175322
C65   C     C_3   0.458409 0.625204 0.740265 -0.362086
C66   C     C_3   0.445315 0.417585 0.718348 -0.693942
H55   H     H_    0.401459 0.357401 0.739300 0.214070
H56   H     H_    0.428871 0.397903 0.652746 0.245693
H57   H     H_    0.497174 0.338057 0.746399 0.197462
H58   H     H_    0.502073 0.679028 0.717369 0.166328
H59   H     H_    0.483227 0.640643 0.806116 0.158826
C67   C     C_3   0.541616 0.125105 0.259764 -0.362138
C68   C     C_3   0.554708 0.917514 0.281736 -0.693636
H60   H     H_    0.598485 0.857195 0.260686 0.213961
H61   H     H_    0.571267 0.897947 0.347357 0.245631
H62   H     H_    0.502811 0.838025 0.253807 0.197453
H63   H     H_    0.497941 0.178980 0.282631 0.166323
H64   H     H_    0.516808 0.140448 0.193908 0.158817

loop_
_geom_bond_atom_site_label_1
_geom_bond_atom_site_label_2
_ccdc_geom_bond_type
C51   H23   S    
C8    C53   S    
C39   C47   S    
C36   C67   S    
C40   H16   S    
C57   C58   S    
O1    C3    A    
C48   C52   S    
O2    C4    A    
C37   C45   S    
C2    O7    A    
C58   H32   S    
C27   C29   A    
C42   H42   S    
O5    C3    A    
C64   H51   S    
C38   C46   S    
O11   C55   A    
C11   C17   A    
C23   C25   A    
C12   C14   A    
O15   C55   A    
C41   H27   S    
C65   C66   S    
C35   C65   S    
C45   C56   S    
C38   H12   S    
C68   H62   S    
C41   C49   S    
C59   C60   S    
C63   H54   S    
C30   H10   S    
C5    C7    A    
C61   H49   S    
C31   H5    S    
C27   H7    S    
C32   C34   A    
C28   H8    S    
C68   H60   S    
C19   C21   A    
C57   H34   S    
C25   C35   A    
C26   C36   A    
C10   H2    S    
C33   C35   A    
C38   C40   S    
O6    V2    S    
C67   H64   S    
C49   H43   S    
C17   C19   A    
C43   C57   S    
C44   C52   S    
C42   C50   S    
C66   H57   S    
O12   C56   A    
C58   H31   S    
O15   V3    S    
C60   H37   S    
C65   H58   S    
C64   H52   S    
C34   C36   A    
C43   H29   S    
C37   H11   S    
C44   C46   S    
C5    C15   A    
C6    C16   A    
C66   H56   S    
C20   C63   S    
C66   H55   S    
O5    V1    S    
C54   O17   A    
C39   H15   S    
C44   C59   S    
C21   C31   A    
O4    V2    S    
C62   H46   S    
C6    H26   S    
C63   H53   S    
C18   C20   A    
C5    H25   S    
O13   C53   A    
C43   C45   S    
C15   C29   A    
C47   C51   S    
O6    C4    A    
O14   C54   A    
C22   C32   A    
O1    V2    S    
C59   H40   S    
C1    C48   S    
O2    V1    S    
C31   C33   A    
C50   H44   S    
O17   V3    S    
C7    C54   S    
C13   C23   A    
C9    H1    S    
C48   C50   S    
C51   H21   S    
C8    C10   A    
O19   V4    S    
C67   H63   S    
C9    C11   A    
O11   V4    S    
C10   C12   A    
O4    C2    A    
C24   C26   A    
O3    V1    S    
C47   C49   S    
C61   C62   S    
C17   H3    S    
C60   H38   S    
C14   C24   A    
C39   H17   S    
C18   H4    S    
C16   C30   A    
C7    C9    A    
C67   C68   S    
C14   C16   A    
C52   H24   S    
O13   V3    S    
C4    C33   S    
O3    C1    A    
C6    C8    A    
C60   H36   S    
C13   C15   A    
C40   C48   S    
C64   H50   S    
C37   H13   S    
C44   H30   S    
C57   H35   S    
C38   H14   S    
O16   V4    S    
C62   H45   S    
O7    V1    S    
C29   H9    S    
C1    O8    A    
C25   C27   A    
O8    V2    S    
C37   C39   S    
C26   C28   A    
C43   C51   S    
C2    C47   S    
C40   H18   S    
C41   H41   S    
O16   C56   A    
C28   C30   A    
C21   C23   A    
C22   C24   A    
C59   H39   S    
C68   H61   S    
O20   V3    S    
C12   C18   A    
O12   V3    S    
O14   V4    S    
C42   H28   S    
C61   H48   S    
C62   H47   S    
C32   H6    S    
C65   H59   S    
C11   C13   A    
C19   C61   S    
C42   C46   S    
O9    V2    S    
C46   C55   S    
C41   C45   S    
O10   V1    S    
C52   H22   S    
C3    C34   S    
C53   O18   A    
O18   V4    S    
C58   H33   S    
H20   C50   S    
C63   C64   S    
C20   C22   A    
H19   C49   S    
