data_mof_unit_17833.cif
_audit_creation_date              2013-03-05T15:51:40-0500
_audit_creation_method            fapswitch 2.2
_symmetry_space_group_name_H-M    P1
_symmetry_Int_Tables_number       1
_space_group_crystal_system       triclinic
_cell_length_a                    10.616154
_cell_length_b                    10.852677
_cell_length_c                    9.672694
_cell_angle_alpha                 89.338383
_cell_angle_beta                  89.736238
_cell_angle_gamma                 94.986682
_cell_volume                      1110.1169826

loop_
_atom_site_label
_atom_site_type_symbol
_atom_site_description
_atom_site_fract_x
_atom_site_fract_y
_atom_site_fract_z
_atom_type_partial_charge
O1    O     O_R   0.499990 0.319640 0.618810 -0.587716
O2    O     O_R   0.500000 0.319660 0.381240 -0.556200
C1    C     C_R   0.505855 0.262682 0.501898 0.865964
O3    O     O_R   0.316850 0.499960 0.618770 -0.568320
O4    O     O_R   0.316860 0.499980 0.381190 -0.556750
C2    C     C_R   0.259752 0.500017 0.499964 0.823096
Cu1   Cu    Cu3+1 0.499990 0.499990 0.640660 0.984874
Cu2   Cu    Cu3+1 0.500010 0.500010 0.359340 1.024197
O5    O     O_R   0.500000 0.680340 0.618760 -0.567786
O6    O     O_R   0.500010 0.680360 0.381190 -0.551899
O7    O     O_R   0.683140 0.500020 0.618810 -0.581509
O8    O     O_R   0.683150 0.500040 0.381230 -0.595891
C3    C     C_R   0.486449 0.735635 0.498720 0.823615
C4    C     C_R   0.740134 0.499545 0.499889 0.835288
C5    C     C_3   0.049816 0.591616 0.580594 -0.119817
C6    C     C_3   0.957003 0.481667 0.629969 -0.151576
H1    H     H_    0.919645 0.466697 0.736777 0.178505
H2    H     H_    0.093455 0.666362 0.646881 0.146448
C7    C     C_3   0.877007 0.499975 0.500270 -0.086931
C8    C     C_3   0.967930 0.609619 0.450763 -0.224451
C9    C     C_3   0.043611 0.518468 0.368640 -0.180855
C10   C     C_3   0.951940 0.410877 0.420804 0.367015
C11   C     C_3   0.032484 0.389875 0.548586 -0.192881
C12   C     C_3   0.122854 0.500029 0.499125 -0.046029
H3    H     H_    0.938545 0.699335 0.411827 0.169108
H4    H     H_    0.080597 0.532275 0.261484 0.190514
H5    H     H_    0.060316 0.299028 0.585707 0.186719
H6    H     H_    0.524586 0.119114 0.284290 0.205775
C13   C     C_R   0.507556 0.105832 0.765996 -0.110441
H7    H     H_    0.561412 0.192685 0.785301 0.175921
C14   C     C_R   0.457930 0.040571 0.881778 -0.045076
H8    H     H_    0.467062 0.081407 0.983224 0.179151
C15   C     C_R   0.392762 0.925059 0.865932 -0.060832
H9    H     H_    0.347117 0.877187 0.953505 0.198048
C16   C     C_R   0.389990 0.868992 0.737371 -0.133151
H10   H     H_    0.339205 0.778551 0.729073 0.150033
C17   C     C_R   0.449275 0.930295 0.621390 0.061567
C18   C     C_R   0.489767 0.056890 0.631483 0.091968
C19   C     C_R   0.508944 0.127606 0.506915 -0.151824
C20   C     C_R   0.511297 0.067039 0.380314 -0.184216
C21   C     C_R   0.494162 0.939357 0.373457 0.340144
C22   C     C_R   0.469773 0.868949 0.496171 -0.219773
C23   C     C_R   0.690173 0.639006 0.145431 -0.010738
H11   H     H_    0.680189 0.669581 0.249070 0.193354
C24   C     C_R   0.807881 0.663947 0.085247 -0.183143
H12   H     H_    0.886663 0.703730 0.145432 0.162544
C25   C     C_R   0.821903 0.646408 0.945419 -0.203654
H13   H     H_    0.913080 0.676226 0.899552 0.172259
C26   C     C_R   0.713999 0.624348 0.863711 0.220912
C27   C     C_R   0.597872 0.568362 0.925314 0.107957
C28   C     C_R   0.593083 0.570511 0.074420 0.153205
N1    N     N_R   0.501210 0.501210 0.147910 -0.223593
C29   C     C_R   0.413646 0.426608 0.075281 0.216735
C30   C     C_R   0.411966 0.428572 0.927520 0.191591
N2    N     N_R   0.501250 0.501290 0.852040 -0.230589
N3    N     N_R   0.494224 0.883970 0.239645 0.113824
O9    O     O_R   0.394105 0.817280 0.197958 -0.386408
O10   O     O_R   0.584114 0.917051 0.151471 -0.372728
I1    I     I_    0.281943 0.295952 0.181585 -0.253827
I2    I     I_    0.743449 0.769850 0.713255 -0.328897
I3    I     I_    0.272010 0.306333 0.826869 -0.310673
N4    N     N_R   0.894830 0.312140 0.334727 0.134316
O11   O     O_R   0.918063 0.312252 0.202566 -0.321478
O12   O     O_R   0.819044 0.224197 0.389654 -0.364995

loop_
_geom_bond_atom_site_label_1
_geom_bond_atom_site_label_2
_geom_bond_distance
_ccdc_geom_bond_type
C13   C18   1.418246 A    
C5    H2    1.110487 S    
C11   C12   1.536758 S    
C14   C15   1.388641 A    
C21   N3    1.433382 S    
C29   C30   1.429377 A    
N4    O11   1.300778 A    
C30   I3    2.148452 S    
C11   H5    1.109842 S    
Cu2   O8    1.956679 S    
O4    Cu2   1.954806 S    
C21   C22   1.414794 A    
Cu2   N1    2.044963 S    
C3    C22   1.472736 S    
C25   H13   1.084778 S    
Cu1   N2    2.044924 S    
C23   H11   1.067285 S    
C2    C12   1.453398 S    
C8    C9    1.550975 S    
C7    C8    1.536189 S    
C15   H9    1.079140 S    
C29   I1    2.152030 S    
C1    C19   1.469396 S    
Cu1   Cu2   2.721119 S    
C13   C14   1.394563 A    
C25   C26   1.399719 A    
C24   H12   1.082746 S    
N3    O9    1.301189 A    
Cu1   O7    1.954804 S    
C23   C24   1.380044 A    
C23   C28   1.404235 A    
C13   H7    1.077773 S    
C26   I2    2.136848 S    
C6    C7    1.538816 S    
O4    C2    1.296572 A    
C9    H4    1.110575 S    
C9    C10   1.532784 S    
C20   C21   1.384212 A    
C16   C17   1.414478 A    
C17   C18   1.408096 A    
O8    C4    1.300053 A    
C27   C28   1.443444 A    
C6    C11   1.550885 S    
O2    C1    1.318716 A    
C24   C25   1.377206 A    
C5    C8    1.550761 S    
O7    C4    1.297520 A    
O3    C2    1.301725 A    
C10   N4    1.456485 S    
C8    H3    1.110224 S    
H6    C20   1.083884 S    
C28   N1    1.369666 A    
C14   H8    1.082646 S    
C19   C20   1.397655 A    
C7    C10   1.517851 S    
C18   C19   1.425295 A    
N1    C29   1.378944 A    
O3    Cu1   1.956680 S    
Cu2   O6    1.971083 S    
C26   C27   1.448705 A    
C9    C12   1.540768 S    
C17   C22   1.413862 A    
Cu1   O5    1.966266 S    
O5    C3    1.315084 A    
C10   C11   1.532280 S    
C5    C12   1.535121 S    
N4    O12   1.300520 A    
C30   N2    1.380050 A    
C15   C16   1.390035 A    
O1    Cu1   1.971083 S    
C4    C7    1.452692 S    
O6    C3    1.304697 A    
C5    C6    1.549470 S    
O2    Cu2   1.966269 S    
C27   N2    1.404697 A    
N3    O10   1.301091 A    
C6    H1    1.110040 S    
O1    C1    1.298848 A    
C16   H10   1.082005 S    
