data_mof_unit_62793.cif
_audit_creation_date              2012-12-10T16:57:52-0500
_audit_creation_method            fapswitch 2.2
_symmetry_space_group_name_H-M    P1
_symmetry_Int_Tables_number       1
_space_group_crystal_system       triclinic
_cell_length_a                    13.152591
_cell_length_b                    13.132785
_cell_length_c                    15.111059
_cell_angle_alpha                 86.66099
_cell_angle_beta                  100.199227
_cell_angle_gamma                 90.78491
_cell_volume                      2564.51392446

loop_
_atom_site_label
_atom_site_type_symbol
_atom_type_description
_atom_site_fract_x
_atom_site_fract_y
_atom_site_fract_z
_atom_type_partial_charge
C1    C     C_R   0.464063 0.772988 0.466097 0.520618
C2    C     C_2   0.504914 0.057371 0.485511 -0.142243
C3    C     C_2   0.453448 0.883520 0.449248 -0.095835
C4    C     C_R   0.537239 0.227918 0.534247 0.506585
C5    C     C_2   0.512582 0.946743 0.502687 -0.145051
C6    C     C_2   0.112834 0.450960 0.461864 -0.074075
C7    C     C_2   0.061155 0.484557 0.522641 -0.100325
C8    C     C_2   0.890878 0.545145 0.542226 0.282064
C9    C     C_2   0.947950 0.479973 0.505575 0.354446
C10   C     C_R   0.777239 0.535667 0.526771 0.538974
C11   C     C_R   0.223860 0.463563 0.473378 0.490626
C12   C     C_R   0.489711 0.375856 0.130183 -0.110644
C13   C     C_R   0.512498 0.518895 0.740915 0.538187
C14   C     C_R   0.485811 0.481476 0.259053 0.495982
C15   C     C_R   0.510187 0.531827 0.836043 -0.019961
C16   C     C_R   0.481680 0.472408 0.163064 0.019803
C17   C     C_R   0.495134 0.366477 0.039961 -0.109082
C18   C     C_3   0.937903 0.711399 0.552011 -0.124927
C19   C     C_3   0.606723 0.761934 0.829235 -0.055224
C20   C     C_R   0.479441 0.560102 0.105734 -0.085313
C21   C     C_R   0.489272 0.551797 0.015684 0.014547
C22   C     C_R   0.496163 0.453948 0.982594 -0.020666
C23   C     C_R   0.504581 0.444809 0.892815 -0.187588
C24   C     C_R   0.508233 0.629798 0.869500 0.285268
C25   C     C_R   0.494355 0.639215 0.958630 0.378806
C26   C     C_2   0.551061 0.118460 0.547909 -0.070583
F1    F     F_    0.902075 0.409519 0.448397 -0.624027
F2    F     F_    0.484998 0.733500 0.988848 -0.629069
H1    H     H_    0.507599 0.369721 0.867012 0.144471
H2    H     H_    0.397864 0.913395 0.391970 0.116251
H3    H     H_    0.857710 0.739300 0.527953 0.135705
H4    H     H_    0.979852 0.707908 0.494380 0.109177
H5    H     H_    0.978451 0.767870 0.597749 0.163473
H6    H     H_    0.668827 0.707552 0.822568 0.115843
H7    H     H_    0.622390 0.793984 0.896822 0.168698
H8    H     H_    0.609016 0.826056 0.778465 0.137945
H9    H     H_    0.592344 0.087508 0.612362 0.096452
H10   H     H_    0.102308 0.519743 0.582111 0.142939
H11   H     H_    0.072304 0.423999 0.398461 0.164432
H12   H     H_    0.500783 0.291145 0.015549 0.126140
H13   H     H_    0.492166 0.307787 0.174618 0.128330
H14   H     H_    0.475187 0.634399 0.132605 0.178303
H15   H     H_    0.566965 0.916718 0.560827 0.160165
H16   H     H_    0.459020 0.089274 0.423272 0.133955
O1    O     O_3   0.500000 0.500000 0.500000 -0.458052
O2    O     O_R   0.563230 0.581310 0.697440 -0.513922
O3    O     O_R   0.421030 0.536630 0.288090 -0.539238
O4    O     O_R   0.459330 0.447650 0.700640 -0.543043
O5    O     O_R   0.556410 0.434400 0.313840 -0.529248
O6    O     O_3   0.938772 0.616184 0.600293 -0.597649
O7    O     O_3   0.508134 0.715982 0.812318 -0.517876
O8    O     O_R   0.733070 0.467190 0.476550 -0.479149
O9    O     O_R   0.261010 0.525210 0.419080 -0.534357
O10   O     O_R   0.532760 0.736590 0.530220 -0.539001
O11   O     O_R   0.473150 0.271000 0.574150 -0.534999
O12   O     O_R   0.407210 0.713280 0.414580 -0.532401
O13   O     O_R   0.586880 0.279120 0.481060 -0.521637
O14   O     O_R   0.723250 0.592730 0.566440 -0.544061
O15   O     O_R   0.282660 0.414860 0.537920 -0.522577
Zn1   Zn    Zn3+2 0.592480 0.421540 0.443840 0.988353
Zn2   Zn    Zn3+2 0.578450 0.600910 0.572270 0.955166
Zn3   Zn    Zn3+2 0.430000 0.409940 0.576840 0.955752
Zn4   Zn    Zn3+2 0.399070 0.567610 0.407050 0.954368

loop_
_geom_bond_atom_site_label_1
_geom_bond_atom_site_label_2
_ccdc_geom_bond_type
C12   C17   A    
C4    O13   A    
C3    H2    S    
C20   H14   S    
C1    O10   A    
O1    Zn1   S    
C6    C7    D    
O10   Zn2   S    
C19   O7    S    
C13   O4    A    
C17   H12   S    
C4    C26   S    
C17   C22   A    
C11   O9    A    
C16   C20   A    
C10   O8    A    
C3    C5    D    
C24   O7    S    
C15   C23   A    
C5    H15   S    
O12   Zn4   S    
C2    C26   D    
C26   H9    S    
C19   H7    S    
C21   C22   A    
C20   C21   A    
C25   F2    S    
O9    Zn4   S    
C9    F1    S    
C14   O3    A    
O5    Zn1   S    
O14   Zn2   S    
C11   O15   A    
C23   H1    S    
O1    Zn2   S    
C15   C24   A    
C10   O14   A    
C7    H10   S    
O1    Zn4   S    
C19   H8    S    
C13   C15   S    
C4    O11   A    
O3    Zn4   S    
C13   O2    A    
C18   H5    S    
C14   C16   S    
C14   O5    A    
C18   H4    S    
O2    Zn2   S    
C2    C5    S    
O11   Zn3   S    
C8    O6    S    
O1    Zn3   S    
C24   C25   A    
C18   O6    S    
C12   H13   S    
C8    C10   S    
C6    C11   S    
C7    C9    S    
C21   C25   A    
C6    H11   S    
O15   Zn3   S    
C18   H3    S    
O8    Zn1   S    
C1    C3    S    
C22   C23   A    
O4    Zn3   S    
C1    O12   A    
C12   C16   A    
C2    H16   S    
C8    C9    D    
O13   Zn1   S    
C19   H6    S    
