data_mof_unit_33733.cif
_audit_creation_date              2012-12-10T17:35:38-0500
_audit_creation_method            fapswitch 2.2
_symmetry_space_group_name_H-M    P1
_symmetry_Int_Tables_number       1
_space_group_crystal_system       triclinic
_cell_length_a                    10.713968
_cell_length_b                    12.351549
_cell_length_c                    13.056312
_cell_angle_alpha                 116.721022
_cell_angle_beta                  76.824223
_cell_angle_gamma                 100.693303
_cell_volume                      1495.78308206

loop_
_atom_site_label
_atom_site_type_symbol
_atom_type_description
_atom_site_fract_x
_atom_site_fract_y
_atom_site_fract_z
_atom_type_partial_charge
C1    C     C_R   0.509832 0.854858 0.285912 0.778596
C2    C     C_3   0.122448 0.005352 0.504518 0.131168
C3    C     C_3   0.095363 0.129416 0.513731 -0.370743
C4    C     C_3   0.040993 0.992602 0.614516 -0.445866
C5    C     C_R   0.325377 0.274675 0.029990 0.193229
C6    C     C_R   0.451175 0.227883 0.837508 -0.102400
C7    C     C_R   0.575375 0.811451 0.076962 -0.222013
C8    C     C_R   0.589505 0.732223 0.959059 0.221166
C9    C     C_R   0.545057 0.609469 0.925750 -0.229979
C10   C     C_R   0.480796 0.565356 0.009056 0.064893
C11   C     C_R   0.449040 0.650432 0.125775 0.087082
C12   C     C_R   0.739094 0.002757 0.504244 0.762527
C13   C     C_R   0.444988 0.439341 0.979277 0.046291
C14   C     C_R   0.361531 0.400813 0.060906 0.150631
C15   C     C_R   0.315111 0.489408 0.170508 -0.246968
C16   C     C_R   0.357516 0.611619 0.202087 -0.236618
C17   C     C_R   0.493313 0.350585 0.870875 -0.262348
C18   C     C_R   0.369621 0.189523 0.917458 -0.203902
C19   C     C_R   0.508243 0.771972 0.161638 -0.153180
C20   C     C_R   0.743034 0.376983 0.383390 0.081375
C21   C     C_R   0.308221 0.749924 0.626763 0.064021
C22   C     C_R   0.261517 0.650875 0.653467 -0.280102
C23   C     C_R   0.480082 0.144982 0.714247 0.795633
C24   C     C_R   0.335455 0.553816 0.613882 -0.167060
C25   C     C_R   0.459590 0.556604 0.549983 -0.011951
C26   C     C_R   0.505112 0.661193 0.525172 0.219969
C27   C     C_R   0.539511 0.457286 0.503541 -0.120540
C28   C     C_R   0.669386 0.476506 0.456578 0.065268
C29   C     C_R   0.716257 0.595092 0.472595 0.140041
C30   C     C_R   0.632856 0.664265 0.463960 0.168664
C31   C     C_R   0.499263 0.340917 0.502418 -0.029391
C32   C     C_R   0.684391 0.258607 0.364579 0.348626
C33   C     C_R   0.260132 0.002986 0.503295 0.759633
C34   C     C_3   0.933397 0.899171 0.396501 -0.477169
C35   C     C_3   0.076730 0.895016 0.395351 0.018953
C36   C     C_3   0.953859 0.126362 0.506710 -0.350356
C37   C     C_3   0.895726 0.995461 0.618009 0.021802
C38   C     C_3   0.877152 0.006669 0.507889 0.129504
Cu1   Cu    Cu3+1 0.529690 0.098270 0.475420 0.919353
Cu2   Cu    Cu3+1 0.470310 0.901730 0.524580 0.911285
H1    H     H_    0.919578 0.906738 0.318204 0.174147
H2    H     H_    0.075315 0.066394 0.693975 0.175756
H3    H     H_    0.911579 0.207890 0.579591 0.171454
H4    H     H_    0.116896 0.203631 0.598307 0.151102
H5    H     H_    0.337377 0.093690 0.891015 0.152626
H6    H     H_    0.246822 0.465418 0.233830 0.164147
H7    H     H_    0.564700 0.374757 0.809769 0.158394
H8    H     H_    0.619072 0.903530 0.101795 0.160576
H9    H     H_    0.557272 0.551303 0.833736 0.133118
H10   H     H_    0.880039 0.812008 0.392614 0.156334
H11   H     H_    0.314676 0.674877 0.286565 0.175192
H12   H     H_    0.408561 0.323933 0.551675 0.139111
H13   H     H_    0.248794 0.823970 0.659011 0.127143
H14   H     H_    0.294943 0.478822 0.636086 0.130266
H15   H     H_    0.166865 0.649141 0.704709 0.140786
H16   H     H_    0.081700 0.811935 0.407004 0.109458
H17   H     H_    0.949175 0.132596 0.425667 0.173747
H18   H     H_    0.157719 0.154895 0.446334 0.183196
H19   H     H_    0.844497 0.908257 0.614921 0.170128
H20   H     H_    0.054723 0.905238 0.614133 0.151423
N1    N     N_R   0.574690 0.246280 0.438200 -0.214316
N2    N     N_R   0.426100 0.754320 0.561190 -0.191314
O1    O     O_R   0.537340 0.972510 0.318130 -0.575275
O2    O     O_R   0.487200 0.806530 0.359650 -0.581097
O3    O     O_R   0.707380 0.082980 0.479220 -0.576367
O4    O     O_R   0.657240 0.917000 0.520740 -0.580212
O5    O     O_R   0.512800 0.193470 0.640350 -0.578078
O6    O     O_R   0.462660 0.027490 0.681870 -0.584793
O7    O     O_R   0.342760 0.083000 0.479260 -0.589075
O8    O     O_R   0.292620 0.917020 0.520780 -0.611191
C39   C     C_3   0.238387 0.229079 0.113880 -0.929009
H21   H     H_    0.282502 0.258978 0.192672 0.237169
H22   H     H_    0.143139 0.265120 0.139000 0.233355
H23   H     H_    0.222247 0.128080 0.075125 0.234592
C40   C     C_3   0.657470 0.777674 0.868953 -0.438572
C41   C     C_3   0.572899 0.854366 0.853594 -0.802396
H24   H     H_    0.481617 0.799817 0.826460 0.260789
H25   H     H_    0.550528 0.936387 0.936022 0.244418
H26   H     H_    0.624273 0.884271 0.785188 0.247218
H27   H     H_    0.748922 0.832723 0.895155 0.193794
H28   H     H_    0.682932 0.700040 0.783455 0.204898
C42   C     C_3   0.712367 0.155349 0.244765 -0.359499
C43   C     C_3   0.817127 0.078438 0.230233 -0.848019
H29   H     H_    0.902829 0.136380 0.266039 0.234846
H30   H     H_    0.780929 0.015725 0.271901 0.271012
H31   H     H_    0.847632 0.021639 0.136236 0.222667
H32   H     H_    0.621883 0.098426 0.221592 0.205072
H33   H     H_    0.740308 0.191977 0.178160 0.176237
C44   C     C_3   0.834714 0.654560 0.527003 -0.915577
H34   H     H_    0.807664 0.730571 0.612427 0.220073
H35   H     H_    0.877068 0.591575 0.546106 0.236145
H36   H     H_    0.908085 0.686653 0.469457 0.232222
C45   C     C_3   0.873770 0.396612 0.314871 -0.897500
H37   H     H_    0.945638 0.444768 0.373646 0.239865
H38   H     H_    0.914552 0.311598 0.249419 0.234431
H39   H     H_    0.866477 0.450354 0.267876 0.238450
C46   C     C_3   0.649789 0.650541 0.340614 -0.779255
H40   H     H_    0.687627 0.737060 0.334412 0.238776
H41   H     H_    0.720441 0.584823 0.279753 0.191294
H42   H     H_    0.558462 0.612535 0.305515 0.244751
C47   C     C_3   0.161118 0.870035 0.274399 -0.372549
C48   C     C_3   0.182317 0.971469 0.233788 -0.813848
H43   H     H_    0.092902 0.014666 0.252789 0.247175
H44   H     H_    0.260094 0.040683 0.273630 0.252279
H45   H     H_    0.214994 0.932352 0.138260 0.233112
H46   H     H_    0.256583 0.847443 0.273476 0.183600
H47   H     H_    0.116164 0.787015 0.208394 0.200407
C49   C     C_3   0.836749 0.094720 0.734003 -0.898502
H48   H     H_    0.887906 0.186025 0.749140 0.242145
H49   H     H_    0.733211 0.097166 0.736073 0.231106
H50   H     H_    0.844108 0.074286 0.806940 0.237320

loop_
_geom_bond_atom_site_label_1
_geom_bond_atom_site_label_2
_ccdc_geom_bond_type
C2    C35   S    
C47   H47   S    
C20   C45   S    
C18   H5    S    
C45   H37   S    
C31   N1    A    
C41   H26   S    
C31   H12   S    
C29   C44   S    
C46   H40   S    
C7    C8    A    
C30   C46   S    
C11   C19   A    
C37   C38   S    
Cu2   O8    S    
C28   C29   A    
C41   H25   S    
C32   N1    A    
C24   H14   S    
C42   H32   S    
Cu2   N2    S    
C49   H48   S    
C48   H45   S    
C34   C35   S    
C23   O5    A    
C8    C9    A    
C16   H11   S    
C44   H35   S    
C40   H27   S    
C33   O7    A    
C45   H38   S    
Cu2   O4    S    
C21   C22   A    
Cu1   O3    S    
C34   H1    S    
Cu1   N1    S    
C1    O1    A    
C9    C10   A    
C46   H41   S    
C6    C18   A    
C3    H4    S    
C34   H10   S    
C1    C19   S    
C27   C31   A    
C47   C48   S    
C9    H9    S    
C24   C25   A    
C37   C49   S    
C36   H17   S    
Cu1   Cu2   S    
C39   H22   S    
C40   H28   S    
C5    C18   A    
C20   C28   A    
C25   C26   A    
C12   O4    A    
C8    C40   S    
C23   O6    A    
C2    C4    S    
C40   C41   S    
C29   C30   A    
C11   C16   A    
C43   H29   S    
C4    H20   S    
Cu1   O7    S    
C41   H24   S    
C44   H36   S    
C48   H44   S    
C5    C14   A    
C37   H19   S    
C33   O8    A    
C2    C33   S    
C43   H30   S    
C26   C30   A    
C45   H39   S    
C7    C19   A    
C22   C24   A    
C1    O2    A    
C46   H42   S    
C32   C42   S    
C20   C32   A    
C47   H46   S    
C6    C17   A    
C35   H16   S    
C34   C38   S    
Cu1   O5    S    
C17   H7    S    
C35   C47   S    
C10   C13   A    
C39   H23   S    
C22   H15   S    
C25   C27   A    
Cu1   O1    S    
C12   O3    A    
Cu2   O2    S    
C49   H50   S    
C13   C17   A    
C7    H8    S    
C36   C38   S    
C2    C3    S    
C26   N2    A    
C39   H21   S    
C5    C39   S    
C21   H13   S    
C4    H2    S    
C3    C36   S    
C42   H33   S    
C6    C23   S    
C49   H49   S    
C12   C38   S    
C48   H43   S    
C10   C11   A    
C3    H18   S    
C43   H31   S    
C4    C37   S    
C42   C43   S    
Cu2   O6    S    
C27   C28   A    
C14   C15   A    
C36   H3    S    
C15   H6    S    
C21   N2    A    
C44   H34   S    
C13   C14   A    
C15   C16   A    
