data_mof_unit_19714.cif
_audit_creation_date              2012-12-10T18:12:44-0500
_audit_creation_method            fapswitch 2.2
_symmetry_space_group_name_H-M    P1
_symmetry_Int_Tables_number       1
_space_group_crystal_system       triclinic
_cell_length_a                    12.751919
_cell_length_b                    12.881693
_cell_length_c                    15.714501
_cell_angle_alpha                 93.367103
_cell_angle_beta                  101.563773
_cell_angle_gamma                 83.628116
_cell_volume                      2511.57899883

loop_
_atom_site_label
_atom_site_type_symbol
_atom_type_description
_atom_site_fract_x
_atom_site_fract_y
_atom_site_fract_z
_atom_type_partial_charge
C1    C     C_R   0.442595 0.689209 0.478326 0.922575
C2    C     C_R   0.593266 0.195169 0.522188 -0.327811
C3    C     C_R   0.306755 0.830670 0.412533 -0.326436
C4    C     C_R   0.500295 0.501032 0.661424 0.899691
C5    C     C_R   0.279637 0.927724 0.372967 0.500696
C6    C     C_R   0.361287 0.994693 0.375635 -0.056921
C7    C     C_R   0.467462 0.960781 0.419049 -0.073600
C8    C     C_R   0.495777 0.854012 0.426776 -0.072649
C9    C     C_R   0.546338 0.026981 0.458480 -0.024802
C10   C     C_R   0.657197 0.988061 0.473977 -0.170285
C11   C     C_R   0.684992 0.884857 0.443478 -0.121015
C12   C     C_3   0.496239 0.501991 0.915435 -0.135830
C13   C     C_R   0.603220 0.816976 0.420956 0.538849
C14   C     C_R   0.515582 0.125867 0.492467 0.520372
C15   C     C_R   0.702276 0.155257 0.547868 -0.244838
C16   C     C_R   0.559011 0.308045 0.514897 0.949368
C17   C     C_R   0.414873 0.791527 0.437899 -0.163004
C18   C     C_R   0.087957 0.352713 0.365845 0.498221
C19   C     C_R   0.807578 0.616651 0.617128 -0.029408
C20   C     C_R   0.917450 0.617006 0.655684 -0.238879
C21   C     C_R   0.993428 0.557698 0.615321 0.505461
C22   C     C_R   0.963247 0.517538 0.529234 -0.107259
C23   C     C_3   0.548476 0.409847 0.029406 0.425693
C24   C     C_R   0.852840 0.504085 0.498996 0.097660
C25   C     C_R   0.040824 0.477983 0.477914 -0.098268
C26   C     C_R   0.009282 0.416200 0.402251 -0.134154
C27   C     C_R   0.900051 0.417992 0.366731 -0.225401
C28   C     C_R   0.499525 0.498348 0.338301 0.908155
C29   C     C_R   0.827007 0.437183 0.423201 0.516298
C30   C     C_R   0.147610 0.504290 0.493998 0.069462
C31   C     C_R   0.195436 0.367465 0.395743 -0.066065
C32   C     C_3   0.394722 0.507044 0.010335 0.438590
C33   C     C_3   0.443709 0.590362 0.968414 -0.084482
C34   C     C_3   0.495840 0.497296 0.082190 0.034616
C35   C     C_1   0.500258 0.502776 0.750152 0.006617
C36   C     C_1   0.497408 0.496298 0.248831 -0.103926
C37   C     C_3   0.446562 0.418261 0.957495 -0.203402
C38   C     C_2   0.387455 0.692790 0.935312 0.933733
C39   C     C_3   0.393983 0.138435 0.581045 -0.284631
C40   C     C_2   0.341352 0.089123 0.321219 0.989109
C41   C     C_3   0.129155 0.890431 0.273451 -0.234895
C42   C     C_3   0.604572 0.728228 0.292291 -0.312585
C43   C     C_2   0.858468 0.418657 0.270826 0.999361
C44   C     C_3   0.042356 0.186820 0.347200 -0.099223
C45   C     C_3   0.598195 0.492876 0.987672 -0.111789
C46   C     C_2   0.170746 0.608972 0.532749 1.035868
C47   C     C_2   0.725644 0.681500 0.656719 1.009815
C48   C     C_3   0.211643 0.534589 0.955468 -0.155219
C49   C     C_3   0.100977 0.433039 0.697059 -0.275524
C50   C     C_2   0.956893 0.677307 0.737664 0.929590
C51   C     C_3   0.754587 0.278769 0.385242 -0.231908
C52   C     C_2   0.712114 0.488297 0.974327 0.953729
C53   C     C_3   0.637446 0.246945 0.007140 -0.193153
C54   C     C_2   0.389598 0.328837 0.911699 0.907717
C55   C     C_2   0.781022 0.218930 0.605300 0.982580
C56   C     C_3   0.545729 0.581301 0.041342 -0.364060
C57   C     C_2   0.795761 0.847470 0.431298 1.025049
C58   C     C_3   0.855283 0.964478 0.629527 -0.206955
C59   C     C_1   0.498295 0.503288 0.825015 0.196554
C60   C     C_1   0.495913 0.495824 0.173176 0.098717
C61   C     C_R   0.734309 0.050907 0.523815 0.494493
H1    H     H_    0.243678 0.784182 0.419657 0.198973
H2    H     H_    0.184367 0.865493 0.227654 0.174074
H3    H     H_    0.054319 0.929667 0.234900 0.198466
H4    H     H_    0.643184 0.793347 0.271461 0.159135
H5    H     H_    0.516295 0.737954 0.266789 0.159053
H6    H     H_    0.638591 0.655184 0.262691 0.219506
H7    H     H_    0.729119 0.436341 0.173673 0.381606
H8    H     H_    0.973466 0.204905 0.380562 0.104101
H9    H     H_    0.114939 0.157763 0.395055 0.192459
H10   H     H_    0.021668 0.123279 0.298033 0.229382
H11   H     H_    0.123710 0.763825 0.534103 0.348217
H12   H     H_    0.257502 0.321350 0.368169 0.195237
H13   H     H_    0.621931 0.812100 0.651488 0.330010
H14   H     H_    0.230838 0.493863 0.895213 0.135389
H15   H     H_    0.197907 0.620183 0.946781 0.178848
H16   H     H_    0.134906 0.508551 0.965016 0.205325
H17   H     H_    0.088047 0.371780 0.644119 0.170193
H18   H     H_    0.042116 0.431256 0.740456 0.155804
H19   H     H_    0.182602 0.414114 0.736466 0.219697
H20   H     H_    0.073318 0.760358 0.805943 0.340312
H21   H     H_    0.818134 0.240103 0.435435 0.169756
H22   H     H_    0.775399 0.263522 0.320255 0.180335
H23   H     H_    0.586065 0.647150 0.077752 0.190861
H24   H     H_    0.679635 0.241540 0.381913 0.187363
H25   H     H_    0.812904 0.483471 0.889948 0.362810
H26   H     H_    0.672934 0.284015 0.958879 0.144289
H27   H     H_    0.569852 0.203255 0.973450 0.180602
H28   H     H_    0.700667 0.189161 0.041127 0.198897
H29   H     H_    0.341913 0.248551 0.799063 0.335610
H30   H     H_    0.807295 0.327058 0.703506 0.342087
H31   H     H_    0.928239 0.878457 0.389435 0.356042
H32   H     H_    0.819186 0.889372 0.621534 0.184816
H33   H     H_    0.822045 0.016457 0.679005 0.144735
H34   H     H_    0.332049 0.784164 0.832756 0.356730
H35   H     H_    0.942765 0.946676 0.654667 0.209571
H36   H     H_    0.307902 0.159452 0.583645 0.194818
H37   H     H_    0.441914 0.189258 0.630216 0.180149
H38   H     H_    0.414397 0.054777 0.597599 0.160485
H39   H     H_    0.404225 0.201927 0.269128 0.355472
H40   H     H_    0.106569 0.821449 0.302243 0.171794
N1    N     N_R   0.222180 0.444680 0.455580 -0.192168
N2    N     N_R   0.776980 0.554790 0.543960 -0.122645
O1    O     O_R   0.366730 0.627160 0.478790 -0.624802
O2    O     O_R   0.371618 0.712710 0.846982 -0.779516
O3    O     O_3   0.408644 0.154846 0.496473 -0.609655
O4    O     O_2   0.250285 0.120309 0.285119 -0.569122
O5    O     O_R   0.427898 0.139414 0.307223 -0.810117
O6    O     O_3   0.173320 0.961795 0.338975 -0.613418
O7    O     O_3   0.626527 0.719647 0.383428 -0.566967
O8    O     O_2   0.919929 0.416028 0.220000 -0.517984
O9    O     O_R   0.747588 0.431859 0.239009 -0.784690
O10   O     O_3   0.061620 0.273896 0.304307 -0.559903
O11   O     O_2   0.244537 0.618618 0.594529 -0.537613
O12   O     O_R   0.544830 0.662520 0.507160 -0.560770
O13   O     O_R   0.102669 0.696824 0.501174 -0.816721
O14   O     O_2   0.706206 0.657832 0.725755 -0.559095
O15   O     O_R   0.674996 0.773215 0.617723 -0.840847
O16   O     O_3   0.291025 0.511801 0.030257 -0.581766
O17   O     O_3   0.095770 0.533038 0.663509 -0.574020
O18   O     O_2   0.907530 0.685448 0.797199 -0.603287
O19   O     O_R   0.053474 0.722775 0.747335 -0.743627
O20   O     O_3   0.734535 0.386878 0.405875 -0.553067
O21   O     O_2   0.786107 0.486891 0.037186 -0.588784
O22   O     O_R   0.733235 0.486197 0.890331 -0.773013
O23   O     O_R   0.410960 0.482330 0.609040 -0.575248
O24   O     O_3   0.603624 0.318866 0.069724 -0.590688
O25   O     O_2   0.349706 0.271910 0.953173 -0.566645
O26   O     O_R   0.382336 0.310984 0.822263 -0.844894
O27   O     O_2   0.875601 0.209600 0.598709 -0.621278
O28   O     O_R   0.747042 0.287803 0.668897 -0.799456
O29   O     O_2   0.834927 0.759140 0.451241 -0.588798
O30   O     O_R   0.854142 0.912626 0.394711 -0.774216
O31   O     O_3   0.841111 0.011911 0.548822 -0.563581
O32   O     O_R   0.589060 0.517690 0.637410 -0.595597
O33   O     O_R   0.455170 0.337480 0.492840 -0.569864
O34   O     O_R   0.633270 0.372840 0.521210 -0.563616
O35   O     O_R   0.410940 0.482310 0.362590 -0.637321
O36   O     O_R   0.589040 0.517670 0.390960 -0.497996
O37   O     O_2   0.355350 0.758416 0.986067 -0.613800
Zn1   Zn    Zn3+2 0.381080 0.476390 0.481050 1.002294
Zn2   Zn    Zn3+2 0.618920 0.523610 0.518950 1.071032

loop_
_geom_bond_atom_site_label_1
_geom_bond_atom_site_label_2
_ccdc_geom_bond_type
C39   O3    S    
O34   Zn2   S    
C34   C56   S    
C8    C13   A    
C23   C45   S    
C27   C29   A    
C51   O20   S    
C48   H15   S    
C57   O29   D    
H31   O30   S    
C18   C26   A    
C51   H24   S    
C7    C8    A    
C58   O31   S    
C28   O36   A    
C26   C27   A    
C13   O7    S    
C58   H32   S    
C21   O17   S    
C5    C6    A    
O36   Zn2   S    
C19   C47   S    
C39   H36   S    
C49   O17   S    
H30   O28   S    
C11   C13   A    
C49   H17   S    
C44   H10   S    
C35   C59   T    
H7    O9    S    
C12   C37   S    
C58   H35   S    
C24   C29   A    
C20   C50   S    
C53   O24   S    
H29   O26   S    
C19   N2    A    
C47   O15   S    
C16   O34   A    
C45   C56   S    
C22   C25   A    
C50   O19   S    
C42   H4    S    
C44   H9    S    
N1    Zn1   S    
C2    C16   S    
C9    C10   A    
C40   O5    S    
C23   C34   S    
C33   C56   S    
O12   Zn2   S    
C41   O6    S    
C21   C22   A    
H25   O22   S    
C34   C60   S    
C12   C59   S    
C48   H14   S    
C57   O30   S    
C50   O18   D    
C43   O8    D    
C18   O10   S    
C61   O31   S    
C56   H23   S    
C48   O16   S    
O32   Zn2   S    
H13   O15   S    
H39   O5    S    
C46   O11   D    
C31   N1    A    
C28   O35   A    
C39   H37   S    
C45   C52   S    
C36   C60   T    
C25   C26   A    
C23   C37   S    
C54   O25   D    
C49   H18   S    
C32   C34   S    
C48   H16   S    
C9    C14   A    
O33   Zn1   S    
C39   H38   S    
C51   H21   S    
C14   O3    S    
C55   O27   D    
C30   N1    A    
C15   C61   A    
C44   H8    S    
C53   H26   S    
C32   C37   S    
C2    C15   A    
C1    O1    A    
C4    O32   A    
C37   C54   S    
C44   O10   S    
C55   O28   S    
C40   O4    D    
C53   H28   S    
C42   H6    S    
C6    C40   S    
C10   C61   A    
C43   O9    S    
C41   H2    S    
C32   O16   S    
C16   O33   A    
N2    Zn2   S    
C51   H22   S    
C23   O24   S    
C3    H1    S    
C25   C30   A    
C7    C9    A    
C54   O26   S    
C30   C46   S    
C8    C17   A    
C12   C45   S    
C3    C5    A    
O35   Zn1   S    
C52   O22   S    
C6    C7    A    
C4    O23   A    
H11   O13   S    
O23   Zn1   S    
C1    C17   S    
C33   C38   S    
C49   H19   S    
C46   O13   S    
H20   O19   S    
C24   N2    A    
C32   C33   S    
C19   C20   A    
C42   O7    S    
C52   O21   D    
C5    O6    S    
C38   O2    S    
C29   O20   S    
C41   H40   S    
C3    C17   A    
C53   H27   S    
C22   C24   A    
C58   H33   S    
C2    C14   A    
C4    C35   S    
C31   H12   S    
C10   C11   A    
C27   C43   S    
C47   O14   D    
C20   C21   A    
C28   C36   S    
H34   O2    S    
C42   H5    S    
C38   O37   D    
O1    Zn1   S    
C18   C31   A    
C1    O12   A    
C41   H3    S    
C12   C33   S    
C11   C57   S    
C15   C55   S    
