data_mof_unit_6427.cif
_audit_creation_date              2012-12-10T17:32:17-0500
_audit_creation_method            fapswitch 2.2
_symmetry_space_group_name_H-M    P1
_symmetry_Int_Tables_number       1
_space_group_crystal_system       triclinic
_cell_length_a                    12.316462
_cell_length_b                    13.179752
_cell_length_c                    15.064656
_cell_angle_alpha                 77.457463
_cell_angle_beta                  101.366481
_cell_angle_gamma                 116.775651
_cell_volume                      2117.24190199

loop_
_atom_site_label
_atom_site_type_symbol
_atom_type_description
_atom_site_fract_x
_atom_site_fract_y
_atom_site_fract_z
_atom_type_partial_charge
C1    C     C_R   0.854739 0.286554 0.507055 0.780118
C2    C     C_R   0.098889 0.496912 0.109234 0.124272
C3    C     C_R   0.801086 0.508629 0.014039 -0.205775
C4    C     C_R   0.800761 0.513435 0.920572 0.404457
C5    C     C_R   0.899163 0.507761 0.889215 -0.004581
C6    C     C_R   0.999001 0.502935 0.952691 0.017907
C7    C     C_R   0.098663 0.498648 0.923118 0.129409
C8    C     C_R   0.197320 0.494553 0.986226 -0.202766
C9    C     C_R   0.197487 0.493791 0.078789 -0.195828
C10   C     C_R   0.899532 0.503608 0.797127 -0.236192
C11   C     C_R   0.998982 0.500318 0.767898 -0.073018
C12   C     C_R   0.999383 0.499580 0.671181 0.807505
C13   C     C_R   0.098209 0.498166 0.830875 -0.232268
C14   C     C_R   0.271576 0.017985 0.366233 0.438460
C15   C     C_R   0.227941 0.834812 0.463233 -0.129844
C16   C     C_R   0.814293 0.083140 0.560112 -0.180278
C17   C     C_R   0.735579 0.967246 0.572628 -0.141405
C18   C     C_R   0.612683 0.930509 0.538471 -0.160247
C19   C     C_R   0.566283 0.009630 0.487993 0.104260
C20   C     C_R   0.650153 0.124900 0.464985 0.045416
C21   C     C_R   0.439601 0.977249 0.458928 -0.041069
C22   C     C_R   0.399092 0.054800 0.396191 0.010209
C23   C     C_R   0.145269 0.713604 0.485762 0.824593
C24   C     C_R   0.486330 0.166202 0.366412 0.388720
C25   C     C_R   0.610152 0.198066 0.398849 -0.301583
C26   C     C_R   0.351745 0.870162 0.493669 -0.225852
C27   C     C_R   0.187834 0.909673 0.401413 -0.224765
C28   C     C_R   0.772555 0.163465 0.508280 -0.080776
C29   C     C_R   0.346395 0.329173 0.647537 -0.218119
C30   C     C_R   0.758972 0.644985 0.375527 0.078112
C31   C     C_R   0.662072 0.676191 0.348745 -0.253160
C32   C     C_R   0.558908 0.621328 0.395756 -0.169234
C33   C     C_R   0.551299 0.533923 0.470753 -0.001188
C34   C     C_R   0.000075 0.499750 0.328870 0.801852
C35   C     C_R   0.653036 0.505077 0.495680 0.251252
C36   C     C_R   0.447267 0.474536 0.521831 -0.106268
C37   C     C_R   0.447317 0.387912 0.596839 0.133614
C38   C     C_R   0.547577 0.360535 0.620853 0.350681
C39   C     C_R   0.647819 0.418693 0.570434 -0.306787
C40   C     C_R   0.342143 0.497208 0.501991 0.057234
C41   C     C_R   0.246627 0.355780 0.624429 0.036414
C42   C     C_R   0.098396 0.495716 0.201880 -0.229130
C43   C     C_R   0.999662 0.499117 0.232057 -0.067805
C44   C     C_R   0.900379 0.502675 0.169362 -0.219170
C45   C     C_R   0.899558 0.503872 0.076576 0.016009
C46   C     C_R   0.999198 0.501472 0.046097 0.059599
Cu1   Cu    Cu3+1 0.098270 0.475420 0.521130 0.944628
Cu2   Cu    Cu3+1 0.901730 0.524580 0.478870 0.923815
H1    H     H_    0.175319 0.493061 0.250240 0.157772
H2    H     H_    0.377124 0.811952 0.545812 0.160877
H3    H     H_    0.907758 0.110065 0.592363 0.155197
H4    H     H_    0.557203 0.839134 0.550318 0.128247
H5    H     H_    0.769226 0.905665 0.611313 0.146532
H6    H     H_    0.675094 0.280460 0.369319 0.169963
H7    H     H_    0.168918 0.310641 0.663352 0.127889
H8    H     H_    0.343991 0.262791 0.704975 0.195836
H9    H     H_    0.823509 0.504605 0.192632 0.153249
H10   H     H_    0.334157 0.561248 0.446395 0.118127
H11   H     H_    0.838723 0.688075 0.338731 0.126982
H12   H     H_    0.486905 0.649225 0.371962 0.131475
H13   H     H_    0.666945 0.743199 0.291362 0.150594
H14   H     H_    0.720400 0.393446 0.592513 0.205095
H15   H     H_    0.724878 0.511450 0.037546 0.167999
H16   H     H_    0.822055 0.500512 0.747537 0.165163
H17   H     H_    0.175241 0.495784 0.808251 0.158257
H18   H     H_    0.274194 0.491571 0.963977 0.153658
H19   H     H_    0.274487 0.490420 0.126587 0.156466
H20   H     H_    0.091729 0.881611 0.375740 0.171921
N1    N     N_R   0.246280 0.438190 0.553160 -0.178962
N2    N     N_R   0.754320 0.561190 0.447410 -0.196644
O1    O     O_R   0.972510 0.318130 0.526570 -0.576063
O2    O     O_R   0.806530 0.359650 0.490890 -0.602522
O3    O     O_R   0.082980 0.479210 0.647590 -0.584921
O4    O     O_R   0.917000 0.520730 0.611900 -0.601489
O5    O     O_R   0.193470 0.640350 0.509110 -0.588648
O6    O     O_R   0.027490 0.681870 0.473430 -0.583611
O7    O     O_R   0.083000 0.479270 0.388100 -0.582250
O8    O     O_R   0.917020 0.520790 0.352410 -0.602139
O9    O     O_3   0.449656 0.245002 0.308767 -0.715004
H21   H     H_    0.521646 0.319641 0.297457 0.322699
O10   O     O_3   0.225525 0.082920 0.300109 -0.683868
H22   H     H_    0.269077 0.101729 0.245833 0.351996
O11   O     O_3   0.546049 0.276215 0.694396 -0.723157
H23   H     H_    0.623389 0.267331 0.702945 0.324035
O12   O     O_3   0.702723 0.523303 0.863181 -0.718616
H24   H     H_    0.732045 0.571460 0.805007 0.316437

loop_
_geom_bond_atom_site_label_1
_geom_bond_atom_site_label_2
_ccdc_geom_bond_type
C16   C28   A    
C21   C26   A    
C8    H18   S    
C12   O4    A    
C38   O11   S    
C31   H13   S    
C19   C20   A    
C16   H3    S    
C23   O6    A    
O10   H22   S    
C18   H4    S    
C7    C8    A    
C13   H17   S    
O12   H24   S    
C2    C46   A    
C1    O1    A    
C5    C6    A    
C36   C37   A    
C19   C21   A    
C26   H2    S    
C34   O7    A    
C30   C31   A    
C20   C25   A    
C33   C36   A    
C18   C19   A    
Cu2   O8    S    
Cu2   O6    S    
C41   H7    S    
C27   H20   S    
Cu1   N1    S    
Cu1   Cu2   S    
C35   N2    A    
C8    C9    A    
C1    C28   S    
C14   C27   A    
C15   C23   S    
C12   O3    A    
Cu2   O2    S    
C30   N2    A    
C1    O2    A    
C40   H10   S    
C40   N1    A    
Cu2   O4    S    
C36   C40   A    
C25   H6    S    
Cu1   O3    S    
Cu2   N2    S    
C16   C17   A    
C15   C26   A    
C4    O12   S    
C20   C28   A    
C45   C46   A    
C3    C45   A    
C35   C39   A    
C43   C44   A    
C9    H19   S    
C37   C38   A    
C24   O9    S    
C15   C27   A    
O11   H23   S    
C44   H9    S    
C30   H11   S    
C17   C18   A    
C24   C25   A    
Cu1   O1    S    
C22   C24   A    
C42   C43   A    
Cu1   O7    S    
C3    C4    A    
C17   H5    S    
C44   C45   A    
C41   N1    A    
C39   H14   S    
C6    C46   A    
C29   C41   A    
C31   C32   A    
C10   H16   S    
C34   C43   S    
C23   O5    A    
C4    C5    A    
C11   C12   S    
C6    C7    A    
C29   H8    S    
C3    H15   S    
C32   C33   A    
C14   C22   A    
Cu1   O5    S    
C5    C10   A    
C34   O8    A    
C11   C13   A    
C38   C39   A    
C2    C42   A    
C33   C35   A    
C10   C11   A    
C42   H1    S    
O9    H21   S    
C7    C13   A    
C29   C37   A    
C32   H12   S    
C14   O10   S    
C21   C22   A    
C2    C9    A    
