data_mof_unit_44083.cif
_audit_creation_date              2012-12-11T14:42:25-0500
_audit_creation_method            fapswitch 2.2
_symmetry_space_group_name_H-M    P1
_symmetry_Int_Tables_number       1
_space_group_crystal_system       triclinic
_cell_length_a                    19.075201
_cell_length_b                    11.068411
_cell_length_c                    18.809918
_cell_angle_alpha                 89.524546
_cell_angle_beta                  90.936329
_cell_angle_gamma                 90.36016
_cell_volume                      3970.63657073

loop_
_atom_site_label
_atom_site_type_symbol
_atom_type_description
_atom_site_fract_x
_atom_site_fract_y
_atom_site_fract_z
_atom_type_partial_charge
C1    C     C_R   0.729717 0.948463 0.850442 0.531860
C2    C     C_R   0.271130 0.951434 0.148356 0.582444
C3    C     C_R   0.229716 0.448463 0.850443 0.531860
C4    C     C_R   0.771130 0.451434 0.148356 0.582444
C5    C     C_R   0.682285 0.419366 0.048510 0.030389
C6    C     C_R   0.320254 0.410911 0.948747 0.072773
C7    C     C_R   0.182285 0.919365 0.048510 0.030389
C8    C     C_R   0.820254 0.910911 0.948747 0.072774
C9    C     C_R   0.746237 0.390189 0.082968 -0.003411
C10   C     C_R   0.256683 0.381249 0.913976 -0.074773
C11   C     C_R   0.246237 0.890189 0.082968 -0.003412
C12   C     C_R   0.756683 0.881249 0.913976 -0.074773
C13   C     C_R   0.792483 0.309853 0.050184 0.258854
C14   C     C_R   0.211581 0.297799 0.947498 0.209665
C15   C     C_R   0.292483 0.809853 0.050184 0.258854
C16   C     C_R   0.711581 0.797798 0.947498 0.209664
C17   C     C_R   0.783328 0.283810 0.978534 0.163998
C18   C     C_R   0.216114 0.281465 0.021336 0.243729
C19   C     C_R   0.283328 0.783810 0.978534 0.163997
C20   C     C_R   0.716114 0.781465 0.021336 0.243728
C21   C     C_R   0.727516 0.334722 0.938473 -0.006403
C22   C     C_R   0.272276 0.334008 0.060705 -0.017755
C23   C     C_R   0.227516 0.834721 0.938473 -0.006403
C24   C     C_R   0.772276 0.834008 0.060705 -0.017755
C25   C     C_R   0.451184 0.233080 0.553595 0.056763
C26   C     C_R   0.439979 0.256528 0.482603 0.013137
C27   C     C_R   0.951184 0.733080 0.553595 0.056762
C28   C     C_R   0.939979 0.756529 0.482603 0.013138
C29   C     C_R   0.468022 0.175903 0.433876 0.011448
C30   C     C_R   0.509874 0.166925 0.572599 0.039150
C31   C     C_R   0.968022 0.675903 0.433876 0.011448
C32   C     C_R   0.009874 0.666925 0.572599 0.039151
C33   C     C_R   0.527105 0.106603 0.451538 0.312337
C34   C     C_R   0.551475 0.109541 0.521556 0.256392
C35   C     C_R   0.027105 0.606603 0.451538 0.312337
C36   C     C_R   0.051475 0.609540 0.521556 0.256391
C37   C     C_R   0.812455 0.425922 0.548522 0.058868
C38   C     C_R   0.201482 0.322059 0.469786 0.065193
C39   C     C_R   0.312455 0.925922 0.548522 0.058868
C40   C     C_R   0.701482 0.822059 0.469786 0.065194
C41   C     C_R   0.823966 0.420366 0.475866 0.064359
C42   C     C_R   0.208436 0.327730 0.543301 0.102370
C43   C     C_R   0.323966 0.920366 0.475866 0.064358
C44   C     C_R   0.708436 0.827730 0.543301 0.102370
C45   C     C_R   0.529668 0.176444 0.850431 0.567946
C46   C     C_R   0.470580 0.177527 0.149805 0.583089
C47   C     C_R   0.029668 0.676444 0.850431 0.567947
C48   C     C_R   0.970580 0.677527 0.149805 0.583089
C49   C     C_R   0.765653 0.424572 0.427857 -0.027264
C50   C     C_R   0.244666 0.425016 0.573914 -0.003782
C51   C     C_R   0.265653 0.924572 0.427857 -0.027264
C52   C     C_R   0.744666 0.925016 0.573914 -0.003782
C53   C     C_R   0.698441 0.404207 0.451687 0.137003
C54   C     C_R   0.283353 0.506057 0.530573 0.139308
C55   C     C_R   0.198441 0.904207 0.451687 0.137003
C56   C     C_R   0.783353 0.006057 0.530573 0.139309
C57   C     C_R   0.686982 0.395373 0.524164 0.209902
C58   C     C_R   0.279013 0.497963 0.456709 0.234905
C59   C     C_R   0.186982 0.895373 0.524164 0.209902
C60   C     C_R   0.779013 0.997963 0.456709 0.234905
C61   C     C_R   0.744671 0.405238 0.573078 -0.001078
C62   C     C_R   0.243390 0.399680 0.426195 -0.044378
C63   C     C_R   0.244671 0.905238 0.573078 -0.001078
C64   C     C_R   0.743390 0.899680 0.426195 -0.044378
C65   C     C_R   0.724438 0.313657 0.860344 0.571135
C66   C     C_R   0.275432 0.313999 0.139451 0.587714
C67   C     C_R   0.224438 0.813657 0.860344 0.571135
C68   C     C_R   0.775432 0.813999 0.139451 0.587715
C69   C     C_R   0.727479 0.957335 0.646847 0.578874
C70   C     C_R   0.275952 0.959829 0.354511 0.549816
C71   C     C_R   0.227479 0.457335 0.646847 0.578875
C72   C     C_R   0.775952 0.459829 0.354511 0.549816
C73   C     C_R   0.534287 0.176469 0.643407 0.590717
C74   C     C_R   0.441552 0.180308 0.362697 0.570144
C75   C     C_R   0.034287 0.676469 0.643407 0.590718
C76   C     C_R   0.941552 0.680308 0.362697 0.570145
C77   C     C_R   0.737670 0.359913 0.645357 0.588056
C78   C     C_R   0.259564 0.360656 0.353906 0.534844
C79   C     C_R   0.237670 0.859913 0.645357 0.588056
C80   C     C_R   0.759564 0.860656 0.353906 0.534844
C81   C     C_2   0.499642 0.165413 0.921722 -0.108417
C82   C     C_2   0.501178 0.168491 0.078829 -0.105212
C83   C     C_2   0.999642 0.665413 0.921722 -0.108416
C84   C     C_2   0.001178 0.668491 0.078829 -0.105212
C85   C     C_2   0.502621 0.063969 0.041468 0.063777
C86   C     C_2   0.502142 0.062306 0.961488 0.067808
C87   C     C_2   0.002622 0.563969 0.041468 0.063776
C88   C     C_2   0.002142 0.562306 0.961488 0.067808
C89   C     C_R   0.674044 0.396608 0.974670 0.189579
C90   C     C_R   0.327298 0.391372 0.022522 0.162217
C91   C     C_R   0.174043 0.896607 0.974670 0.189580
C92   C     C_R   0.827298 0.891372 0.022522 0.162219
Cr1   Cr    Cr6+3 0.769270 0.163730 0.750710 1.120522
Cr2   Cr    Cr6+3 0.230730 0.163730 0.249290 1.130768
Cr3   Cr    Cr6+3 0.269270 0.663730 0.750710 1.120522
Cr4   Cr    Cr6+3 0.730730 0.663730 0.249290 1.130768
Cr5   Cr    Cr6+3 0.612620 0.009790 0.748780 1.124466
Cr6   Cr    Cr6+3 0.387380 0.009790 0.251220 1.138700
Cr7   Cr    Cr6+3 0.112620 0.509790 0.748780 1.124467
Cr8   Cr    Cr6+3 0.887380 0.509790 0.251220 1.138699
Cr9   Cr    Cr6+3 0.614160 0.322500 0.747710 1.124130
Cr10  Cr    Cr6+3 0.385840 0.322500 0.252290 1.113098
Cr11  Cr    Cr6+3 0.114160 0.822500 0.747710 1.124130
Cr12  Cr    Cr6+3 0.885840 0.822500 0.252290 1.113099
H1    H     H_    0.509154 0.254773 0.053140 0.141405
H2    H     H_    0.488841 0.251252 0.945672 0.139702
H3    H     H_    0.009154 0.754773 0.053140 0.141404
H4    H     H_    0.988842 0.751253 0.945672 0.139702
O1    O     O_R   0.784320 0.290430 0.830510 -0.450995
O2    O     O_R   0.215680 0.290430 0.169490 -0.418511
O3    O     O_R   0.284320 0.790430 0.830510 -0.450995
O4    O     O_R   0.715680 0.790430 0.169490 -0.418511
O5    O     O_R   0.554640 0.080370 0.673500 -0.475802
O6    O     O_R   0.445360 0.080370 0.326500 -0.436202
O7    O     O_R   0.054640 0.580370 0.673500 -0.475801
O8    O     O_R   0.945360 0.580370 0.326500 -0.436202
O9    O     O_R   0.543920 0.282180 0.666790 -0.476061
O10   O     O_R   0.456080 0.282180 0.333210 -0.454588
O11   O     O_R   0.043920 0.782180 0.666790 -0.476061
O12   O     O_R   0.956080 0.782180 0.333210 -0.454588
O13   O     O_R   0.679040 0.374160 0.674430 -0.496839
O14   O     O_R   0.320960 0.374160 0.325570 -0.492279
O15   O     O_R   0.179040 0.874160 0.674430 -0.496839
O16   O     O_R   0.820960 0.874160 0.325570 -0.492279
O17   O     O_3   0.665350 0.165340 0.749070 -0.341126
O18   O     O_3   0.334650 0.165340 0.250930 -0.358129
O19   O     O_3   0.165350 0.665340 0.749070 -0.341126
O20   O     O_3   0.834650 0.665340 0.250930 -0.358129
O21   O     O_R   0.762640 0.040960 0.825200 -0.514194
O22   O     O_R   0.237360 0.040960 0.174800 -0.476557
O23   O     O_R   0.262640 0.540960 0.825200 -0.514194
O24   O     O_R   0.737360 0.540960 0.174800 -0.476557
O25   O     O_R   0.667400 0.923970 0.829950 -0.468850
O26   O     O_R   0.332600 0.923970 0.170050 -0.435386
O27   O     O_R   0.167400 0.423970 0.829950 -0.468850
O28   O     O_R   0.832600 0.423970 0.170050 -0.435388
O29   O     O_R   0.553960 0.081340 0.821780 -0.474421
O30   O     O_R   0.446040 0.081340 0.178220 -0.470040
O31   O     O_R   0.053960 0.581340 0.821780 -0.474421
O32   O     O_R   0.946040 0.581340 0.178220 -0.470041
O33   O     O_R   0.543180 0.283240 0.826740 -0.451722
O34   O     O_R   0.456820 0.283240 0.173260 -0.460263
O35   O     O_R   0.043180 0.783240 0.826740 -0.451721
O36   O     O_R   0.956820 0.783240 0.173260 -0.460263
O37   O     O_R   0.678360 0.375140 0.822710 -0.429034
O38   O     O_R   0.321640 0.375140 0.177290 -0.496542
O39   O     O_R   0.178360 0.875140 0.822710 -0.429035
O40   O     O_R   0.821640 0.875140 0.177290 -0.496540
O41   O     O_R   0.785050 0.289380 0.670560 -0.464085
O42   O     O_R   0.214950 0.289380 0.329440 -0.478057
O43   O     O_R   0.285050 0.789380 0.670560 -0.464085
O44   O     O_R   0.714950 0.789380 0.329440 -0.478057
O45   O     O_R   0.763320 0.039990 0.676930 -0.482913
O46   O     O_R   0.236680 0.039990 0.323070 -0.482089
O47   O     O_R   0.263320 0.539990 0.676930 -0.482913
O48   O     O_R   0.736680 0.539990 0.323070 -0.482089
O49   O     O_R   0.668130 0.922920 0.670000 -0.459993
O50   O     O_R   0.331870 0.922920 0.330000 -0.484797
O51   O     O_R   0.168130 0.422920 0.670000 -0.459993
O52   O     O_R   0.831870 0.422920 0.330000 -0.484796
I1    I     I_    0.517915 0.894641 0.096924 -0.146195
I2    I     I_    0.493458 0.888692 0.910724 -0.098770
I3    I     I_    0.017916 0.394642 0.096924 -0.146202
I4    I     I_    0.993458 0.388692 0.910724 -0.098775
I5    I     I_    0.926289 0.361412 0.445013 -0.104520
I6    I     I_    0.169662 0.182229 0.608982 -0.247577
I7    I     I_    0.426289 0.861412 0.445013 -0.104520
I8    I     I_    0.669662 0.682229 0.608982 -0.247578
I9    I     I_    0.618317 0.360451 0.376308 -0.129007
I10   I     I_    0.360208 0.628422 0.571847 -0.092177
I11   I     I_    0.118317 0.860451 0.376308 -0.129008
I12   I     I_    0.860208 0.128422 0.571847 -0.092177
O53   O     O_3   0.619918 0.370081 0.545305 -0.670469
H5    H     H_    0.606526 0.435343 0.577942 0.378787
O54   O     O_3   0.310470 0.587081 0.416093 -0.626312
H6    H     H_    0.290277 0.585344 0.367257 0.342119
O55   O     O_3   0.119918 0.870081 0.545305 -0.670469
H7    H     H_    0.106526 0.935343 0.577942 0.378787
O56   O     O_3   0.810470 0.087081 0.416093 -0.626312
H8    H     H_    0.790277 0.085344 0.367257 0.342119
O57   O     O_3   0.614535 0.431386 0.937248 -0.634354
H9    H     H_    0.589130 0.492754 0.964459 0.374194
O58   O     O_3   0.388595 0.427330 0.055523 -0.646525
H10   H     H_    0.375866 0.493632 0.087793 0.365346
O59   O     O_3   0.114534 0.931382 0.937249 -0.634357
H11   H     H_    0.089128 0.992749 0.964459 0.374193
O60   O     O_3   0.888595 0.927331 0.055523 -0.646524
H12   H     H_    0.875866 0.993634 0.087792 0.365349
I13   I     I_    0.594212 0.469500 0.111165 -0.214292
I14   I     I_    0.409156 0.472255 0.890506 -0.158567
I15   I     I_    0.094212 0.969500 0.111165 -0.214293
I16   I     I_    0.909156 0.972255 0.890506 -0.158567
O61   O     O_3   0.845080 0.254467 0.090292 -0.640004
H13   H     H_    0.878038 0.210875 0.059774 0.389935
O62   O     O_3   0.162695 0.230754 0.909499 -0.648040
H14   H     H_    0.181801 0.215615 0.861676 0.358572
O63   O     O_3   0.345081 0.754467 0.090292 -0.640003
H15   H     H_    0.378035 0.710868 0.059775 0.389933
O64   O     O_3   0.662695 0.730754 0.909499 -0.648041
H16   H     H_    0.681801 0.715615 0.861676 0.358572
O65   O     O_3   0.829510 0.206003 0.948737 -0.642849
H17   H     H_    0.799651 0.143066 0.927265 0.340945
O66   O     O_3   0.166987 0.211363 0.055840 -0.630140
H18   H     H_    0.125210 0.199217 0.024735 0.390603
O67   O     O_3   0.329511 0.706005 0.948736 -0.642848
H19   H     H_    0.299653 0.643067 0.927264 0.340945
O68   O     O_3   0.666987 0.711363 0.055840 -0.630141
H20   H     H_    0.625209 0.699217 0.024735 0.390602
I17   I     I_    0.386610 0.304666 0.634016 -0.263895
I18   I     I_    0.450976 0.441960 0.457102 -0.093981
I19   I     I_    0.886610 0.804666 0.634016 -0.263896
I20   I     I_    0.950977 0.941960 0.457102 -0.093981
O69   O     O_3   0.562786 0.047955 0.398535 -0.624534
H21   H     H_    0.602300 0.001778 0.419512 0.372768
O70   O     O_3   0.616494 0.062611 0.537630 -0.705932
H22   H     H_    0.639297 0.114634 0.573912 0.331929
O71   O     O_3   0.062786 0.547955 0.398535 -0.624534
H23   H     H_    0.102300 0.501777 0.419512 0.372767
O72   O     O_3   0.116494 0.562610 0.537630 -0.705933
H24   H     H_    0.139297 0.614635 0.573911 0.331931
I21   I     I_    0.898109 0.452663 0.622679 -0.209116
I22   I     I_    0.116413 0.208942 0.430986 -0.129343
I23   I     I_    0.398109 0.952663 0.622679 -0.209116
I24   I     I_    0.616413 0.708942 0.430986 -0.129343

loop_
_geom_bond_atom_site_label_1
_geom_bond_atom_site_label_2
_ccdc_geom_bond_type
C58   C62   A    
C87   I3    S    
C14   O62   S    
C72   O48   A    
C23   C91   A    
C55   C59   A    
C26   C29   A    
C85   I1    S    
O65   H17   S    
C14   C18   A    
Cr1   O41   S    
C58   O54   S    
Cr8   O8    S    
C84   C87   D    
Cr5   O25   S    
O66   H18   S    
Cr11  O15   S    
C32   C75   S    
Cr9   O13   S    
O59   H11   S    
C92   O60   S    
Cr11  O39   S    
C4    O24   A    
C63   C79   S    
O53   H5    S    
C60   O56   S    
C15   C19   A    
Cr7   O31   S    
Cr4   O4    S    
Cr9   O37   S    
Cr2   O22   S    
Cr6   O30   S    
C3    O23   A    
C32   C36   A    
C56   C60   A    
C38   C42   A    
C1    O21   A    
C34   O70   S    
C68   O4    A    
C15   O63   S    
Cr1   O21   S    
Cr6   O6    S    
C74   O6    A    
C47   O35   A    
C84   H3    S    
C73   O5    A    
C83   H4    S    
C48   O36   A    
C44   I8    S    
C82   H1    S    
C23   C67   S    
Cr12  O40   S    
C4    O28   A    
C22   C66   S    
C9    C13   A    
C52   C69   S    
Cr8   O32   S    
C2    O22   A    
C46   C82   S    
Cr9   O33   S    
C41   C49   A    
C72   O52   A    
C35   C36   A    
C29   C33   A    
C61   C77   S    
C49   C72   S    
C41   I5    S    
C69   O49   A    
Cr12  O36   S    
C18   O66   S    
C8    C92   A    
C51   C70   S    
C47   C83   S    
C8    C12   A    
Cr11  O19   S    
C3    O27   A    
C81   C86   D    
Cr10  O10   S    
C16   C20   A    
C46   O30   A    
C44   C52   A    
C83   C88   D    
C91   O59   S    
C7    C91   A    
O64   H16   S    
C18   C22   A    
C56   I12   S    
Cr3   O23   S    
C64   C80   S    
C7    I15   S    
C1    C12   S    
C11   C15   A    
C1    O25   A    
C2    C11   S    
C35   O71   S    
C36   O72   S    
Cr5   O29   S    
Cr1   O17   S    
Cr2   O18   S    
C74   O10   A    
C45   C81   S    
C46   O34   A    
C73   O9    A    
C30   C34   A    
O68   H20   S    
C55   I11   S    
C12   C16   A    
C59   O55   S    
C75   O11   A    
C39   I23   S    
C10   C14   A    
C77   O41   A    
O72   H24   S    
C30   C73   S    
C48   O32   A    
C19   C23   A    
C39   C43   A    
C29   C74   S    
C51   C55   A    
O71   H23   S    
O69   H21   S    
C79   O15   A    
Cr2   O2    S    
C17   C21   A    
C48   C84   S    
Cr11  O35   S    
C70   O50   A    
Cr5   O49   S    
O57   H9    S    
C7    C11   A    
C50   C71   S    
O58   H10   S    
C5    C9    A    
Cr3   O19   S    
Cr4   O20   S    
Cr8   O52   S    
Cr9   O17   S    
O54   H6    S    
Cr12  O20   S    
Cr7   O19   S    
Cr6   O18   S    
C88   I4    S    
Cr2   O46   S    
C71   O47   A    
C6    I14   S    
C27   I19   S    
C33   C34   A    
C22   C90   A    
Cr7   O27   S    
C26   I18   S    
C76   O12   A    
C66   O2    A    
C17   O65   S    
C47   O31   A    
C65   O1    A    
C85   C86   S    
C40   I24   S    
C16   O64   S    
C45   O33   A    
C86   I2    S    
Cr5   O17   S    
C13   O61   S    
C42   C50   A    
O55   H7    S    
C67   O39   A    
C24   C92   A    
C57   O53   S    
Cr7   O51   S    
Cr5   O5    S    
C25   I17   S    
C70   O46   A    
C71   O51   A    
C53   I9    S    
C78   O42   A    
C79   O43   A    
C45   O29   A    
C80   O16   A    
C67   O3    A    
C25   C30   A    
C80   O44   A    
O67   H19   S    
C81   H2    S    
C53   C57   A    
C21   C65   S    
C27   C32   A    
Cr8   O20   S    
C62   C78   S    
C28   C31   A    
Cr11  O11   S    
C21   C89   A    
Cr10  O18   S    
C54   I10   S    
C68   O40   A    
C6    C10   A    
C37   C61   A    
C2    O26   A    
C57   C61   A    
Cr12  O16   S    
C43   I7    S    
O56   H8    S    
C28   I20   S    
C82   C85   D    
C39   C63   A    
Cr6   O26   S    
C59   C63   A    
C40   C64   A    
C13   C17   A    
C60   C64   A    
Cr9   O9    S    
C38   I22   S    
Cr1   O45   S    
Cr1   O1    S    
C25   C26   A    
C37   I21   S    
O60   H12   S    
C50   C54   A    
C3    C10   S    
C6    C90   A    
Cr4   O24   S    
Cr10  O38   S    
C33   O69   S    
Cr7   O7    S    
C43   C51   A    
C31   C76   S    
Cr4   O48   S    
C52   C56   A    
C8    I16   S    
C49   C53   A    
C31   C35   A    
C76   O8    A    
Cr3   O47   S    
O70   H22   S    
C37   C41   A    
O63   H15   S    
C78   O14   A    
C69   O45   A    
C66   O38   A    
C77   O13   A    
C24   C68   S    
C75   O7    A    
C5    I13   S    
O62   H14   S    
Cr6   O50   S    
Cr2   O42   S    
C40   C44   A    
Cr3   O43   S    
C90   O58   S    
C87   C88   S    
O61   H13   S    
C54   C58   A    
C27   C28   A    
C19   O67   S    
Cr3   O3    S    
Cr10  O34   S    
C20   O68   S    
C38   C62   A    
C4    C9    S    
Cr10  O14   S    
C65   O37   A    
C20   C24   A    
C5    C89   A    
Cr8   O28   S    
C89   O57   S    
C42   I6    S    
Cr12  O12   S    
Cr4   O44   S    
