data_mof_unit_13902.cif
_audit_creation_date              2012-12-11T14:43:32-0500
_audit_creation_method            fapswitch 2.2
_symmetry_space_group_name_H-M    P1
_symmetry_Int_Tables_number       1
_space_group_crystal_system       triclinic
_cell_length_a                    20.861557
_cell_length_b                    7.103005
_cell_length_c                    16.399422
_cell_angle_alpha                 90.106207
_cell_angle_beta                  92.601031
_cell_angle_gamma                 89.889943
_cell_volume                      2427.55031118

loop_
_atom_site_label
_atom_site_type_symbol
_atom_type_description
_atom_site_fract_x
_atom_site_fract_y
_atom_site_fract_z
_atom_type_partial_charge
O1    O     O_R   0.564840 0.505290 0.579830 -0.540215
O2    O     O_R   0.435160 0.005290 0.420170 -0.543550
O3    O     O_R   0.556720 0.179930 0.409350 -0.543545
O4    O     O_R   0.443280 0.679930 0.590650 -0.532654
C1    C     C_R   0.570192 0.344433 0.380947 0.787100
C2    C     C_R   0.429850 0.845173 0.619058 0.786932
O5    O     O_R   0.572280 0.175810 0.578530 -0.544167
O6    O     O_R   0.427720 0.675810 0.421470 -0.540892
O7    O     O_R   0.450830 0.001920 0.590540 -0.544405
O8    O     O_R   0.549170 0.501920 0.409460 -0.533027
C3    C     C_R   0.590122 0.342729 0.604977 0.718787
C4    C     C_R   0.409889 0.842736 0.395021 0.718342
O9    O     O_3   0.460130 0.338030 0.503750 -0.376825
O10   O     O_3   0.539870 0.838030 0.496250 -0.374635
V1    V     V_3+5 0.507400 0.064560 0.499310 1.451873
V2    V     V_3+5 0.492600 0.564560 0.500690 1.476870
C5    C     C_R   0.144607 0.926945 0.166920 -0.065416
C6    C     C_R   0.855340 0.426924 0.833138 -0.064996
C7    C     C_R   0.355400 0.838954 0.332937 -0.059637
C8    C     C_R   0.644624 0.338971 0.667043 -0.063391
C9    C     C_R   0.290724 0.655487 0.233037 -0.196804
C10   C     C_R   0.709368 0.155895 0.766966 -0.197849
C11   C     C_R   0.345018 0.674852 0.285440 -0.159553
C12   C     C_R   0.655076 0.175187 0.714536 -0.163574
C13   C     C_R   0.310453 0.986158 0.325223 -0.215856
C14   C     C_R   0.689495 0.485932 0.674782 -0.210505
C15   C     C_R   0.255162 0.966645 0.272884 0.153958
C16   C     C_R   0.744781 0.466490 0.727147 0.151764
C17   C     C_R   0.244995 0.799554 0.226672 0.158983
C18   C     C_R   0.755022 0.299714 0.773357 0.158747
C19   C     C_R   0.189667 0.779984 0.174395 -0.243498
C20   C     C_R   0.810351 0.280210 0.825651 -0.244247
C21   C     C_R   0.155021 0.091079 0.214381 -0.157744
C22   C     C_R   0.844841 0.590758 0.785698 -0.157796
C23   C     C_R   0.209413 0.110657 0.266581 -0.193510
C24   C     C_R   0.790447 0.610265 0.733482 -0.191584
H1    H     H_    0.182825 0.653715 0.137817 0.124311
H2    H     H_    0.817253 0.154189 0.862223 0.123912
H3    H     H_    0.121163 0.206894 0.210441 0.128406
H4    H     H_    0.878637 0.706377 0.789655 0.128175
H5    H     H_    0.284226 0.526669 0.198132 0.119834
H6    H     H_    0.715922 0.027329 0.801875 0.120004
H7    H     H_    0.215919 0.239484 0.301476 0.128049
H8    H     H_    0.783878 0.738854 0.698592 0.127849
H9    H     H_    0.378811 0.558894 0.289526 0.122767
H10   H     H_    0.621336 0.059442 0.710437 0.123467
H11   H     H_    0.317304 0.112488 0.361758 0.131026
H12   H     H_    0.682587 0.612014 0.638252 0.135904
C25   C     C_R   0.379773 0.890636 0.835159 -0.156715
C26   C     C_R   0.621717 0.324622 0.164769 -0.156563
H13   H     H_    0.469183 0.882395 0.776106 0.127410
H14   H     H_    0.532732 0.297607 0.223748 0.128118
H15   H     H_    0.300536 0.905714 0.955922 0.121915
H16   H     H_    0.700885 0.341936 0.044045 0.121785
H17   H     H_    0.403418 0.902462 0.895183 0.126888
H18   H     H_    0.598760 0.305463 0.104704 0.126953
C27   C     C_R   0.388745 0.856766 0.689657 -0.124065
C28   C     C_R   0.611410 0.350910 0.310343 -0.123887
C29   C     C_R   0.076476 0.913719 0.732167 -0.158089
C30   C     C_R   0.923486 0.414993 0.267828 -0.157941
C31   C     C_R   0.110380 0.914441 0.661298 -0.150619
C32   C     C_R   0.889966 0.399614 0.338684 -0.151626
C33   C     C_R   0.177176 0.905880 0.665053 -0.099425
C34   C     C_R   0.823370 0.382699 0.334936 -0.100797
C35   C     C_R   0.212469 0.891302 0.740657 0.091385
C36   C     C_R   0.787676 0.385315 0.259356 0.091527
C37   C     C_R   0.177059 0.898798 0.813574 0.064083
C38   C     C_R   0.823059 0.393148 0.186432 0.064081
C39   C     C_R   0.281459 0.877876 0.746890 -0.039503
C40   C     C_R   0.718682 0.372329 0.253132 -0.039610
C41   C     C_R   0.312579 0.889592 0.825906 0.075946
C42   C     C_R   0.688300 0.350760 0.174075 0.075998
C43   C     C_R   0.276777 0.899617 0.895786 -0.166263
C44   C     C_R   0.724199 0.355844 0.104198 -0.166334
C45   C     C_R   0.210261 0.900593 0.889941 -0.185908
C46   C     C_R   0.790182 0.380126 0.110059 -0.185920
C47   C     C_R   0.321404 0.852111 0.678950 0.534001
C48   C     C_R   0.677980 0.380798 0.321114 0.534744
C49   C     C_R   0.417390 0.878254 0.767546 -0.278521
C50   C     C_R   0.583908 0.321022 0.232370 -0.278607
C51   C     C_R   0.108866 0.908401 0.808500 -0.080268
C52   C     C_R   0.891083 0.409846 0.191497 -0.080420
H19   H     H_    0.024544 0.921583 0.727514 0.106277
H20   H     H_    0.975316 0.426885 0.272482 0.106498
H21   H     H_    0.199241 0.918818 0.607502 0.203504
H22   H     H_    0.802126 0.360214 0.392469 0.203676
H23   H     H_    0.084632 0.924610 0.602633 0.129532
H24   H     H_    0.915986 0.397987 0.397334 0.129513
H25   H     H_    0.184980 0.906859 0.946122 0.106368
H26   H     H_    0.815489 0.384616 0.053880 0.106324
O11   O     O_R   0.950790 0.256670 0.090520 -0.533829
O12   O     O_R   0.049210 0.756670 0.909480 -0.533820
O13   O     O_R   0.927720 0.590370 0.921470 -0.542670
O14   O     O_R   0.072280 0.090370 0.078530 -0.542875
C53   C     C_R   0.910006 0.423032 0.894945 0.688354
C54   C     C_R   0.089972 0.923030 0.105070 0.688237
O15   O     O_R   0.943270 0.586180 0.090640 -0.535907
O16   O     O_R   0.056730 0.086180 0.909360 -0.535828
O17   O     O_R   0.064850 0.759970 0.079840 -0.537137
O18   O     O_R   0.935150 0.259970 0.920160 -0.537418
C55   C     C_R   0.930355 0.417926 0.118881 0.682917
C56   C     C_R   0.069605 0.917438 0.881111 0.683025
O19   O     O_3   0.039850 0.428050 0.996240 -0.370703
O20   O     O_3   0.960150 0.928050 0.003760 -0.370829
V3    V     V_3+5 0.992610 0.701540 0.000700 1.420246
V4    V     V_3+5 0.007390 0.201540 0.999300 1.419240
F1    F     F_    0.297219 0.812985 0.602738 -0.726305
F2    F     F_    0.700274 0.426585 0.397458 -0.727331

loop_
_geom_bond_atom_site_label_1
_geom_bond_atom_site_label_2
_ccdc_geom_bond_type
C36   C38   A    
C33   C35   A    
C11   H9    S    
C40   C48   A    
C27   C49   A    
C39   C47   A    
O1    C3    A    
O2    C4    A    
C2    O7    A    
O20   V4    S    
C10   H6    S    
O5    C3    A    
C21   H3    S    
C44   C46   A    
C1    C28   S    
C22   H4    S    
C30   C32   A    
C29   H19   S    
C2    C27   S    
C54   O17   A    
C15   C17   A    
C48   F2    S    
C39   C41   A    
C26   C42   A    
C32   C34   A    
C31   H23   S    
O13   V3    S    
H16   C44   S    
C30   C52   A    
C8    C12   A    
C8    C14   A    
C35   C37   A    
C20   H2    S    
C23   H7    S    
C13   H11   S    
O12   C56   A    
O15   V3    S    
O5    V1    S    
O13   C53   A    
C33   H21   S    
C6    C53   S    
C43   C45   A    
O11   V4    S    
C5    C21   A    
O11   C55   A    
C34   H22   S    
O20   V3    S    
C51   C56   S    
O17   V3    S    
C3    C8    S    
C29   C31   A    
C27   C47   A    
C47   F1    S    
C42   C44   A    
C5    C54   S    
C28   C48   A    
C53   O18   A    
C15   C23   A    
C25   H17   S    
C9    C17   A    
C26   H18   S    
C25   C49   A    
C34   C36   A    
O4    V2    S    
C7    C11   A    
O6    C4    A    
C31   C33   A    
O19   V3    S    
O1    V2    S    
O14   C54   A    
O2    V1    S    
C6    C22   A    
C9    H5    S    
O4    C2    A    
C37   C51   A    
C9    C11   A    
C13   C15   A    
C5    C19   A    
C10   C12   A    
C24   H8    S    
C37   C45   A    
O3    V1    S    
C41   C43   A    
O14   V4    S    
C10   C18   A    
C14   C16   A    
H15   C43   S    
C29   C51   A    
O3    C1    A    
C26   C50   A    
C40   C42   A    
C14   H12   S    
C38   C46   A    
O18   V4    S    
O16   V4    S    
C38   C52   A    
C28   C50   A    
C16   C18   A    
O7    V1    S    
C12   H10   S    
C1    O8    A    
C17   C19   A    
O16   C56   A    
C18   C20   A    
C30   H20   S    
C36   C40   A    
C32   H24   S    
C35   C39   A    
C4    C7    S    
C21   C23   A    
C52   C55   S    
O19   V4    S    
C22   C24   A    
C7    C13   A    
H13   C49   S    
C45   H25   S    
C19   H1    S    
O12   V3    S    
C6    C20   A    
C16   C24   A    
O6    V2    S    
C25   C41   A    
O9    V2    S    
O10   V1    S    
O8    V2    S    
H14   C50   S    
O15   C55   A    
C46   H26   S    
