data_mof_unit_28012.cif
_audit_creation_date              2012-12-10T20:42:44-0500
_audit_creation_method            fapswitch 2.2
_symmetry_space_group_name_H-M    P1
_symmetry_Int_Tables_number       1
_space_group_crystal_system       triclinic
_cell_length_a                    8.884206
_cell_length_b                    10.615774
_cell_length_c                    9.928527
_cell_angle_alpha                 90.283932
_cell_angle_beta                  90.633177
_cell_angle_gamma                 90.417356
_cell_volume                      936.292523864

loop_
_atom_site_label
_atom_site_type_symbol
_atom_type_description
_atom_site_fract_x
_atom_site_fract_y
_atom_site_fract_z
_atom_type_partial_charge
C1    C     C_R   0.500089 0.260637 0.499494 0.877691
C2    C     C_R   0.390354 0.933649 0.424652 -0.204951
C3    C     C_R   0.502522 0.871426 0.498089 -0.092017
C4    C     C_R   0.626742 0.937118 0.548948 0.035233
C5    C     C_3   0.706350 0.933384 0.682760 0.019271
C6    C     C_3   0.707004 0.077214 0.679933 -0.523052
C7    C     C_R   0.373784 0.466353 0.069533 0.161991
C8    C     C_R   0.617879 0.547475 0.074630 -0.136395
C9    C     C_R   0.618406 0.549234 0.931423 0.221335
C10   C     C_R   0.374171 0.465391 0.927902 0.097717
C11   C     C_3   0.288697 0.343448 0.922337 0.014585
C12   C     C_R   0.218941 0.499922 0.499541 0.928240
C13   C     C_3   0.288113 0.345317 0.076332 -0.551820
C14   C     C_R   0.501125 0.739460 0.500172 0.870813
C15   C     C_R   0.781053 0.500207 0.500506 0.936055
C16   C     C_1   0.065475 0.500079 0.499428 -0.218572
C17   C     C_1   0.934506 0.500193 0.500775 -0.205117
C18   C     C_R   0.626466 0.065758 0.547814 0.053770
C19   C     C_R   0.502827 0.128878 0.495659 -0.044413
C20   C     C_R   0.390535 0.063964 0.423363 -0.229517
H1    H     H_    0.300107 0.113565 0.372725 0.144277
H2    H     H_    0.173814 0.358862 0.118161 0.187831
H3    H     H_    0.354088 0.269016 0.124992 0.217357
H4    H     H_    0.299943 0.881967 0.374600 0.149323
H5    H     H_    0.637333 0.891001 0.763994 0.156925
H6    H     H_    0.820219 0.121025 0.668714 0.198453
H7    H     H_    0.712585 0.585994 0.130955 0.163641
H8    H     H_    0.175746 0.353864 0.874152 0.153024
N1    N     N_R   0.499010 0.499140 0.142800 -0.117745
N2    N     N_R   0.499010 0.499180 0.857150 -0.136048
O1    O     O_R   0.500020 0.316790 0.614690 -0.590888
O2    O     O_R   0.500000 0.316760 0.385350 -0.623437
O3    O     O_R   0.285350 0.500020 0.614650 -0.614975
O4    O     O_R   0.285340 0.499980 0.385310 -0.612167
O5    O     O_R   0.500000 0.683240 0.614650 -0.643863
O6    O     O_R   0.499980 0.683210 0.385310 -0.611751
O7    O     O_R   0.714660 0.500020 0.614690 -0.622477
O8    O     O_R   0.714650 0.499980 0.385350 -0.622493
Zn1   Zn    Zn3+2 0.500010 0.500020 0.653130 0.939562
Zn2   Zn    Zn3+2 0.499990 0.499980 0.346870 0.940931
N3    N     N_2   0.376896 0.241147 0.867334 -0.241828
H9    H     H_    0.480314 0.228217 0.913410 0.228947
C21   C     C_3   0.294157 0.125323 0.843160 -0.788122
H10   H     H_    0.368441 0.055299 0.794462 0.238659
H11   H     H_    0.253403 0.086032 0.939772 0.235549
H12   H     H_    0.197043 0.142563 0.774406 0.239499
N4    N     N_2   0.855950 0.879950 0.672251 -0.293168
H13   H     H_    0.915121 0.906286 0.587865 0.238839
C22   C     C_3   0.945644 0.885541 0.794630 -0.793846
H14   H     H_    0.050308 0.830653 0.780863 0.240727
H15   H     H_    0.882550 0.844789 0.880152 0.259200
H16   H     H_    0.976826 0.984631 0.818870 0.238973
H17   H     H_    0.637106 0.119791 0.759663 0.201992
N5    N     N_2   0.741304 0.609721 0.868147 -0.306774
H18   H     H_    0.717787 0.655206 0.779490 0.285694
C23   C     C_3   0.883342 0.543842 0.875453 -0.773989
H19   H     H_    0.970396 0.597233 0.819680 0.247800
H20   H     H_    0.872047 0.448258 0.830225 0.251229
H21   H     H_    0.921668 0.535146 0.981802 0.224291

loop_
_geom_bond_atom_site_label_1
_geom_bond_atom_site_label_2
_ccdc_geom_bond_type
N2    Zn1   S    
C7    C10   A    
O5    Zn1   S    
C21   H10   S    
C15   O8    A    
C7    N1    A    
C21   H11   S    
N3    H9    S    
C10   N2    A    
C19   C20   A    
C23   H21   S    
C7    C13   S    
C22   H16   S    
C4    C18   A    
C2    C3    A    
N4    C22   S    
O3    Zn1   S    
C23   H19   S    
O8    Zn2   S    
C4    C5    S    
N3    C21   S    
C6    H6    S    
C3    C14   S    
C11   H8    S    
O4    Zn2   S    
C8    N1    A    
C9    N2    A    
N1    Zn2   S    
C5    N4    S    
O1    Zn1   S    
C13   H2    S    
C11   N3    S    
O2    Zn2   S    
C2    H4    S    
C5    C6    S    
C6    C18   S    
C21   H12   S    
N5    C23   S    
C1    C19   S    
C11   C13   S    
C16   C17   T    
C10   C11   S    
C6    H17   S    
C2    C20   A    
C3    C4    A    
N4    H13   S    
C1    O1    A    
O6    Zn2   S    
C20   H1    S    
C13   H3    S    
O7    Zn1   S    
C22   H14   S    
C14   O5    A    
C15   C17   S    
C8    H7    S    
N5    H18   S    
C18   C19   A    
C14   O6    A    
C9    N5    S    
C12   O3    A    
C12   O4    A    
C1    O2    A    
C15   O7    A    
C12   C16   S    
C23   H20   S    
C8    C9    A    
C22   H15   S    
C5    H5    S    
