data_mof_unit_30228.cif
_audit_creation_date              2013-03-05T15:46:33-0500
_audit_creation_method            fapswitch 2.2
_symmetry_space_group_name_H-M    P1
_symmetry_Int_Tables_number       1
_space_group_crystal_system       triclinic
_cell_length_a                    17.40804
_cell_length_b                    24.549713
_cell_length_c                    14.911296
_cell_angle_alpha                 90.078684
_cell_angle_beta                  125.641631
_cell_angle_gamma                 89.903281
_cell_volume                      5178.80185684

loop_
_atom_site_label
_atom_site_type_symbol
_atom_site_description
_atom_site_fract_x
_atom_site_fract_y
_atom_site_fract_z
_atom_type_partial_charge
C1    C     C_R   0.343792 0.351117 0.909362 -0.139831
C2    C     C_R   0.681494 0.366351 0.093989 -0.126591
C3    C     C_R   0.822264 0.862832 0.910187 -0.133510
C4    C     C_R   0.189379 0.875153 0.090611 -0.116031
H1    H     H_    0.301459 0.336022 0.825507 0.106151
H2    H     H_    0.736843 0.357626 0.179519 0.111656
H3    H     H_    0.769642 0.849895 0.826827 0.098625
H4    H     H_    0.248136 0.869181 0.175736 0.103315
N1    N     N_R   0.394180 0.396910 0.943210 -0.042090
N2    N     N_R   0.605820 0.396910 0.056790 -0.042395
N3    N     N_R   0.894180 0.896910 0.943210 -0.040488
N4    N     N_R   0.105820 0.896910 0.056790 -0.044112
C5    C     C_R   0.438507 0.650517 0.090904 0.367243
C6    C     C_R   0.557247 0.652457 0.911259 0.324783
C7    C     C_R   0.944417 0.152073 0.090238 0.313780
C8    C     C_R   0.096114 0.127019 0.908642 0.352487
N5    N     N_R   0.450950 0.603070 0.056740 -0.093256
N6    N     N_R   0.549050 0.603070 0.943260 -0.091317
N7    N     N_R   0.950950 0.103070 0.056740 -0.091164
N8    N     N_R   0.049050 0.103070 0.943260 -0.086793
C9    C     C_R   0.547475 0.454135 0.302917 -0.117136
C10   C     C_R   0.512305 0.454489 0.742699 -0.109451
C11   C     C_R   0.989030 0.955081 0.259134 -0.117827
C12   C     C_R   0.949058 0.954600 0.695009 -0.133045
H5    H     H_    0.564032 0.412201 0.329368 0.087779
H6    H     H_    0.512363 0.413181 0.719261 0.092710
H7    H     H_    0.990149 0.914134 0.284692 0.090612
H8    H     H_    0.930593 0.912941 0.667130 0.091079
N9    N     N_R   0.525650 0.471570 0.206150 -0.045033
N10   N     N_R   0.474350 0.471570 0.793850 -0.047767
N11   N     N_R   0.025650 0.971570 0.206150 -0.046843
N12   N     N_R   0.974350 0.971570 0.793850 -0.046602
C13   C     C_R   0.232881 0.546192 0.752936 -0.101865
C14   C     C_R   0.754655 0.545922 0.302737 -0.134640
C15   C     C_R   0.732689 0.046565 0.750436 -0.139488
C16   C     C_R   0.253172 0.045697 0.304003 -0.121860
H9    H     H_    0.214527 0.588314 0.749848 0.110069
H10   H     H_    0.761469 0.587397 0.330591 0.124147
H11   H     H_    0.714443 0.088679 0.747942 0.107554
H12   H     H_    0.259077 0.086928 0.332621 0.143721
N13   N     N_R   0.319480 0.528420 0.793810 -0.032835
N14   N     N_R   0.680520 0.528420 0.206190 -0.039916
N15   N     N_R   0.819480 0.028420 0.793810 -0.040758
N16   N     N_R   0.180520 0.028420 0.206190 -0.037027
C17   C     C_R   0.548841 0.544810 0.304233 -0.078060
C18   C     C_R   0.519261 0.545263 0.750840 -0.075922
C19   C     C_R   0.981761 0.045929 0.250045 -0.077094
C20   C     C_R   0.948032 0.045014 0.694698 -0.085329
H13   H     H_    0.568653 0.585844 0.333998 0.171885
H14   H     H_    0.533104 0.586846 0.743547 0.160648
H15   H     H_    0.968240 0.087928 0.256792 0.137122
H16   H     H_    0.925859 0.085978 0.665095 0.159195
N17   N     N_R   0.525640 0.528390 0.206120 -0.048237
N18   N     N_R   0.474360 0.528390 0.793880 -0.034758
N19   N     N_R   0.025640 0.028390 0.206120 -0.032624
N20   N     N_R   0.974360 0.028390 0.793880 -0.058104
C21   C     C_R   0.230620 0.454910 0.747765 -0.117757
C22   C     C_R   0.756542 0.455114 0.303883 -0.128626
C23   C     C_R   0.729242 0.955602 0.739449 -0.124470
C24   C     C_R   0.255813 0.955107 0.304535 -0.137472
H17   H     H_    0.208218 0.412965 0.734688 0.103966
H18   H     H_    0.767671 0.413604 0.332981 0.092462
H19   H     H_    0.703921 0.914645 0.714676 0.093474
H20   H     H_    0.267040 0.913545 0.333444 0.097991
N21   N     N_R   0.319490 0.471590 0.793840 -0.048060
N22   N     N_R   0.680510 0.471590 0.206160 -0.044654
N23   N     N_R   0.819490 0.971590 0.793840 -0.043058
N24   N     N_R   0.180510 0.971590 0.206160 -0.047039
C25   C     C_R   0.350692 0.651192 0.908460 -0.190059
C26   C     C_R   0.648429 0.650637 0.094127 -0.161610
C27   C     C_R   0.854544 0.151555 0.907395 -0.183436
C28   C     C_R   0.190626 0.121632 0.093103 -0.160322
H21   H     H_    0.314086 0.664864 0.824222 0.162919
H22   H     H_    0.687043 0.662179 0.179821 0.158676
H23   H     H_    0.811919 0.164514 0.822053 0.146476
H24   H     H_    0.248264 0.127553 0.178878 0.129080
N25   N     N_R   0.394130 0.603080 0.943110 -0.061184
N26   N     N_R   0.605870 0.603080 0.056890 -0.065909
N27   N     N_R   0.894130 0.103080 0.943110 -0.064425
N28   N     N_R   0.105870 0.103080 0.056890 -0.049795
C29   C     C_R   0.434049 0.353294 0.094182 -0.136797
C30   C     C_R   0.584370 0.361973 0.908725 -0.148060
C31   C     C_R   0.918225 0.861963 0.093943 -0.126929
C32   C     C_R   0.095657 0.875973 0.905871 -0.120871
H25   H     H_    0.474723 0.340598 0.179628 0.098675
H26   H     H_    0.549369 0.346255 0.826066 0.095825
H27   H     H_    0.955810 0.848948 0.178221 0.086177
H28   H     H_    0.066809 0.871988 0.819747 0.095191
N29   N     N_R   0.450990 0.396900 0.056840 -0.039435
N30   N     N_R   0.549010 0.396900 0.943160 -0.039682
N31   N     N_R   0.950990 0.896900 0.056840 -0.041110
N32   N     N_R   0.049010 0.896900 0.943160 -0.042898
C33   C     C_R   0.366937 0.324254 0.002985 0.052185
C34   C     C_R   0.669326 0.345419 0.001324 0.047340
C35   C     C_R   0.832588 0.844084 0.004289 0.054402
C36   C     C_R   0.185002 0.862085 0.996524 0.044436
C37   C     C_R   0.377568 0.682819 0.999315 -0.115417
C38   C     C_R   0.617873 0.683880 0.004985 -0.105493
C39   C     C_R   0.885176 0.183065 0.997675 -0.100069
C40   C     C_R   0.186510 0.138351 0.002180 -0.139905
C41   C     C_R   0.564470 0.499317 0.367356 0.013001
C42   C     C_R   0.545946 0.499691 0.720298 0.002851
C43   C     C_R   0.955752 0.000602 0.281678 0.007970
C44   C     C_R   0.931310 0.999849 0.630663 0.026089
C45   C     C_R   0.174833 0.501194 0.722285 0.050076
C46   C     C_R   0.803994 0.501025 0.366533 0.065960
C47   C     C_R   0.674149 0.001783 0.716085 0.067610
C48   C     C_R   0.302443 0.000970 0.367572 0.057778
Ni1   Ni    Ni4+2 0.434860 0.434850 0.869700 0.214912
Ni2   Ni    Ni4+2 0.565140 0.434850 0.130300 0.204975
Ni3   Ni    Ni4+2 0.934860 0.934850 0.869700 0.210588
Ni4   Ni    Ni4+2 0.065140 0.934850 0.130300 0.214478
Ni5   Ni    Ni4+2 0.565130 0.565140 0.130240 0.254516
Ni6   Ni    Ni4+2 0.434870 0.565140 0.869760 0.284764
Ni7   Ni    Ni4+2 0.065130 0.065140 0.130240 0.284806
Ni8   Ni    Ni4+2 0.934870 0.065140 0.869760 0.247665
C49   C     C_R   0.023087 0.552411 0.621477 0.158470
C50   C     C_R   0.929650 0.552143 0.531699 0.164818
C51   C     C_R   0.523064 0.052902 0.618159 0.153158
C52   C     C_R   0.429014 0.052594 0.530442 0.169582
C53   C     C_R   0.072487 0.503276 0.665499 0.031914
C54   C     C_R   0.883533 0.502845 0.483006 0.028209
C55   C     C_R   0.572342 0.003763 0.660867 0.032057
C56   C     C_R   0.382347 0.003158 0.483454 0.035146
C57   C     C_R   0.019418 0.454980 0.636121 -0.181366
C58   C     C_R   0.924756 0.454703 0.544308 -0.187606
C59   C     C_R   0.519638 0.955508 0.634248 -0.194135
C60   C     C_R   0.424215 0.955152 0.544817 -0.187567
H29   H     H_    0.052990 0.416445 0.673925 0.138942
H30   H     H_    0.888954 0.415943 0.514839 0.134964
H31   H     H_    0.553700 0.917083 0.672283 0.129616
H32   H     H_    0.388126 0.916412 0.516586 0.135116
C61   C     C_3   0.941629 0.601755 0.482778 -0.514518
C62   C     C_3   0.043869 0.601979 0.580353 -0.506994
C63   C     C_3   0.440123 0.101769 0.479528 -0.513946
C64   C     C_3   0.543005 0.102053 0.575380 -0.512787
H33   H     H_    0.932462 0.593604 0.403662 0.205143
H34   H     H_    0.062623 0.637836 0.635114 0.193423
H35   H     H_    0.429307 0.093083 0.399657 0.199003
H36   H     H_    0.562823 0.138088 0.630003 0.192233
H37   H     H_    0.901489 0.637285 0.481869 0.200171
H38   H     H_    0.092178 0.593853 0.555874 0.211279
H39   H     H_    0.400817 0.137616 0.479150 0.205249
H40   H     H_    0.590264 0.093443 0.549586 0.205754
C65   C     C_R   0.270642 0.759491 0.893506 -0.150339
C66   C     C_R   0.735870 0.753944 0.113783 -0.143341
C67   C     C_R   0.735855 0.218130 0.941016 -0.186889
C68   C     C_R   0.262531 0.224441 0.082306 -0.163142
H41   H     H_    0.238452 0.737237 0.817079 0.116066
H42   H     H_    0.765736 0.732029 0.190070 0.118337
H43   H     H_    0.702867 0.179626 0.901427 0.124893
H44   H     H_    0.237707 0.223925 0.134179 0.138418
C69   C     C_R   0.682668 0.257399 0.944822 -0.181950
C70   C     C_R   0.305895 0.270390 0.081436 -0.182062
C71   C     C_R   0.224128 0.805303 0.891869 -0.170993
C72   C     C_R   0.793491 0.790788 0.111438 -0.186932
H45   H     H_    0.608277 0.249917 0.906692 0.123463
H46   H     H_    0.315466 0.304390 0.133570 0.127932
H47   H     H_    0.159287 0.816047 0.813979 0.111451
H48   H     H_    0.863255 0.796186 0.186707 0.112091
C73   C     C_R   0.726278 0.305568 0.000378 0.139718
C74   C     C_R   0.330674 0.273792 0.008241 0.137109
C75   C     C_R   0.253613 0.830759 0.991327 0.138571
C76   C     C_R   0.764559 0.814479 0.011037 0.138755
C77   C     C_R   0.821895 0.315994 0.050308 -0.183773
C78   C     C_R   0.318298 0.230211 0.940597 -0.179318
C79   C     C_R   0.341899 0.817701 0.087768 -0.183412
C80   C     C_R   0.670239 0.810089 0.919334 -0.167204
H49   H     H_    0.853893 0.354250 0.091910 0.128830
H50   H     H_    0.339746 0.233063 0.885595 0.123708
H51   H     H_    0.369734 0.839351 0.164178 0.124751
H52   H     H_    0.643453 0.832602 0.844115 0.117365
C81   C     C_R   0.390871 0.772800 0.088387 -0.104282
C82   C     C_R   0.611431 0.773601 0.922978 -0.096872
C83   C     C_R   0.875522 0.276527 0.045093 -0.058311
C84   C     C_R   0.276660 0.183007 0.943677 -0.077672
H53   H     H_    0.457582 0.762982 0.164401 0.178671
H54   H     H_    0.539339 0.769385 0.851542 0.166895
H55   H     H_    0.950181 0.283169 0.083982 0.140126
H56   H     H_    0.265748 0.148902 0.891306 0.148997
C85   C     C_R   0.349228 0.739739 0.993980 0.149116
C86   C     C_R   0.649982 0.739692 0.015126 0.142519
C87   C     C_R   0.831978 0.227643 0.992308 0.166983
C88   C     C_R   0.245566 0.181394 0.011324 0.165008
C89   C     C_R   0.603437 0.548783 0.625392 -0.149338
C90   C     C_R   0.607345 0.548657 0.535492 -0.148828
C91   C     C_R   0.892538 0.049884 0.465273 -0.144636
C92   C     C_R   0.899124 0.050137 0.377346 -0.153291
H57   H     H_    0.600703 0.587722 0.657270 0.143687
H58   H     H_    0.607400 0.587566 0.501836 0.140866
H59   H     H_    0.893472 0.088735 0.499959 0.140033
H60   H     H_    0.904495 0.089090 0.347788 0.133529
C93   C     C_R   0.598443 0.499282 0.482817 0.129084
C94   C     C_R   0.590229 0.499559 0.662083 0.134312
C95   C     C_R   0.911319 0.000837 0.339717 0.135439
C96   C     C_R   0.898166 0.000318 0.515476 0.127190
C97   C     C_R   0.607190 0.450003 0.535387 -0.158345
C98   C     C_R   0.603740 0.450177 0.625726 -0.157037
C99   C     C_R   0.895070 0.951541 0.373454 -0.159016
C100  C     C_R   0.889102 0.951241 0.462007 -0.162006
H61   H     H_    0.607115 0.411092 0.501401 0.110849
H62   H     H_    0.601871 0.411410 0.658678 0.111856
H63   H     H_    0.896238 0.912833 0.339610 0.110695
H64   H     H_    0.887078 0.912300 0.494269 0.111642
N33   N     N_R   0.495358 0.667733 0.203204 0.196542
O1    O     O_R   0.586464 0.671887 0.256190 -0.480239
O2    O     O_R   0.456703 0.676092 0.254890 -0.425824
N34   N     N_R   0.496615 0.671444 0.799848 0.200949
O3    O     O_R   0.408651 0.656170 0.738662 -0.441684
O4    O     O_R   0.533943 0.690407 0.751891 -0.440710
N35   N     N_R   0.011637 0.172825 0.199241 0.215585
O5    O     O_R   0.095471 0.151248 0.261391 -0.441585
O6    O     O_R   0.986956 0.209611 0.240763 -0.416619
N36   N     N_R   0.049775 0.154755 0.805127 0.220048
O7    O     O_R   0.967396 0.176964 0.762322 -0.431983
O8    O     O_R   0.087093 0.156078 0.750878 -0.427306

loop_
_geom_bond_atom_site_label_1
_geom_bond_atom_site_label_2
_geom_bond_distance
_ccdc_geom_bond_type
C22   H18   1.080204 S    
C31   H27   1.073132 S    
C7    N7    1.331816 A    
C61   H33   1.112343 S    
C30   C34   1.370600 A    
N12   Ni3   1.864258 S    
C6    N34   1.431127 S    
C91   C96   1.402596 A    
C26   N26   1.319845 A    
C6    N6    1.341482 A    
C90   C93   1.402270 A    
C25   N25   1.333101 A    
C14   N14   1.325738 A    
C3    N3    1.339267 A    
C47   C55   1.456160 S    
C89   C94   1.400672 A    
C96   C100  1.401284 A    
C82   C86   1.399266 A    
C27   N27   1.321351 A    
N5    Ni5   1.864608 S    
C63   C64   1.505730 S    
N33   O1    1.299973 A    
C80   C82   1.386164 A    
C18   C42   1.385021 A    
C68   C70   1.362664 A    
C1    H1    1.081505 S    
C83   C87   1.392660 A    
C25   H21   1.078933 S    
C70   H46   1.084691 S    
C3    H3    1.076083 S    
N16   N24   1.395157 A    
N24   Ni4   1.866093 S    
N36   O8    1.300000 A    
C16   C48   1.375500 A    
C58   H30   1.081043 S    
C67   C87   1.395992 A    
C20   C44   1.378445 A    
C65   C85   1.400840 A    
C29   C33   1.367852 A    
C20   N20   1.332263 A    
C50   C54   1.399249 A    
C4    H4    1.079718 S    
C49   C53   1.402232 A    
N13   N21   1.395158 A    
C7    N35   1.433128 S    
N14   Ni5   1.864304 S    
C23   N23   1.340243 A    
C53   C57   1.407738 A    
C4    C36   1.396892 A    
C52   C56   1.400501 A    
C22   N22   1.338241 A    
C11   C43   1.386085 A    
C21   H17   1.078257 S    
N16   Ni7   1.864304 S    
C41   C93   1.458516 S    
N34   O3    1.300246 A    
C98   H62   1.080865 S    
N11   Ni4   1.861633 S    
C97   H61   1.080395 S    
N7    Ni7   1.864608 S    
C4    N4    1.341148 A    
C15   N15   1.326317 A    
N13   Ni6   1.866077 S    
C91   H59   1.079979 S    
C24   C48   1.386041 A    
C64   H36   1.112007 S    
C56   C60   1.407215 A    
C9    C41   1.381304 A    
C54   C58   1.408197 A    
C63   H39   1.111824 S    
C57   C58   1.400221 A    
C81   C85   1.405530 A    
C99   C100  1.383595 A    
C74   C78   1.397507 A    
N27   Ni8   1.861655 S    
N1    Ni1   1.865529 S    
C46   C54   1.460463 S    
C2    H2    1.081081 S    
C43   C95   1.458577 S    
C48   C56   1.456828 S    
C67   C69   1.359394 A    
C49   C62   1.499939 S    
C42   C94   1.458654 S    
N17   Ni5   1.864984 S    
C18   H14   1.069432 S    
C6    C38   1.393909 A    
C95   C99   1.402254 A    
N33   O2    1.300935 A    
C77   H49   1.083801 S    
C2    C34   1.369479 A    
C19   C43   1.384827 A    
C21   C45   1.395002 A    
N8    N28   1.376979 A    
N10   Ni1   1.864258 S    
C71   H47   1.079162 S    
C37   C85   1.467854 S    
C14   C46   1.380201 A    
C32   H28   1.076658 S    
N9    Ni2   1.861633 S    
C16   H12   1.079477 S    
C1    N1    1.331837 A    
C92   C95   1.400270 A    
C9    H5    1.079839 S    
N1    N29   1.376978 A    
N8    Ni8   1.866455 S    
C66   C86   1.399647 A    
N36   O7    1.301055 A    
C8    C40   1.393400 A    
C79   H51   1.082238 S    
N20   Ni8   1.862354 S    
C71   C75   1.401727 A    
C30   H26   1.078695 S    
C27   C39   1.362690 A    
N29   Ni2   1.866342 S    
C23   C47   1.390885 A    
C28   N28   1.322492 A    
C69   C73   1.388664 A    
C12   C44   1.380693 A    
C29   H25   1.082049 S    
C11   N11   1.335346 A    
N31   Ni4   1.866342 S    
C38   C86   1.454695 S    
C15   H11   1.075375 S    
C12   N12   1.335033 A    
C26   H22   1.078688 S    
N3    N31   1.376978 A    
N15   Ni8   1.866077 S    
C62   H38   1.112315 S    
N10   N18   1.394914 A    
C90   H58   1.079885 S    
C84   H56   1.082955 S    
C55   C59   1.407365 A    
N35   O5    1.300682 A    
N28   Ni7   1.864353 S    
C17   H13   1.073459 S    
C75   C79   1.398807 A    
C100  H64   1.080603 S    
C31   C35   1.371205 A    
C18   N18   1.334504 A    
N5    N25   1.376977 A    
C44   C96   1.458842 S    
C13   C45   1.383640 A    
C28   H24   1.080802 S    
C5    C37   1.389633 A    
C8    N8    1.333676 A    
N22   Ni2   1.866093 S    
N7    N27   1.376977 A    
C34   C73   1.397594 S    
N21   Ni1   1.864315 S    
C50   C61   1.496531 S    
C17   C41   1.382292 A    
C89   H57   1.080276 S    
N11   N19   1.394915 A    
C76   C80   1.400332 A    
N15   N23   1.395158 A    
N6    N26   1.376979 A    
N35   O6    1.300250 A    
C78   H50   1.083548 S    
C11   H7    1.071652 S    
C83   H55   1.083576 S    
C61   C62   1.505560 S    
C5    N33   1.424861 S    
C16   N16   1.325534 A    
N26   Ni5   1.864353 S    
N25   Ni6   1.861655 S    
C2    N2    1.323660 A    
C32   C36   1.382671 A    
N4    Ni4   1.862832 S    
C99   H63   1.081066 S    
N6    Ni6   1.866455 S    
C12   H8    1.079967 S    
C19   N19   1.333795 A    
C28   C40   1.378395 A    
C80   H52   1.082696 S    
N23   Ni3   1.864315 S    
C84   C88   1.395902 A    
C82   H54   1.078207 S    
C60   H32   1.081248 S    
C10   N10   1.334039 A    
C14   H10   1.079411 S    
C39   C87   1.404321 S    
N4    N32   1.376978 A    
C68   H44   1.083870 S    
C7    C39   1.374345 A    
C10   C42   1.384597 A    
C70   C74   1.390425 A    
C62   H34   1.112008 S    
C19   H15   1.074777 S    
C51   C52   1.376840 A    
C36   C75   1.458963 S    
N32   Ni3   1.864494 S    
C66   H42   1.079448 S    
C59   C60   1.398612 A    
C72   H48   1.078773 S    
C51   C55   1.399517 A    
C77   C83   1.377547 A    
C31   N31   1.318247 A    
C92   H60   1.080279 S    
C63   H35   1.112413 S    
C23   H19   1.073535 S    
C51   C64   1.498332 S    
C30   N30   1.320282 A    
C78   C84   1.382829 A    
C79   C81   1.389105 A    
C24   H20   1.080498 S    
C52   C63   1.498549 S    
C13   N13   1.327454 A    
C59   H31   1.082025 S    
C29   N29   1.317979 A    
C91   C92   1.381081 A    
C64   H40   1.112379 S    
N34   O4    1.301461 A    
C49   C50   1.378467 A    
C72   C76   1.398538 A    
C27   H23   1.082151 S    
C68   C88   1.399291 A    
N19   Ni7   1.864984 S    
C89   C90   1.381284 A    
C94   C98   1.401708 A    
C9    N9    1.331100 A    
C33   C74   1.414177 S    
C93   C97   1.401479 A    
C67   H43   1.084877 S    
N18   Ni6   1.862354 S    
N2    Ni2   1.862832 S    
C69   H45   1.084642 S    
C97   C98   1.382916 A    
C40   C88   1.425466 S    
C13   H9    1.074915 S    
C15   C47   1.379629 A    
C17   N17   1.332759 A    
C5    N5    1.337656 A    
C65   C71   1.376633 A    
C57   H29   1.081635 S    
C20   H16   1.075414 S    
N2    N30   1.376978 A    
C66   C72   1.367317 A    
C24   N24   1.338933 A    
C8    N36   1.430663 S    
C1    C33   1.375603 A    
C10   H6    1.072364 S    
C45   C53   1.461337 S    
N14   N22   1.395157 A    
N3    Ni3   1.865529 S    
C65   H41   1.079937 S    
C3    C35   1.385866 A    
C61   H37   1.111840 S    
C32   N32   1.325329 A    
N30   Ni1   1.864494 S    
C22   C46   1.387941 A    
C81   H53   1.075749 S    
C35   C76   1.443190 S    
N12   N20   1.394914 A    
C73   C77   1.395358 A    
C26   C38   1.375982 A    
N9    N17   1.394915 A    
C21   N21   1.340047 A    
C25   C37   1.384466 A    
