data_mof_unit_25931.cif
_audit_creation_date              2012-12-10T20:40:04-0500
_audit_creation_method            fapswitch 2.2
_symmetry_space_group_name_H-M    P1
_symmetry_Int_Tables_number       1
_space_group_crystal_system       triclinic
_cell_length_a                    23.306995
_cell_length_b                    10.714445
_cell_length_c                    9.939789
_cell_angle_alpha                 90.847399
_cell_angle_beta                  91.056359
_cell_angle_gamma                 90.481423
_cell_volume                      2481.39246534

loop_
_atom_site_label
_atom_site_type_symbol
_atom_type_description
_atom_site_fract_x
_atom_site_fract_y
_atom_site_fract_z
_atom_type_partial_charge
C1    C     C_R   0.499448 0.260259 0.499388 0.856066
C2    C     C_R   0.962237 0.351382 0.389219 0.326829
C3    C     C_R   0.021657 0.344398 0.399413 -0.173617
C4    C     C_R   0.054700 0.448890 0.437314 -0.057482
C5    C     C_R   0.028009 0.563328 0.464175 -0.015022
C6    C     C_R   0.061747 0.670009 0.492659 -0.059582
C7    C     C_R   0.035306 0.782934 0.524996 -0.180026
C8    C     C_R   0.975880 0.790190 0.535085 0.323061
C9    C     C_R   0.114296 0.441011 0.450133 0.526508
C10   C     C_R   0.121599 0.660937 0.488823 0.537324
C11   C     C_R   0.239986 0.594302 0.584467 -0.101826
C12   C     C_R   0.389467 0.500874 0.498919 0.885638
C13   C     C_R   0.299409 0.584353 0.590031 -0.240928
C14   C     C_R   0.327338 0.509735 0.495376 -0.024143
C15   C     C_R   0.295814 0.448498 0.392992 -0.160196
C16   C     C_R   0.237155 0.466535 0.380887 -0.061655
C17   C     C_R   0.208382 0.537001 0.478451 0.266910
C18   C     C_R   0.767280 0.491831 0.592638 -0.212286
C19   C     C_R   0.708989 0.461815 0.590966 0.173168
C20   C     C_R   0.672042 0.524721 0.502196 -0.081989
C21   C     C_R   0.693846 0.613575 0.413933 -0.331970
C22   C     C_R   0.752523 0.639772 0.412118 0.253209
C23   C     C_R   0.498309 0.739713 0.500266 0.871801
C24   C     C_R   0.789343 0.576546 0.500495 0.242812
C25   C     C_R   0.485357 0.064834 0.618053 0.064771
C26   C     C_R   0.493092 0.128435 0.498116 -0.097079
C27   C     C_R   0.489515 0.062737 0.375107 -0.219355
C28   C     C_R   0.488246 0.933736 0.375238 -0.201914
C29   C     C_R   0.490148 0.871117 0.498498 -0.080267
C30   C     C_R   0.482656 0.937793 0.617593 0.084265
C31   C     C_3   0.511489 0.928741 0.751967 -0.482828
C32   C     C_3   0.513480 0.070677 0.755651 0.017294
C33   C     C_R   0.471231 0.410420 0.068190 0.087091
C34   C     C_R   0.610480 0.502429 0.500915 0.900165
C35   C     C_R   0.533560 0.580556 0.075487 -0.146704
C36   C     C_R   0.534450 0.579785 0.931731 0.248119
C37   C     C_R   0.473646 0.405529 0.927320 0.046602
C38   C     C_3   0.413743 0.351372 0.919343 -0.045662
C39   C     C_3   0.409098 0.377631 0.070696 0.027896
C40   C     C_R   0.881184 0.682034 0.519709 0.588918
C41   C     C_R   0.874496 0.474100 0.429386 0.547484
C42   C     C_R   0.934329 0.463922 0.426147 -0.089836
C43   C     C_R   0.967693 0.570383 0.464739 -0.100240
C44   C     C_R   0.941148 0.683119 0.506032 -0.093165
H1    H     H_    0.665303 0.661097 0.344635 0.163313
H2    H     H_    0.491205 0.109768 0.279479 0.165043
H3    H     H_    0.489645 0.884195 0.279556 0.174831
H4    H     H_    0.482950 0.888238 0.828653 0.182305
H5    H     H_    0.554407 0.885532 0.742820 0.224051
H6    H     H_    0.485909 0.113894 0.833090 0.135218
H7    H     H_    0.560130 0.646471 0.132527 0.136027
H8    H     H_    0.042054 0.256600 0.375114 0.222100
H9    H     H_    0.414685 0.249850 0.894661 0.114514
H10   H     H_    0.400016 0.293226 0.130569 0.110116
H11   H     H_    0.060948 0.865867 0.546716 0.220506
H12   H     H_    0.218692 0.646721 0.662647 0.175239
H13   H     H_    0.323391 0.633290 0.669167 0.162815
H14   H     H_    0.316611 0.386935 0.322166 0.176143
H15   H     H_    0.213971 0.423273 0.296868 0.171009
H16   H     H_    0.796542 0.440280 0.656566 0.164032
N1    N     N_R   0.849881 0.579170 0.480973 -0.352686
N2    N     N_R   0.146914 0.546759 0.472041 -0.351844
N3    N     N_R   0.499610 0.499140 0.142800 -0.084216
N4    N     N_R   0.499610 0.499180 0.857150 -0.106652
O1    O     O_R   0.500010 0.316790 0.614690 -0.628349
O2    O     O_2   0.840359 0.379873 0.383877 -0.501233
O3    O     O_2   0.139274 0.327900 0.443261 -0.554480
O4    O     O_2   0.154104 0.765475 0.501151 -0.545942
O5    O     O_R   0.500000 0.316760 0.385350 -0.625799
O6    O     O_R   0.416160 0.499980 0.614700 -0.613727
O7    O     O_R   0.416150 0.499940 0.385360 -0.565560
O8    O     O_R   0.500000 0.683240 0.614650 -0.603601
O9    O     O_R   0.499990 0.683210 0.385310 -0.620810
O10   O     O_R   0.583850 0.500060 0.614640 -0.586844
O11   O     O_R   0.583840 0.500020 0.385300 -0.627403
O12   O     O_2   0.853999 0.780358 0.574202 -0.505281
Zn1   Zn    Zn3+2 0.500000 0.500020 0.653130 0.974841
Zn2   Zn    Zn3+2 0.500000 0.499980 0.346870 0.977987
Br1   Br    Br    0.924402 0.199976 0.327292 -0.352930
N5    N     N_2   0.689424 0.357822 0.665229 -0.320189
H17   H     H_    0.710801 0.347921 0.756236 0.230180
C45   C     C_3   0.688528 0.242666 0.586964 -0.744016
H18   H     H_    0.676660 0.163377 0.651367 0.245561
H19   H     H_    0.731705 0.223540 0.545940 0.275822
H20   H     H_    0.656634 0.248205 0.502855 0.233119
N6    N     N_2   0.775230 0.720384 0.313680 -0.300314
H21   H     H_    0.766881 0.688479 0.216836 0.228366
C46   C     C_3   0.760296 0.850384 0.330839 -0.665037
H22   H     H_    0.784688 0.907402 0.258721 0.260577
H23   H     H_    0.771374 0.883866 0.434395 0.290158
H24   H     H_    0.713681 0.863761 0.311120 0.200801
N7    N     N_2   0.572105 0.117778 0.758260 -0.284293
H25   H     H_    0.577509 0.202052 0.711930 0.268889
C47   C     C_3   0.599452 0.117306 0.890181 -0.784277
H26   H     H_    0.644909 0.147639 0.882688 0.246639
H27   H     H_    0.598643 0.021920 0.932461 0.247782
H28   H     H_    0.577255 0.182767 0.959267 0.230175
N8    N     N_2   0.572825 0.661060 0.866578 -0.271274
H29   H     H_    0.570260 0.750545 0.905089 0.192500
C48   C     C_3   0.631818 0.619940 0.871673 -0.746654
H30   H     H_    0.650151 0.632591 0.975106 0.209400
H31   H     H_    0.657615 0.676017 0.801354 0.245054
H32   H     H_    0.634864 0.519906 0.842253 0.264547
N9    N     N_2   0.372246 0.416226 0.836480 -0.233401
H33   H     H_    0.371796 0.512138 0.845695 0.280175
C49   C     C_3   0.316290 0.356121 0.829776 -0.688325
H34   H     H_    0.285753 0.412215 0.770261 0.241456
H35   H     H_    0.298700 0.345662 0.932130 0.257788
H36   H     H_    0.319560 0.262655 0.780810 0.234982
Br2   Br    Br    0.363807 0.526069 0.114556 -0.534584
Br3   Br    Br    0.947395 0.951798 0.586634 -0.352496

loop_
_geom_bond_atom_site_label_1
_geom_bond_atom_site_label_2
_ccdc_geom_bond_type
C28   H3    S    
C24   N1    S    
C41   C42   A    
C19   C20   A    
C41   N1    A    
N9    C49   S    
C7    C8    A    
C32   N7    S    
C26   C27   A    
C29   C30   A    
C18   C24   A    
C23   C29   S    
C28   C29   A    
C37   C38   S    
C31   H5    S    
C30   C31   S    
N6    C46   S    
C39   H10   S    
C13   H13   S    
C49   H34   S    
C15   C16   A    
C18   C19   A    
N4    Zn1   S    
N7    H25   S    
C38   N9    S    
C2    Br1   S    
C13   C14   A    
C39   Br2   S    
C35   C36   A    
C16   C17   A    
O10   Zn1   S    
C1    O1    A    
O9    Zn2   S    
C7    H11   S    
C34   O11   A    
C20   C34   S    
C25   C32   S    
C5    C43   A    
C21   C22   A    
O6    Zn1   S    
O5    Zn2   S    
C10   N2    A    
C23   O9    A    
C48   H31   S    
N9    H33   S    
C21   H1    S    
C38   C39   S    
O1    Zn1   S    
C9    N2    A    
C19   N5    S    
N5    C45   S    
C8    Br3   S    
N6    H21   S    
C4    C5    A    
C47   H28   S    
C25   C26   A    
C48   H32   S    
C1    O5    A    
C40   N1    A    
C40   O12   S    
C16   H15   S    
C43   C44   A    
C9    O3    S    
O8    Zn1   S    
C17   N2    S    
C31   C32   S    
C46   H24   S    
C33   N3    A    
N7    C47   S    
C33   C39   S    
C20   C21   A    
C47   H27   S    
C32   H6    S    
C6    C7    A    
C34   O10   A    
C27   H2    S    
C18   H16   S    
C12   O7    A    
C46   H23   S    
C45   H18   S    
C45   H19   S    
C31   H4    S    
C35   H7    S    
C1    C26   S    
C15   H14   S    
C22   C24   A    
C42   C43   A    
C3    C4    A    
C37   N4    A    
C25   C30   A    
C12   O6    A    
C11   C17   A    
C23   O8    A    
C8    C44   A    
C12   C14   S    
N5    H17   S    
C6    C10   A    
C36   N8    S    
C3    H8    S    
C41   O2    S    
C10   O4    S    
C45   H20   S    
N8    C48   S    
C2    C3    A    
C11   C13   A    
C5    C6    A    
C38   H9    S    
C49   H35   S    
C2    C42   A    
C48   H30   S    
C22   N6    S    
C47   H26   S    
O11   Zn2   S    
C33   C37   A    
C40   C44   A    
C46   H22   S    
N8    H29   S    
C27   C28   A    
C14   C15   A    
C35   N3    A    
C4    C9    A    
C36   N4    A    
C49   H36   S    
O7    Zn2   S    
C11   H12   S    
N3    Zn2   S    
