data_mof_unit_46550.cif
_audit_creation_date              2012-12-10T17:38:17-0500
_audit_creation_method            fapswitch 2.2
_symmetry_space_group_name_H-M    P1
_symmetry_Int_Tables_number       1
_space_group_crystal_system       triclinic
_cell_length_a                    12.47827
_cell_length_b                    13.137735
_cell_length_c                    19.301697
_cell_angle_alpha                 73.131629
_cell_angle_beta                  101.298822
_cell_angle_gamma                 117.01219
_cell_volume                      2690.12211016

loop_
_atom_site_label
_atom_site_type_symbol
_atom_type_description
_atom_site_fract_x
_atom_site_fract_y
_atom_site_fract_z
_atom_type_partial_charge
C1    C     C_R   0.855654 0.285959 0.503990 0.759928
C2    C     C_R   0.007529 0.512823 0.706586 -0.059964
C3    C     C_R   0.000628 0.520146 0.065503 0.418218
C4    C     C_R   0.009483 0.529068 0.924818 0.452189
C5    C     C_R   0.052082 0.450786 0.194543 -0.188359
C6    C     C_R   0.053108 0.441986 0.268607 0.163428
C7    C     C_R   0.998213 0.500282 0.290679 -0.074588
C8    C     C_R   0.941438 0.562707 0.237827 -0.218643
C9    C     C_R   0.939568 0.570200 0.163828 0.178891
C10   C     C_R   0.996166 0.513815 0.142147 0.012395
C11   C     C_R   0.274998 0.042914 0.425666 -0.165311
C12   C     C_R   0.002818 0.503566 0.631934 0.770980
C13   C     C_R   0.226238 0.839457 0.483067 -0.057759
C14   C     C_R   0.812295 0.069749 0.536967 -0.080916
C15   C     C_R   0.726506 0.952785 0.559752 -0.056110
C16   C     C_R   0.603949 0.928444 0.549915 -0.198175
C17   C     C_R   0.561550 0.012719 0.508192 0.038823
C18   C     C_R   0.647885 0.128023 0.482167 0.035300
C19   C     C_R   0.436216 0.984662 0.489076 0.040242
C20   C     C_R   0.399138 0.072380 0.444607 0.136652
C21   C     C_R   0.486816 0.185250 0.416468 0.131888
C22   C     C_R   0.608519 0.208531 0.431846 -0.159398
C23   C     C_R   0.144351 0.714425 0.491156 0.815467
C24   C     C_R   0.346474 0.869908 0.509686 -0.214673
C25   C     C_R   0.189661 0.927073 0.443710 -0.173136
C26   C     C_R   0.772460 0.159970 0.505359 -0.183576
C27   C     C_R   0.335537 0.321233 0.622945 -0.109253
C28   C     C_R   0.755478 0.640696 0.396392 0.081548
C29   C     C_R   0.650492 0.651257 0.365283 -0.242339
C30   C     C_R   0.546118 0.586572 0.401826 -0.139800
C31   C     C_R   0.545960 0.516960 0.473125 -0.003515
C32   C     C_R   0.650291 0.492758 0.499518 0.264993
C33   C     C_R   0.442329 0.465337 0.516052 -0.076450
C34   C     C_R   0.999037 0.499194 0.367553 0.816922
C35   C     C_R   0.433699 0.374144 0.578131 0.044484
C36   C     C_R   0.521160 0.333703 0.594612 -0.224686
C37   C     C_R   0.632449 0.392850 0.563684 0.170005
C38   C     C_R   0.347223 0.502039 0.501688 0.129808
C39   C     C_R   0.239564 0.350996 0.599728 0.011905
C40   C     C_R   0.079084 0.472827 0.762470 -0.160657
C41   C     C_R   0.081549 0.482071 0.832909 -0.154152
C42   C     C_R   0.013630 0.532526 0.848550 -0.016200
C43   C     C_R   0.945468 0.578276 0.791637 -0.014800
C44   C     C_R   0.941398 0.565457 0.721593 -0.201794
Cu1   Cu    Cu3+1 0.098280 0.475420 0.516260 0.987225
Cu2   Cu    Cu3+1 0.901720 0.524580 0.483740 0.936688
H1    H     H_    0.131329 0.432485 0.752058 0.163963
H2    H     H_    0.243129 0.107485 0.393273 0.159988
H3    H     H_    0.367498 0.799840 0.543826 0.171305
H4    H     H_    0.543749 0.840385 0.573793 0.198264
H5    H     H_    0.672568 0.289910 0.401563 0.177171
H6    H     H_    0.161348 0.310306 0.630963 0.185744
H7    H     H_    0.502059 0.252561 0.635932 0.185746
H8    H     H_    0.134333 0.446797 0.875746 0.161706
H9    H     H_    0.836120 0.688561 0.367073 0.119800
H10   H     H_    0.464672 0.588695 0.371594 0.154012
H11   H     H_    0.648876 0.706921 0.311672 0.150657
H12   H     H_    0.889257 0.600447 0.677993 0.187468
H13   H     H_    0.094208 0.406857 0.177283 0.155588
H14   H     H_    0.899757 0.607754 0.254279 0.154328
H15   H     H_    0.096223 0.905471 0.423958 0.162237
N1    N     N_R   0.904866 0.506508 0.949976 -0.203202
N2    N     N_R   0.900578 0.502436 0.019034 -0.218359
N3    N     N_R   0.104509 0.539524 0.040896 -0.229743
N4    N     N_R   0.108921 0.544002 0.971728 -0.225528
N5    N     N_R   0.246290 0.438200 0.540910 -0.229676
N6    N     N_R   0.754310 0.561190 0.459520 -0.200504
O1    O     O_R   0.972510 0.318130 0.520450 -0.561133
O2    O     O_R   0.806530 0.359650 0.492990 -0.584635
O3    O     O_R   0.083010 0.479220 0.613590 -0.585114
O4    O     O_R   0.917030 0.520740 0.586130 -0.580079
O5    O     O_R   0.193470 0.640350 0.507010 -0.563674
O6    O     O_R   0.027490 0.681870 0.479550 -0.582292
O7    O     O_R   0.082970 0.479260 0.413870 -0.527635
O8    O     O_R   0.916990 0.520780 0.386410 -0.609342
C45   C     C_3   0.453474 0.281383 0.367863 -0.878196
H16   H     H_    0.534288 0.364639 0.351611 0.239806
H17   H     H_    0.401554 0.254046 0.317655 0.236329
H18   H     H_    0.398479 0.300117 0.397034 0.235345
C46   C     C_2   0.941179 0.095525 0.539502 0.906226
O9    O     O_2   0.987746 0.122010 0.482959 -0.623650
O10   O     O_R   0.009395 0.090720 0.605962 -0.692744
H19   H     H_    0.094173 0.104317 0.600157 0.351457
C47   C     C_2   0.759256 0.851591 0.592426 0.882651
O11   O     O_2   0.856889 0.865523 0.625850 -0.546332
O12   O     O_R   0.676144 0.738567 0.585543 -0.722396
H20   H     H_    0.708121 0.677071 0.609312 0.347367
C48   C     C_2   0.333074 0.242326 0.696447 0.811706
O13   O     O_2   0.425109 0.260405 0.737029 -0.569984
O14   O     O_R   0.223733 0.151571 0.720968 -0.745423
H21   H     H_    0.233168 0.105477 0.772130 0.355496
C49   C     C_2   0.366541 0.619398 0.455120 0.853164
O15   O     O_2   0.300342 0.630334 0.400622 -0.603721
O16   O     O_R   0.467444 0.717785 0.470958 -0.748156
H22   H     H_    0.475175 0.792688 0.433538 0.331941
C50   C     C_3   0.706694 0.327933 0.612179 -0.660752
H23   H     H_    0.714664 0.337201 0.668764 0.207628
H24   H     H_    0.656742 0.232644 0.612576 0.183105
H25   H     H_    0.795322 0.339594 0.606236 0.236345
C51   C     C_2   0.883287 0.645350 0.802214 0.896784
O17   O     O_2   0.788551 0.638784 0.766832 -0.570214
O18   O     O_R   0.935055 0.719467 0.850562 -0.737526
H26   H     H_    0.884574 0.760994 0.852402 0.348791
C52   C     C_3   0.110128 0.367509 0.321801 -0.773281
H27   H     H_    0.045650 0.301945 0.362476 0.261846
H28   H     H_    0.134927 0.318278 0.294534 0.208176
H29   H     H_    0.194151 0.423698 0.349239 0.255143
C53   C     C_3   0.881327 0.642213 0.109427 -0.805351
H30   H     H_    0.946179 0.708710 0.069128 0.246101
H31   H     H_    0.799893 0.584220 0.081194 0.253365
H32   H     H_    0.852583 0.689558 0.135848 0.218167

loop_
_geom_bond_atom_site_label_1
_geom_bond_atom_site_label_2
_ccdc_geom_bond_type
C40   H1    S    
C4    N1    A    
C41   C42   A    
C44   H12   S    
C19   C20   A    
C18   C26   A    
C45   H18   S    
C2    C12   S    
C52   H28   S    
C7    C8    A    
Cu1   Cu2   S    
C9    C53   S    
C21   C45   S    
C29   C30   A    
C27   C48   S    
C36   C37   A    
C45   H17   S    
C30   C31   A    
C11   C25   A    
C15   C16   A    
C50   H25   S    
C38   C49   S    
C1    O1    A    
C53   H30   S    
C13   C23   S    
C4    N4    A    
C52   H27   S    
Cu2   O2    S    
C36   H7    S    
C17   C19   A    
C47   O11   D    
C38   N5    A    
C2    C44   A    
C8    C9    A    
C50   H24   S    
C31   C33   A    
C6    C52   S    
C9    C10   A    
C34   O8    A    
C48   O13   D    
C39   H6    S    
C21   C22   A    
Cu1   O5    S    
C13   C25   A    
C11   H2    S    
O16   H22   S    
C23   O6    A    
C51   O18   S    
Cu2   O8    S    
C28   H9    S    
C11   C20   A    
C5    H13   S    
C28   N6    A    
C45   H16   S    
C46   O10   S    
C27   C39   A    
O12   H20   S    
C16   C17   A    
C27   C35   A    
C3    N3    A    
C30   H10   S    
C14   C26   A    
C13   C24   A    
Cu1   O7    S    
C35   C36   A    
C43   C44   A    
N1    N2    A    
C31   C32   A    
C50   H23   S    
Cu1   O1    S    
C49   O16   S    
C17   C18   A    
C25   H15   S    
C32   C37   A    
C43   C51   S    
Cu2   O4    S    
C15   C47   S    
C34   O7    A    
C32   N6    A    
C40   C41   A    
C12   O4    A    
C48   O14   S    
C14   C46   S    
C1    C26   S    
C39   N5    A    
C42   C43   A    
C7    C34   S    
C29   H11   S    
C24   H3    S    
C12   O3    A    
C28   C29   A    
Cu1   O3    S    
C18   C22   A    
C23   O5    A    
C47   O12   S    
C46   O9    D    
C6    C7    A    
C3    N2    A    
C33   C38   A    
C53   H32   S    
N3    N4    A    
C19   C24   A    
C5    C10   A    
C3    C10   S    
C8    H14   S    
O14   H21   S    
C5    C6    A    
C4    C42   S    
C49   O15   D    
C33   C35   A    
C53   H31   S    
C52   H29   S    
O18   H26   S    
C16   H4    S    
C1    O2    A    
C41   H8    S    
C2    C40   A    
Cu2   N6    S    
C20   C21   A    
C37   C50   S    
O10   H19   S    
Cu1   N5    S    
C14   C15   A    
C51   O17   D    
Cu2   O6    S    
C22   H5    S    
