data_mof_unit_14038.cif
_audit_creation_date              2012-12-10T20:31:57-0500
_audit_creation_method            fapswitch 2.2
_symmetry_space_group_name_H-M    P1
_symmetry_Int_Tables_number       1
_space_group_crystal_system       triclinic
_cell_length_a                    9.938097
_cell_length_b                    10.70108
_cell_length_c                    15.10829
_cell_angle_alpha                 91.020189
_cell_angle_beta                  69.523293
_cell_angle_gamma                 88.553064
_cell_volume                      1504.13041869

loop_
_atom_site_label
_atom_site_type_symbol
_atom_type_description
_atom_site_fract_x
_atom_site_fract_y
_atom_site_fract_z
_atom_type_partial_charge
C1    C     C_R   0.499138 0.739893 0.499549 0.874168
C2    C     C_R   0.402463 0.608812 0.917064 0.089742
C3    C     C_R   0.258121 0.584846 0.972791 0.132188
C4    C     C_R   0.498110 0.650481 0.961467 0.045093
C5    C     C_R   0.452053 0.649059 0.060965 0.013698
C6    C     C_R   0.302259 0.651899 0.114087 0.135266
C7    C     C_R   0.208180 0.612308 0.069740 -0.257137
C8    C     C_R   0.640308 0.686476 0.911130 -0.213883
C9    C     C_R   0.739045 0.700221 0.957192 -0.240283
C10   C     C_R   0.701887 0.665777 0.051254 0.193358
C11   C     C_R   0.558921 0.634220 0.101924 0.084277
C12   C     C_R   0.410822 0.503662 0.676522 0.866325
C13   C     C_R   0.806140 0.654978 0.093993 -0.232140
C14   C     C_R   0.772650 0.599457 0.182017 -0.208596
C15   C     C_R   0.530410 0.571112 0.186072 -0.282038
C16   C     C_R   0.382795 0.941772 0.562948 0.117538
C17   C     C_R   0.499692 0.872552 0.501534 -0.092740
C18   C     C_R   0.628771 0.931515 0.454252 -0.221704
C19   C     C_R   0.631647 0.060660 0.457148 -0.223733
C20   C     C_R   0.505366 0.129295 0.507458 -0.087312
C21   C     C_R   0.386275 0.069607 0.566612 0.124489
C22   C     C_3   0.231666 0.087425 0.579152 -0.473997
C23   C     C_R   0.501596 0.260603 0.500790 0.875831
C24   C     C_3   0.228733 0.946774 0.571105 -0.499642
C25   C     C_R   0.890608 0.563685 0.568797 0.210860
C26   C     C_R   0.959491 0.423406 0.440601 -0.142555
C27   C     C_R   0.103737 0.422368 0.439059 0.183120
C28   C     C_R   0.032317 0.563374 0.569013 0.173391
C29   C     C_3   0.021213 0.699994 0.589616 -0.519214
C30   C     C_3   0.868222 0.700068 0.590612 -0.487039
C31   C     C_R   0.588490 0.508307 0.323970 0.855474
C32   C     C_R   0.357108 0.527556 0.778751 -0.062332
C33   C     C_R   0.634997 0.553657 0.227104 -0.045265
C34   C     C_R   0.165132 0.534804 0.930687 -0.204767
C35   C     C_R   0.214077 0.507115 0.834027 -0.199011
C36   C     C_R   0.449777 0.578608 0.820219 -0.248112
H1    H     H_    0.095927 0.602784 0.111315 0.146789
H2    H     H_    0.913342 0.687580 0.058579 0.136878
H3    H     H_    0.724577 0.878379 0.411615 0.160227
H4    H     H_    0.167108 0.126225 0.650625 0.202144
H5    H     H_    0.213289 0.134860 0.519591 0.209851
H6    H     H_    0.215254 0.916467 0.504142 0.206444
H7    H     H_    0.928869 0.362537 0.393472 0.160218
H8    H     H_    0.028691 0.722377 0.659800 0.198201
H9    H     H_    0.093591 0.749173 0.528530 0.217165
H10   H     H_    0.786519 0.720816 0.661660 0.188465
H11   H     H_    0.853202 0.593006 0.214983 0.153332
H12   H     H_    0.140750 0.468626 0.802737 0.154996
H13   H     H_    0.559937 0.591252 0.776040 0.151616
H14   H     H_    0.677194 0.704904 0.836627 0.137259
N1    N     N_R   0.856900 0.500860 0.500610 -0.124480
N2    N     N_R   0.142540 0.500820 0.500610 -0.131020
O1    O     O_R   0.385310 0.683210 0.499990 -0.610739
O2    O     O_R   0.614650 0.683240 0.500000 -0.620731
O3    O     O_R   0.319830 0.499970 0.632240 -0.607325
O4    O     O_R   0.549170 0.500000 0.632250 -0.607666
O5    O     O_R   0.385350 0.316760 0.500000 -0.642423
O6    O     O_R   0.614690 0.316790 0.500010 -0.612865
O7    O     O_R   0.450830 0.500000 0.367750 -0.625915
O8    O     O_R   0.680170 0.500030 0.367760 -0.614259
Zn1   Zn    Zn3+2 0.346870 0.499980 0.499990 0.925036
Zn2   Zn    Zn3+2 0.653130 0.500020 0.500010 0.934709
H15   H     H_    0.728541 0.106452 0.415432 0.157042
H16   H     H_    0.158033 0.905162 0.637220 0.206204
C37   C     C_3   0.205610 0.325687 0.372470 -0.371313
C38   C     C_3   0.210918 0.333433 0.270156 -0.934441
H17   H     H_    0.215960 0.431266 0.247696 0.259812
H18   H     H_    0.307409 0.280576 0.222424 0.259676
H19   H     H_    0.115000 0.291298 0.261807 0.253550
H20   H     H_    0.315522 0.330587 0.371196 0.270315
H21   H     H_    0.168840 0.231344 0.397436 0.178077
H22   H     H_    0.425951 0.532938 0.219450 0.173528
H23   H     H_    0.853042 0.753660 0.532234 0.221817
H24   H     H_    0.847694 0.726310 0.917029 0.146512
H25   H     H_    0.055328 0.514840 0.972633 0.145240
C39   C     C_3   0.239105 0.708713 0.213767 -0.417272
C40   C     C_3   0.143792 0.824542 0.217546 -0.859748
H26   H     H_    0.205315 0.894465 0.166961 0.267342
H27   H     H_    0.047775 0.799488 0.200388 0.253736
H28   H     H_    0.106344 0.867452 0.289924 0.242376
H29   H     H_    0.174084 0.639475 0.263109 0.205428
H30   H     H_    0.324316 0.739424 0.240175 0.222892

loop_
_geom_bond_atom_site_label_1
_geom_bond_atom_site_label_2
_ccdc_geom_bond_type
O6    Zn2   S    
C23   O6    A    
C38   H18   S    
C16   C21   A    
C24   H6    S    
C19   C20   A    
C4    C8    A    
C14   C33   A    
C40   H26   S    
C25   C28   A    
C15   H22   S    
C26   C27   A    
C32   C36   A    
C28   C29   S    
C5    C11   A    
C3    C7    A    
N2    Zn1   S    
C5    C6    A    
C38   H19   S    
C37   H20   S    
C8    C9    A    
O8    Zn2   S    
C34   C35   A    
C31   O7    A    
C1    O1    A    
O1    Zn1   S    
C19   H15   S    
C16   C17   A    
C31   C33   S    
C9    C10   A    
C34   H25   S    
C38   H17   S    
C24   H16   S    
C13   C14   A    
C12   C32   S    
N1    Zn2   S    
C11   C15   A    
C35   H12   S    
C26   H7    S    
C40   H27   S    
O7    Zn1   S    
C32   C35   A    
C39   C40   S    
C39   H30   S    
C30   H23   S    
C18   C19   A    
O2    Zn2   S    
C3    C34   A    
C37   H21   S    
C29   H9    S    
C31   O8    A    
C2    C4    A    
C18   H3    S    
C25   N1    A    
C29   C30   S    
C27   C37   S    
C20   C23   S    
C22   H4    S    
C17   C18   A    
C7    H1    S    
C12   O4    A    
C6    C39   S    
C13   H2    S    
C14   H11   S    
C1    O2    A    
C29   H8    S    
C22   C24   S    
C9    H24   S    
C8    H14   S    
C27   N2    A    
C40   H28   S    
C2    C36   A    
C25   C30   S    
C23   O5    A    
C30   H10   S    
C4    C5    A    
C10   C13   A    
C39   H29   S    
O5    Zn1   S    
C6    C7    A    
C1    C17   S    
C2    C3    A    
C26   N1    A    
C28   N2    A    
O3    Zn1   S    
O4    Zn2   S    
C12   O3    A    
C10   C11   A    
C22   H5    S    
C20   C21   A    
C16   C24   S    
C37   C38   S    
C21   C22   S    
C15   C33   A    
C36   H13   S    
