data_mof_unit_45499.cif
_audit_creation_date              2013-03-05T15:39:51-0500
_audit_creation_method            fapswitch 2.2
_symmetry_space_group_name_H-M    P1
_symmetry_Int_Tables_number       1
_space_group_crystal_system       triclinic
_cell_length_a                    16.913987
_cell_length_b                    16.945362
_cell_length_c                    16.923361
_cell_angle_alpha                 66.221986
_cell_angle_beta                  65.678013
_cell_angle_gamma                 65.63274
_cell_volume                      3863.98385475

loop_
_atom_site_label
_atom_site_type_symbol
_atom_site_description
_atom_site_fract_x
_atom_site_fract_y
_atom_site_fract_z
_atom_type_partial_charge
O1    O     O_R   0.982940 0.138950 0.510160 -0.619390
O2    O     O_R   0.017060 0.861050 0.489840 -0.624972
O3    O     O_R   0.138950 0.510160 0.982940 -0.634246
O4    O     O_R   0.861050 0.489840 0.017060 -0.640625
O5    O     O_R   0.510160 0.982940 0.138950 -0.628620
O6    O     O_R   0.489840 0.017060 0.861050 -0.628251
O7    O     O_R   0.489840 0.861050 0.017060 -0.629302
O8    O     O_R   0.510160 0.138950 0.982940 -0.629733
O9    O     O_R   0.017060 0.489840 0.861050 -0.634108
O10   O     O_R   0.982940 0.510160 0.138950 -0.634274
O11   O     O_R   0.861050 0.017060 0.489840 -0.627988
O12   O     O_R   0.138950 0.982940 0.510160 -0.622599
C1    C     C_R   0.591417 0.032276 0.591543 0.242024
C2    C     C_R   0.408715 0.967243 0.408606 0.240589
C3    C     C_R   0.016167 0.596642 0.596330 0.240627
C4    C     C_R   0.952493 0.412325 0.413739 0.248891
C5    C     C_R   0.590898 0.592092 0.032320 0.244858
C6    C     C_R   0.409161 0.407994 0.967415 0.241889
O13   O     O_R   0.867700 0.025880 0.612340 -0.573335
O14   O     O_R   0.132300 0.974120 0.387660 -0.563298
O15   O     O_R   0.025880 0.612340 0.867700 -0.568475
O16   O     O_R   0.974120 0.387660 0.132300 -0.569715
O17   O     O_R   0.612340 0.867700 0.025880 -0.571952
O18   O     O_R   0.387660 0.132300 0.974120 -0.565060
O19   O     O_R   0.387660 0.974120 0.132300 -0.566049
O20   O     O_R   0.612340 0.025880 0.867700 -0.572987
O21   O     O_R   0.132300 0.387660 0.974120 -0.558533
O22   O     O_R   0.867700 0.612340 0.025880 -0.568836
O23   O     O_R   0.974120 0.132300 0.387660 -0.577039
O24   O     O_R   0.025880 0.867700 0.612340 -0.574874
C7    C     C_R   0.972224 0.177140 0.433910 0.924611
C8    C     C_R   0.032840 0.821615 0.564322 0.917217
C9    C     C_R   0.178627 0.436035 0.965361 0.928878
C10   C     C_R   0.821366 0.563962 0.034652 0.907667
C11   C     C_R   0.436441 0.965151 0.178429 0.929981
C12   C     C_R   0.563556 0.034844 0.821570 0.919905
C13   C     C_R   0.563537 0.821615 0.034978 0.924042
C14   C     C_R   0.436450 0.178382 0.965036 0.933734
C15   C     C_R   0.032876 0.564248 0.821617 0.919157
C16   C     C_R   0.972958 0.433739 0.177102 0.931627
C17   C     C_R   0.821356 0.034896 0.563857 0.914207
C18   C     C_R   0.178640 0.965103 0.436140 0.930886
Zn1   Zn    Zn3+2 0.004880 0.004880 0.583590 1.151681
Zn2   Zn    Zn3+2 0.995120 0.995120 0.416410 1.149376
Zn3   Zn    Zn3+2 0.004880 0.583590 0.004880 1.135866
Zn4   Zn    Zn3+2 0.995120 0.416410 0.995120 1.138399
Zn5   Zn    Zn3+2 0.583590 0.004880 0.004880 1.145175
Zn6   Zn    Zn3+2 0.416410 0.995120 0.995120 1.157796
C19   C     C_R   0.544732 0.015351 0.544744 -0.396732
C20   C     C_R   0.455414 0.984084 0.455451 -0.395794
C21   C     C_R   0.997026 0.550047 0.551034 -0.399033
C22   C     C_R   0.964192 0.459566 0.463878 -0.397300
C23   C     C_R   0.544299 0.545093 0.015503 -0.378400
C24   C     C_R   0.455786 0.455000 0.984185 -0.381331
C25   C     C_R   0.587412 0.944110 0.504390 0.527147
C26   C     C_R   0.412739 0.055315 0.495813 0.528797
C27   C     C_R   0.050771 0.461630 0.547710 0.534679
C28   C     C_R   0.910041 0.547977 0.467251 0.536544
C29   C     C_R   0.504164 0.586773 0.944768 0.502934
C30   C     C_R   0.495919 0.413324 0.054919 0.507304
C31   C     C_R   0.543290 0.928823 0.460068 0.547813
C32   C     C_R   0.456857 0.070602 0.540130 0.544814
C33   C     C_R   0.460252 0.542284 0.929455 0.533745
C34   C     C_R   0.539832 0.457811 0.070230 0.529101
C35   C     C_R   0.034668 0.417025 0.504691 0.521034
C36   C     C_R   0.926079 0.592736 0.510707 0.519623
C37   C     C_R   0.549953 0.037051 0.680556 -0.101184
C38   C     C_R   0.450136 0.962611 0.319543 -0.100154
C39   C     C_R   0.023625 0.684117 0.554632 -0.119852
C40   C     C_R   0.951514 0.322484 0.452540 -0.105201
C41   C     C_R   0.680197 0.551036 0.036386 -0.129571
C42   C     C_R   0.319853 0.449051 0.963378 -0.111192
C43   C     C_R   0.319550 0.962993 0.449485 -0.107233
C44   C     C_R   0.680550 0.036608 0.550636 -0.123012
C45   C     C_R   0.450366 0.319052 0.962590 -0.121451
C46   C     C_R   0.549655 0.681000 0.037238 -0.122698
C47   C     C_R   0.954064 0.451747 0.322995 -0.134742
C48   C     C_R   0.023843 0.554881 0.683824 -0.119303
H1    H     H_    0.484416 0.024779 0.716330 0.206239
H2    H     H_    0.515703 0.974821 0.283802 0.205085
H3    H     H_    0.011910 0.719862 0.489192 0.215233
H4    H     H_    0.944025 0.292123 0.524179 0.201884
H5    H     H_    0.716267 0.485567 0.023727 0.198227
H6    H     H_    0.283815 0.514561 0.975947 0.200388
H7    H     H_    0.283893 0.973265 0.516012 0.215498
H8    H     H_    0.716245 0.026220 0.484159 0.213244
H9    H     H_    0.516948 0.283608 0.972519 0.211867
H10   H     H_    0.483094 0.716461 0.027262 0.212980
H11   H     H_    0.950146 0.522530 0.292159 0.212829
H12   H     H_    0.009979 0.490506 0.720174 0.201654
C49   C     C_R   0.595330 0.052129 0.724749 -0.186716
C50   C     C_R   0.404672 0.947771 0.275260 -0.184428
C51   C     C_R   0.044489 0.725916 0.598002 -0.208705
C52   C     C_R   0.967331 0.270280 0.397400 -0.190006
C53   C     C_R   0.724269 0.596495 0.051504 -0.202925
C54   C     C_R   0.275721 0.403527 0.948435 -0.192289
C55   C     C_R   0.275647 0.948263 0.403612 -0.207722
C56   C     C_R   0.724360 0.051611 0.596408 -0.215720
C57   C     C_R   0.404603 0.275072 0.947863 -0.191623
C58   C     C_R   0.595359 0.724925 0.052125 -0.193292
C59   C     C_R   0.968642 0.397232 0.270380 -0.206610
C60   C     C_R   0.044969 0.597754 0.725720 -0.183646
C61   C     C_R   0.676939 0.071636 0.678082 0.257828
C62   C     C_R   0.322996 0.928385 0.321866 0.264568
C63   C     C_R   0.065974 0.678196 0.678389 0.253425
C64   C     C_R   0.987625 0.305165 0.305207 0.244095
C65   C     C_R   0.677010 0.678090 0.071599 0.249337
C66   C     C_R   0.322904 0.321870 0.928479 0.255598
F1    F     F_    0.414533 0.141046 0.576622 -0.541503
F2    F     F_    0.585613 0.858390 0.423560 -0.537936
F3    F     F_    0.871066 0.677059 0.514945 -0.550015
F4    F     F_    0.090840 0.333201 0.499638 -0.550601
F5    F     F_    0.576063 0.416404 0.140221 -0.573642
F6    F     F_    0.424006 0.583693 0.859474 -0.561123
F7    F     F_    0.329233 0.111911 0.490117 -0.549430
F8    F     F_    0.670924 0.887523 0.510077 -0.548451
F9    F     F_    0.490342 0.330445 0.111072 -0.586093
F10   F     F_    0.509726 0.669661 0.888633 -0.587564
F11   F     F_    0.840800 0.590497 0.429672 -0.544707
F12   F     F_    0.121351 0.419299 0.583482 -0.545270
N1    N     N_R   0.709727 0.113813 0.712125 0.216853
O25   O     O_R   0.674260 0.199910 0.703963 -0.351416
O26   O     O_R   0.764221 0.065461 0.762074 -0.333972
N2    N     N_R   0.290031 0.886528 0.287654 0.214768
O27   O     O_R   0.325251 0.800434 0.295736 -0.346865
O28   O     O_R   0.235572 0.935150 0.237696 -0.317011
N3    N     N_R   0.111508 0.709405 0.710244 0.218995
O29   O     O_R   0.198483 0.673391 0.698282 -0.321543
O30   O     O_R   0.065421 0.763677 0.761334 -0.327583
N4    N     N_R   0.041209 0.246817 0.246809 0.228888
O31   O     O_R   0.002472 0.216748 0.217020 -0.321826
O32   O     O_R   0.129351 0.225749 0.221770 -0.358990
N5    N     N_R   0.710000 0.711885 0.113835 0.221328
O33   O     O_R   0.675512 0.702669 0.200234 -0.307511
O34   O     O_R   0.764154 0.762055 0.065474 -0.325507
N6    N     N_R   0.289719 0.287950 0.886542 0.219329
O35   O     O_R   0.235752 0.237608 0.935118 -0.307266
O36   O     O_R   0.323140 0.298069 0.799955 -0.304808

loop_
_geom_bond_atom_site_label_1
_geom_bond_atom_site_label_2
_geom_bond_distance
_ccdc_geom_bond_type
C38   H2    1.083697 S    
C6    C45   1.396248 A    
C48   C60   1.412975 A    
C47   C59   1.414742 A    
O1    C7    1.240677 A    
C23   C29   1.408761 A    
C44   C56   1.414495 A    
C24   C30   1.408737 A    
O21   C9    1.282306 A    
C43   C55   1.414377 A    
C57   C66   1.380358 A    
O5    Zn5   2.051414 S    
C47   H11   1.083303 S    
O6    Zn6   2.051414 S    
O2    C8    1.247934 A    
C40   C52   1.410545 A    
C66   N6    1.439585 S    
O12   Zn1   2.044598 S    
C39   C51   1.415538 A    
C23   C34   1.407467 A    
C3    C48   1.395590 A    
C41   C53   1.415776 A    
C25   F8    1.357894 S    
O3    C9    1.248153 A    
C56   C61   1.381795 A    
O5    C11   1.246390 A    
O9    C15   1.248777 A    
C60   C63   1.382265 A    
O10   C16   1.240465 A    
C4    C47   1.399675 A    
O12   C18   1.247560 A    
C51   C63   1.383589 A    
C16   C59   1.426470 S    
C33   F6    1.357878 S    
C28   C36   1.404857 A    
O2    Zn2   2.061777 S    
O13   Zn1   2.067692 S    
C5    C46   1.396206 A    
O18   C14   1.282516 A    
C34   F5    1.357862 S    
C3    C21   1.489719 S    
C36   F3    1.357642 S    
C46   H10   1.083318 S    
C41   H5    1.083677 S    
C11   C50   1.441152 S    
C8    C51   1.441172 S    
C54   C66   1.381745 A    
O22   C10   1.282347 A    
O9    Zn4   2.060296 S    
C53   C65   1.381874 A    
O8    C14   1.246247 A    
C31   F2    1.357920 S    
C37   C49   1.415069 A    
O14   Zn2   2.067692 S    
O1    Zn1   2.061777 S    
O15   Zn3   2.074751 S    
C6    C42   1.396409 A    
C3    C39   1.395917 A    
O4    C10   1.248215 A    
O22   Zn3   2.067576 S    
O17   Zn5   2.076003 S    
C63   N3    1.439263 S    
O18   Zn6   2.076005 S    
C2    C43   1.395809 A    
O11   Zn2   2.044598 S    
C4    C40   1.398162 A    
C10   C53   1.440924 S    
N6    O36   1.300476 A    
C18   C55   1.439751 S    
C49   C61   1.380709 A    
C6    C24   1.490622 S    
N6    O35   1.302175 A    
O4    Zn4   2.044278 S    
O17   C13   1.282653 A    
O3    Zn3   2.044278 S    
C20   C26   1.408646 A    
C21   C36   1.410408 A    
N4    O32   1.300790 A    
N3    O30   1.302099 A    
C35   F4    1.358320 S    
O15   C15   1.281896 A    
O16   C16   1.279604 A    
O10   Zn3   2.060296 S    
C45   C57   1.414696 A    
O7    C13   1.246147 A    
C37   H1    1.083700 S    
C30   F9    1.357791 S    
C44   H8    1.083361 S    
O19   Zn6   2.073490 S    
C43   H7    1.083365 S    
N1    O25   1.300393 A    
C42   H6    1.083678 S    
C22   C28   1.407212 A    
O20   Zn5   2.073490 S    
O19   C11   1.282461 A    
C27   F12   1.358195 S    
C1    C19   1.489351 S    
C12   C49   1.441149 S    
C45   H9    1.083318 S    
O16   Zn4   2.074751 S    
C5    C41   1.396417 A    
C29   F10   1.357785 S    
O23   Zn2   2.077376 S    
N5    O33   1.300392 A    
C26   C32   1.401288 A    
O24   Zn1   2.077378 S    
N3    O29   1.300402 A    
C61   N1    1.439622 S    
C9    C54   1.440734 S    
C5    C23   1.490640 S    
O21   Zn4   2.067577 S    
C15   C60   1.441303 S    
N2    O28   1.302168 A    
C1    C37   1.396021 A    
O20   C12   1.282551 A    
C59   C64   1.373129 A    
C64   N4    1.444457 S    
C52   C64   1.372622 A    
C58   C65   1.380343 A    
C19   C32   1.407186 A    
C4    C22   1.488849 S    
C27   C35   1.397303 A    
C14   C57   1.440761 S    
O14   C18   1.280858 A    
C62   N2    1.439646 S    
C46   C58   1.414735 A    
C7    C52   1.423938 S    
C29   C33   1.401891 A    
C30   C34   1.401824 A    
O7    Zn6   2.052583 S    
N4    O31   1.302944 A    
O8    Zn5   2.052581 S    
O23   C7    1.276626 A    
C19   C25   1.408711 A    
O24   C8    1.281066 A    
C2    C20   1.489335 S    
C32   F1    1.357919 S    
C48   H12   1.083731 S    
C25   C31   1.401404 A    
C28   F11   1.357513 S    
C38   C50   1.415055 A    
C26   F7    1.357871 S    
O6    C12   1.246313 A    
O11   C17   1.247507 A    
C40   H4    1.083911 S    
N1    O26   1.302127 A    
C55   C62   1.381755 A    
C39   H3    1.083242 S    
C50   C62   1.380754 A    
C42   C54   1.415686 A    
C21   C27   1.405807 A    
C1    C44   1.395762 A    
C65   N5    1.439631 S    
C24   C33   1.407497 A    
N5    O34   1.302133 A    
C20   C31   1.407234 A    
C2    C38   1.396057 A    
C17   C56   1.439845 S    
C13   C58   1.440833 S    
C22   C35   1.408996 A    
O13   C17   1.280957 A    
N2    O27   1.300388 A    
