data_mof_unit_64265.cif
_audit_creation_date              2012-12-10T18:32:03-0500
_audit_creation_method            fapswitch 2.2
_symmetry_space_group_name_H-M    P1
_symmetry_Int_Tables_number       1
_space_group_crystal_system       triclinic
_cell_length_a                    18.261796
_cell_length_b                    18.284366
_cell_length_c                    51.217373
_cell_angle_alpha                 89.999981
_cell_angle_beta                  89.999982
_cell_angle_gamma                 90.0
_cell_volume                      17101.7554662

loop_
_atom_site_label
_atom_site_type_symbol
_atom_type_description
_atom_site_fract_x
_atom_site_fract_y
_atom_site_fract_z
_atom_type_partial_charge
C1    C     C_R   0.000000 0.500000 0.679546 0.784733
C2    C     C_R   0.133103 0.500665 0.486369 -0.154624
C3    C     C_3   0.723387 0.337383 0.749236 0.213028
C4    C     C_3   0.664253 0.277557 0.744943 0.195291
C5    C     C_3   0.723395 0.662626 0.250805 0.213025
C6    C     C_3   0.335747 0.722443 0.744943 0.195290
C7    C     C_3   0.276604 0.337374 0.250805 0.213025
C8    C     C_3   0.761243 0.698000 0.722218 0.646293
C9    C     C_3   0.692218 0.247723 0.276860 0.632368
C10   C     C_3   0.238757 0.302000 0.722218 0.646293
C11   C     C_3   0.307782 0.752277 0.276860 0.632369
C12   C     C_3   0.238676 0.698081 0.277801 0.646197
C13   C     C_R   0.451669 0.876119 0.513564 -0.154332
C14   C     C_3   0.307856 0.247796 0.723163 0.632387
C15   C     C_3   0.761324 0.301919 0.277801 0.646197
C16   C     C_3   0.692144 0.752204 0.723163 0.632387
C17   C     C_3   0.261324 0.198081 0.222199 0.646197
C18   C     C_3   0.192144 0.747796 0.776837 0.632387
C19   C     C_3   0.738676 0.801919 0.222199 0.646197
C20   C     C_3   0.807856 0.252204 0.776837 0.632387
C21   C     C_3   0.738757 0.198000 0.777782 0.646293
C22   C     C_3   0.807782 0.747723 0.223140 0.632369
C23   C     C_3   0.261243 0.802000 0.777782 0.646293
C24   C     C_R   0.866897 0.499335 0.486369 -0.154624
C25   C     C_3   0.192218 0.252276 0.223140 0.632369
C26   C     C_3   0.744688 0.686048 0.771578 -0.515566
C27   C     C_3   0.690852 0.249877 0.226755 -0.514533
C28   C     C_3   0.255312 0.313952 0.771578 -0.515566
C29   C     C_3   0.309148 0.750123 0.226755 -0.514534
C30   C     C_3   0.255383 0.685976 0.228451 -0.515918
C31   C     C_3   0.309075 0.249802 0.773269 -0.514133
C32   C     C_3   0.744617 0.314024 0.228451 -0.515917
C33   C     C_3   0.690925 0.750198 0.773269 -0.514134
C34   C     C_3   0.244617 0.185976 0.271548 -0.515918
C35   C     C_R   0.548505 0.123821 0.486321 -0.154826
C36   C     C_3   0.190925 0.749802 0.726731 -0.514135
C37   C     C_3   0.755383 0.814024 0.271548 -0.515918
C38   C     C_3   0.809075 0.250198 0.726731 -0.514132
C39   C     C_3   0.755312 0.186048 0.728422 -0.515566
C40   C     C_3   0.809148 0.749877 0.273245 -0.514533
C41   C     C_3   0.244688 0.813952 0.728422 -0.515565
C42   C     C_3   0.190852 0.250123 0.273245 -0.514533
C43   C     C_3   0.801775 0.699921 0.749513 -0.159065
C44   C     C_3   0.698853 0.199278 0.251207 -0.165959
C45   C     C_3   0.198225 0.300079 0.749513 -0.159064
C46   C     C_R   0.866898 0.499318 0.513621 -0.154496
C47   C     C_3   0.301147 0.800722 0.251207 -0.165959
C48   C     C_3   0.198229 0.699917 0.250489 -0.158564
C49   C     C_3   0.301145 0.199275 0.748795 -0.166475
C50   C     C_3   0.801771 0.300083 0.250489 -0.158565
C51   C     C_3   0.698855 0.800725 0.748795 -0.166475
C52   C     C_3   0.301771 0.199917 0.249511 -0.158564
C53   C     C_3   0.198855 0.699275 0.751205 -0.166475
C54   C     C_3   0.698229 0.800083 0.249511 -0.158565
C55   C     C_3   0.801145 0.300725 0.751205 -0.166476
C56   C     C_3   0.698225 0.199921 0.750487 -0.159065
C57   C     C_R   0.451495 0.876179 0.486321 -0.154826
C58   C     C_3   0.801147 0.699278 0.248793 -0.165959
C59   C     C_3   0.301775 0.800079 0.750487 -0.159065
C60   C     C_3   0.198853 0.300722 0.248793 -0.165959
C61   C     C_R   0.476559 0.938972 0.554866 0.504995
C62   C     C_R   0.934563 0.499611 0.445042 0.506301
C63   C     C_R   0.523441 0.061028 0.554866 0.504996
C64   C     C_R   0.065437 0.500388 0.445042 0.506301
C65   C     C_R   0.476053 0.939166 0.445022 0.506090
C66   C     C_R   0.065437 0.500262 0.554948 0.506366
C67   C     C_R   0.523947 0.060833 0.445022 0.506092
C68   C     C_R   0.133102 0.500682 0.513621 -0.154497
C69   C     C_R   0.934562 0.499738 0.554948 0.506365
C70   C     C_R   0.023947 0.439166 0.054978 0.506091
C71   C     C_R   0.434562 0.000262 0.945052 0.506365
C72   C     C_R   0.976053 0.560833 0.054978 0.506091
C73   C     C_R   0.565437 0.999738 0.945052 0.506365
C74   C     C_R   0.023441 0.438972 0.945134 0.504995
C75   C     C_R   0.565437 0.999611 0.054958 0.506301
C76   C     C_R   0.976559 0.561028 0.945134 0.504995
C77   C     C_R   0.434563 0.000389 0.054958 0.506301
C78   C     C_R   0.524208 0.062181 0.527473 -0.017159
C79   C     C_R   0.951495 0.623821 0.013679 -0.154826
C80   C     C_R   0.066799 0.500301 0.472450 -0.018266
C81   C     C_R   0.475792 0.937819 0.527473 -0.017159
C82   C     C_R   0.933201 0.499699 0.472450 -0.018267
C83   C     C_R   0.524431 0.062111 0.472414 -0.017289
C84   C     C_R   0.933202 0.499628 0.527540 -0.018298
C85   C     C_R   0.475569 0.937889 0.472414 -0.017290
C86   C     C_R   0.066798 0.500372 0.527540 -0.018299
C87   C     C_R   0.975569 0.562111 0.027586 -0.017289
C88   C     C_R   0.566798 0.999628 0.972460 -0.018298
C89   C     C_R   0.024431 0.437889 0.027586 -0.017290
C90   C     C_R   0.633102 0.999318 0.986379 -0.154496
C91   C     C_R   0.433202 0.000372 0.972460 -0.018298
C92   C     C_R   0.975792 0.562181 0.972527 -0.017159
C93   C     C_R   0.433201 0.000301 0.027550 -0.018266
C94   C     C_R   0.024208 0.437819 0.972527 -0.017158
C95   C     C_R   0.566799 0.999699 0.027550 -0.018267
C96   C     C_R   0.500000 1.000000 0.513725 -0.019321
C97   C     C_R   1.000000 0.500000 0.486206 -0.019025
C98   C     C_R   0.500000 0.000000 0.486162 -0.019462
C99   C     C_R   1.000000 0.500000 0.513784 -0.019028
C100  C     C_R   0.000000 0.500000 0.013838 -0.019462
C101  C     C_R   0.048505 0.376179 0.013679 -0.154827
C102  C     C_R   0.500000 1.000000 0.986216 -0.019028
C103  C     C_R   1.000000 0.500000 0.986275 -0.019321
C104  C     C_R   0.500000 0.000000 0.013794 -0.019025
C105  C     C_3   0.795504 0.705066 0.676959 0.231306
C106  C     C_3   0.849871 0.649467 0.665864 -0.351369
C107  C     C_3   0.830476 0.629424 0.637766 -0.910180
C108  C     C_3   0.628107 0.180454 0.311049 0.184135
C109  C     C_3   0.610130 0.228959 0.334611 -0.401450
C110  C     C_3   0.537644 0.206986 0.347159 -0.857424
C111  C     C_3   0.204496 0.294934 0.676959 0.231306
C112  C     C_R   0.500000 1.000000 0.320478 0.757191
C113  C     C_R   0.366898 0.000682 0.986379 -0.154497
C114  C     C_3   0.150129 0.350532 0.665864 -0.351369
C115  C     C_3   0.169524 0.370576 0.637766 -0.910181
C116  C     C_3   0.371892 0.819545 0.311049 0.184135
C117  C     C_3   0.389870 0.771041 0.334611 -0.401450
C118  C     C_3   0.462356 0.793014 0.347159 -0.857424
C119  C     C_3   0.204275 0.705303 0.323044 0.231935
C120  C     C_3   0.149857 0.649770 0.334147 -0.352567
C121  C     C_3   0.169152 0.629857 0.362266 -0.907456
C122  C     C_3   0.372063 0.180527 0.688999 0.186562
C123  C     C_3   0.390211 0.228998 0.665447 -0.407361
C124  C     C_R   0.951668 0.623880 0.986436 -0.154332
C125  C     C_3   0.462696 0.206870 0.652931 -0.860071
C126  C     C_3   0.795724 0.294696 0.323044 0.231934
C127  C     C_3   0.850143 0.350230 0.334147 -0.352568
C128  C     C_3   0.830848 0.370143 0.362266 -0.907456
C129  C     C_3   0.627937 0.819473 0.688999 0.186562
C130  C     C_3   0.609789 0.771002 0.665447 -0.407359
C131  C     C_3   0.537304 0.793130 0.652931 -0.860071
C132  C     C_3   0.295724 0.205303 0.176956 0.231933
C133  C     C_3   0.350143 0.149770 0.165853 -0.352567
C134  C     C_3   0.330848 0.129857 0.137734 -0.907455
C135  C     C_R   0.366897 0.000665 0.013631 -0.154624
C136  C     C_3   0.127937 0.680527 0.811001 0.186563
C137  C     C_3   0.109789 0.728998 0.834553 -0.407360
C138  C     C_3   0.037304 0.706870 0.847069 -0.860072
C139  C     C_3   0.704276 0.794697 0.176956 0.231934
C140  C     C_3   0.649857 0.850230 0.165853 -0.352567
C141  C     C_3   0.669152 0.870143 0.137734 -0.907456
C142  C     C_3   0.872063 0.319473 0.811001 0.186563
C143  C     C_3   0.890211 0.271002 0.834553 -0.407359
C144  C     C_3   0.962696 0.293130 0.847069 -0.860072
C145  C     C_3   0.704496 0.205066 0.823041 0.231307
C146  C     C_R   0.048331 0.376119 0.986436 -0.154332
C147  C     C_3   0.650129 0.149467 0.834136 -0.351369
C148  C     C_3   0.669524 0.129423 0.862234 -0.910180
C149  C     C_3   0.871893 0.680454 0.188951 0.184135
C150  C     C_3   0.889870 0.728959 0.165389 -0.401450
C151  C     C_3   0.962356 0.706986 0.152841 -0.857424
C152  C     C_3   0.295503 0.794934 0.823041 0.231306
C153  C     C_3   0.349871 0.850532 0.834136 -0.351369
C154  C     C_3   0.330476 0.870576 0.862234 -0.910179
C155  C     C_3   0.128107 0.319545 0.188951 0.184135
C156  C     C_3   0.110130 0.271041 0.165389 -0.401450
C157  C     C_R   0.633103 0.999335 0.013631 -0.154624
C158  C     C_3   0.037644 0.293014 0.152841 -0.857423
C159  C     C_R   0.933755 0.503788 0.890294 -0.103650
C160  C     C_R   0.476928 0.937849 0.109770 -0.117983
C161  C     C_R   0.066245 0.496212 0.890294 -0.103650
C162  C     C_R   0.523071 0.062151 0.109770 -0.117984
C163  C     C_R   0.066291 0.502963 0.109707 -0.106351
C164  C     C_R   1.000000 0.500000 0.320453 0.784566
C165  C     C_R   0.477210 0.062253 0.890233 -0.117343
C166  C     C_R   0.933709 0.497037 0.109707 -0.106350
C167  C     C_R   0.522790 0.937747 0.890233 -0.117343
C168  C     C_R   0.433709 0.002963 0.390293 -0.106350
C169  C     C_R   0.977210 0.437747 0.609767 -0.117344
C170  C     C_R   0.566291 0.997037 0.390293 -0.106350
C171  C     C_R   0.022790 0.562253 0.609767 -0.117343
C172  C     C_R   0.566245 0.003788 0.609705 -0.103650
C173  C     C_R   0.976928 0.562150 0.390229 -0.117983
C174  C     C_R   0.433755 0.996212 0.609705 -0.103650
C175  C     C_R   0.500000 0.000000 0.679522 0.758181
C176  C     C_R   0.023071 0.437849 0.390229 -0.117983
C177  C     C_R   0.933683 0.503926 0.863076 -0.235660
C178  C     C_R   0.477100 0.937717 0.137008 -0.229813
C179  C     C_R   0.066317 0.496074 0.863076 -0.235660
C180  C     C_R   0.522900 0.062282 0.137008 -0.229813
C181  C     C_R   0.066372 0.503154 0.136925 -0.236708
C182  C     C_R   0.477371 0.062380 0.862996 -0.229320
C183  C     C_R   0.933628 0.496846 0.136925 -0.236708
C184  C     C_R   0.522629 0.937619 0.862996 -0.229321
C185  C     C_R   0.433627 0.003154 0.363075 -0.236709
C186  C     C_R   0.500000 0.000000 0.179547 0.784566
C187  C     C_R   0.977371 0.437620 0.637004 -0.229320
C188  C     C_R   0.566372 0.996846 0.363075 -0.236707
C189  C     C_R   0.022629 0.562380 0.637004 -0.229321
C190  C     C_R   0.566317 0.003926 0.636924 -0.235660
C191  C     C_R   0.977100 0.562283 0.362992 -0.229813
C192  C     C_R   0.433683 0.996074 0.636924 -0.235660
C193  C     C_R   0.022900 0.437717 0.362992 -0.229814
C194  C     C_R   1.000000 0.500000 0.849216 -0.029992
C195  C     C_R   0.500000 0.000000 0.150840 -0.015456
C196  C     C_R   0.000000 0.500000 0.150786 -0.029745
C197  C     C_R   1.000000 0.500000 0.820478 0.758181
C198  C     C_R   0.500000 1.000000 0.849163 -0.015992
C199  C     C_R   0.500000 0.000000 0.349214 -0.029745
C200  C     C_R   1.000000 0.500000 0.650837 -0.015992
C201  C     C_R   0.500000 0.000000 0.650784 -0.029992
C202  C     C_R   1.000000 0.500000 0.349160 -0.015456
C203  C     C_R   1.000000 0.500000 0.904015 0.308004
C204  C     C_R   0.500000 0.000000 0.096059 0.306138
C205  C     C_R   0.000000 0.500000 0.096024 0.315209
C206  C     C_R   0.500000 1.000000 0.903947 0.305116
C207  C     C_R   0.500000 0.000000 0.403975 0.315210
C208  C     C_R   0.500000 1.000000 0.820454 0.784732
C209  C     C_R   1.000000 0.500000 0.596053 0.305116
C210  C     C_R   0.500000 1.000000 0.595985 0.308005
C211  C     C_R   1.000000 0.500000 0.403941 0.306138
C212  C     C_R   0.858731 0.358586 0.750221 0.860596
C213  C     C_R   0.359880 0.142453 0.250453 0.922030
C214  C     C_R   0.141269 0.641414 0.750220 0.860596
C215  C     C_R   0.640120 0.857547 0.250453 0.922029
C216  C     C_R   0.141263 0.358580 0.249776 0.860837
C217  C     C_R   0.640116 0.142457 0.749545 0.922050
C218  C     C_R   0.858737 0.641420 0.249776 0.860837
C219  C     C_R   0.000000 0.500000 0.179522 0.757191
C220  C     C_R   0.359884 0.857543 0.749545 0.922050
C221  C     C_R   0.358737 0.858580 0.250223 0.860837
C222  C     C_R   0.859884 0.642457 0.750454 0.922050
C223  C     C_R   0.641263 0.141420 0.250223 0.860837
C224  C     C_R   0.140116 0.357543 0.750454 0.922050
C225  C     C_R   0.641269 0.858586 0.749779 0.860595
C226  C     C_R   0.140120 0.642453 0.249547 0.922030
C227  C     C_R   0.358731 0.141414 0.749779 0.860595
C228  C     C_R   0.859880 0.357547 0.249547 0.922030
C229  C     C_3   0.835746 0.777557 0.755057 0.195290
C230  C     C_R   0.548331 0.123881 0.513564 -0.154332
C231  C     C_3   0.776605 0.162626 0.249195 0.213025
C232  C     C_3   0.164253 0.222443 0.755057 0.195290
C233  C     C_3   0.223395 0.837374 0.249195 0.213025
C234  C     C_3   0.164274 0.777535 0.244903 0.195312
C235  C     C_3   0.223387 0.162617 0.750763 0.213028
C236  C     C_3   0.835726 0.222465 0.244903 0.195312
C237  C     C_3   0.776613 0.837383 0.750763 0.213028
C238  C     C_3   0.335726 0.277534 0.255097 0.195312
C239  C     C_3   0.276613 0.662617 0.749236 0.213028
C240  C     C_3   0.664273 0.722465 0.255097 0.195313
Cl1   Cl    Cl    0.921651 0.798271 0.739131 -0.385830
Cl2   Cl    Cl    0.297845 0.602211 0.776179 -0.386918
Cl3   Cl    Cl    0.578324 0.701716 0.239209 -0.386221
Cl4   Cl    Cl    0.702155 0.397788 0.776179 -0.386918
Cl5   Cl    Cl    0.578349 0.298271 0.760869 -0.385831
Cl6   Cl    Cl    0.702085 0.602134 0.223896 -0.386861
Cl7   Cl    Cl    0.421650 0.701729 0.760869 -0.385831
Cl8   Cl    Cl    0.297915 0.397866 0.223896 -0.386861
Cl9   Cl    Cl    0.735336 0.602568 0.715969 -0.614284
Cl10  Cl    Cl    0.606903 0.300612 0.274925 -0.568652
Cl11  Cl    Cl    0.264664 0.397431 0.715969 -0.614284
Cl12  Cl    Cl    0.797914 0.102134 0.276104 -0.386861
Cl13  Cl    Cl    0.393097 0.699388 0.274925 -0.568653
Cl14  Cl    Cl    0.264556 0.602668 0.284099 -0.614680
Cl15  Cl    Cl    0.393169 0.300672 0.725144 -0.568152
Cl16  Cl    Cl    0.735444 0.397332 0.284099 -0.614680
Cl17  Cl    Cl    0.606831 0.699328 0.725144 -0.568152
Cl18  Cl    Cl    0.235444 0.102668 0.215901 -0.614680
Cl19  Cl    Cl    0.106831 0.800671 0.774856 -0.568153
Cl20  Cl    Cl    0.764556 0.897332 0.215901 -0.614680
Cl21  Cl    Cl    0.893169 0.199328 0.774856 -0.568152
Cl22  Cl    Cl    0.764664 0.102568 0.784031 -0.614283
Cl23  Cl    Cl    0.078349 0.201729 0.739131 -0.385831
Cl24  Cl    Cl    0.893097 0.800612 0.225075 -0.568653
Cl25  Cl    Cl    0.235336 0.897431 0.784031 -0.614284
Cl26  Cl    Cl    0.106903 0.199388 0.225075 -0.568652
Cl27  Cl    Cl    0.202085 0.897866 0.276104 -0.386861
Cl28  Cl    Cl    0.078324 0.798283 0.260791 -0.386221
Cl29  Cl    Cl    0.202155 0.102211 0.723821 -0.386918
Cl30  Cl    Cl    0.921676 0.201716 0.260791 -0.386221
Cl31  Cl    Cl    0.797845 0.897788 0.723821 -0.386918
Cl32  Cl    Cl    0.421676 0.298283 0.239209 -0.386221
H1    H     H_    0.850951 0.778874 0.776121 0.089619
H2    H     H_    0.277155 0.626406 0.731744 0.109770
H3    H     H_    0.849485 0.599026 0.677936 0.254875
H4    H     H_    0.774248 0.606405 0.636791 0.280760
H5    H     H_    0.869236 0.587603 0.630365 0.292913
H6    H     H_    0.833834 0.678485 0.625034 0.264187
H7    H     H_    0.635343 0.123769 0.318366 0.186722
H8    H     H_    0.581617 0.177709 0.297106 0.139945
H9    H     H_    0.654516 0.223950 0.349353 0.217989
H10   H     H_    0.606630 0.287134 0.328593 0.275774
H11   H     H_    0.492409 0.210451 0.332707 0.260747
H12   H     H_    0.525279 0.244392 0.363656 0.283190
H13   H     H_    0.649128 0.721211 0.276167 0.088972
H14   H     H_    0.541116 0.150419 0.354843 0.268376
H15   H     H_    0.199959 0.243692 0.665410 0.177600
H16   H     H_    0.261453 0.315001 0.674284 0.155272
H17   H     H_    0.093977 0.327128 0.666411 0.246581
H18   H     H_    0.150515 0.400973 0.677936 0.254875
H19   H     H_    0.225752 0.393595 0.636791 0.280761
H20   H     H_    0.130764 0.412397 0.630365 0.292913
H21   H     H_    0.166166 0.321515 0.625034 0.264188
H22   H     H_    0.364657 0.876231 0.318366 0.186722
H23   H     H_    0.418383 0.822291 0.297106 0.139946
H24   H     H_    0.722845 0.373594 0.731744 0.109770
H25   H     H_    0.345484 0.776050 0.349353 0.217989
H26   H     H_    0.393370 0.712866 0.328593 0.275774
H27   H     H_    0.507590 0.789549 0.332707 0.260748
H28   H     H_    0.474720 0.755608 0.363656 0.283190
H29   H     H_    0.458883 0.849581 0.354843 0.268376
H30   H     H_    0.199731 0.756591 0.334566 0.178465
H31   H     H_    0.261209 0.685212 0.325748 0.155006
H32   H     H_    0.093710 0.673182 0.333561 0.246712
H33   H     H_    0.150280 0.599272 0.322106 0.254872
H34   H     H_    0.225369 0.606825 0.363279 0.280740
H35   H     H_    0.649049 0.278874 0.723879 0.089619
H36   H     H_    0.130354 0.588086 0.369677 0.292521
H37   H     H_    0.165769 0.678981 0.374966 0.265323
H38   H     H_    0.364805 0.123844 0.681683 0.186013
H39   H     H_    0.418489 0.177755 0.702968 0.139948
H40   H     H_    0.345863 0.224079 0.650686 0.214315
H41   H     H_    0.393802 0.287166 0.671468 0.277230
H42   H     H_    0.507887 0.210240 0.667404 0.264033
H43   H     H_    0.475203 0.244248 0.636440 0.283160
H44   H     H_    0.459128 0.150305 0.645248 0.264966
H45   H     H_    0.800268 0.243408 0.334566 0.178466
H46   H     H_    0.722905 0.626470 0.268312 0.109373
H47   H     H_    0.738790 0.314788 0.325748 0.155007
H48   H     H_    0.906289 0.326818 0.333561 0.246712
H49   H     H_    0.849720 0.400728 0.322106 0.254872
H50   H     H_    0.774631 0.393174 0.363279 0.280740
H51   H     H_    0.869646 0.411914 0.369677 0.292521
H52   H     H_    0.834231 0.321019 0.374966 0.265323
H53   H     H_    0.635195 0.876156 0.681683 0.186013
H54   H     H_    0.581511 0.822245 0.702968 0.139948
H55   H     H_    0.654137 0.775921 0.650686 0.214314
H56   H     H_    0.606198 0.712834 0.671468 0.277230
H57   H     H_    0.350952 0.721126 0.723879 0.089619
H58   H     H_    0.492113 0.789760 0.667404 0.264034
H59   H     H_    0.524797 0.755752 0.636440 0.283159
H60   H     H_    0.540872 0.849695 0.645248 0.264965
H61   H     H_    0.300268 0.256592 0.165434 0.178466
H62   H     H_    0.238790 0.185212 0.174252 0.155007
H63   H     H_    0.406289 0.173182 0.166439 0.246712
H64   H     H_    0.349720 0.099272 0.177894 0.254872
H65   H     H_    0.274631 0.106825 0.136720 0.280740
H66   H     H_    0.369646 0.088086 0.130323 0.292521
H67   H     H_    0.334231 0.178981 0.125033 0.265322
H68   H     H_    0.277095 0.373530 0.268312 0.109373
H69   H     H_    0.135195 0.623844 0.818317 0.186013
H70   H     H_    0.081511 0.677755 0.797031 0.139948
H71   H     H_    0.154137 0.724078 0.849314 0.214314
H72   H     H_    0.106198 0.787166 0.828532 0.277230
H73   H     H_    0.992113 0.710240 0.832596 0.264034
H74   H     H_    0.024797 0.744248 0.863560 0.283159
H75   H     H_    0.040872 0.650305 0.854752 0.264966
H76   H     H_    0.699731 0.743408 0.165434 0.178465
H77   H     H_    0.761210 0.814788 0.174252 0.155007
H78   H     H_    0.593711 0.826818 0.166439 0.246712
H79   H     H_    0.713947 0.634507 0.768028 0.303731
H80   H     H_    0.650280 0.900728 0.177894 0.254872
H81   H     H_    0.725369 0.893175 0.136720 0.280740
H82   H     H_    0.630354 0.911914 0.130323 0.292521
H83   H     H_    0.665769 0.821019 0.125034 0.265323
H84   H     H_    0.864805 0.376156 0.818317 0.186013
H85   H     H_    0.918489 0.322245 0.797031 0.139948
H86   H     H_    0.845862 0.275921 0.849314 0.214314
H87   H     H_    0.893802 0.212834 0.828532 0.277230
H88   H     H_    0.007887 0.289760 0.832596 0.264034
H89   H     H_    0.975203 0.255752 0.863560 0.283159
H90   H     H_    0.634417 0.271785 0.224499 0.300611
H91   H     H_    0.959128 0.349695 0.854752 0.264965
H92   H     H_    0.699959 0.256308 0.834590 0.177600
H93   H     H_    0.761453 0.184999 0.825716 0.155272
H94   H     H_    0.593977 0.172872 0.833589 0.246581
H95   H     H_    0.650515 0.099026 0.822064 0.254875
H96   H     H_    0.725752 0.106405 0.863209 0.280761
H97   H     H_    0.630764 0.087603 0.869635 0.292913
H98   H     H_    0.666166 0.178485 0.874966 0.264187
H99   H     H_    0.864657 0.623769 0.181634 0.186722
H100  H     H_    0.918383 0.677709 0.202894 0.139946
H101  H     H_    0.286053 0.365492 0.768028 0.303731
H102  H     H_    0.845484 0.723950 0.150646 0.217989
H103  H     H_    0.893370 0.787134 0.171407 0.275774
H104  H     H_    0.007591 0.710451 0.167293 0.260748
H105  H     H_    0.974721 0.744392 0.136343 0.283190
H106  H     H_    0.958883 0.650419 0.145157 0.268376
H107  H     H_    0.300041 0.743692 0.834590 0.177600
H108  H     H_    0.238547 0.815001 0.825716 0.155272
H109  H     H_    0.406023 0.827128 0.833589 0.246581
H110  H     H_    0.349485 0.900973 0.822064 0.254875
H111  H     H_    0.274248 0.893594 0.863209 0.280760
H112  H     H_    0.777095 0.126470 0.231688 0.109373
H113  H     H_    0.365583 0.728215 0.224499 0.300611
H114  H     H_    0.369236 0.912397 0.869635 0.292913
H115  H     H_    0.333834 0.821515 0.874966 0.264187
H116  H     H_    0.135343 0.376231 0.181634 0.186722
H117  H     H_    0.081617 0.322291 0.202894 0.139946
H118  H     H_    0.154516 0.276050 0.150646 0.217989
H119  H     H_    0.106630 0.212865 0.171407 0.275774
H120  H     H_    0.992409 0.289549 0.167293 0.260748
H121  H     H_    0.025279 0.255608 0.136343 0.283189
H122  H     H_    0.041116 0.349581 0.145157 0.268375
H123  H     H_    0.286113 0.634448 0.232034 0.303776
H124  H     H_    0.365502 0.271707 0.775552 0.300605
H125  H     H_    0.713887 0.365552 0.232034 0.303776
H126  H     H_    0.634498 0.728293 0.775552 0.300605
H127  H     H_    0.213887 0.134447 0.267966 0.303776
H128  H     H_    0.134498 0.771706 0.724448 0.300606
H129  H     H_    0.786113 0.865552 0.267966 0.303776
H130  H     H_    0.865502 0.228294 0.724448 0.300606
H131  H     H_    0.786053 0.134507 0.731972 0.303731
H132  H     H_    0.149048 0.221126 0.776121 0.089619
H133  H     H_    0.865583 0.771785 0.275501 0.300611
H134  H     H_    0.213947 0.865492 0.731972 0.303731
H135  H     H_    0.134417 0.228215 0.275501 0.300611
H136  H     H_    0.772519 0.679829 0.790798 0.212366
H137  H     H_    0.702221 0.217838 0.208707 0.196114
H138  H     H_    0.227481 0.320171 0.790798 0.212366
H139  H     H_    0.297779 0.782162 0.208707 0.196114
H140  H     H_    0.227611 0.679698 0.209223 0.211610
H141  H     H_    0.297657 0.217709 0.791300 0.196680
H142  H     H_    0.772389 0.320302 0.209223 0.211610
H143  H     H_    0.222905 0.873530 0.231688 0.109373
H144  H     H_    0.702343 0.782291 0.791300 0.196681
H145  H     H_    0.272389 0.179698 0.290777 0.211610
H146  H     H_    0.202343 0.717709 0.708699 0.196681
H147  H     H_    0.727611 0.820302 0.290777 0.211610
H148  H     H_    0.797657 0.282291 0.708699 0.196681
H149  H     H_    0.727481 0.179829 0.709202 0.212366
H150  H     H_    0.797779 0.717838 0.291293 0.196114
H151  H     H_    0.272519 0.820171 0.709202 0.212366
H152  H     H_    0.202221 0.282162 0.291293 0.196114
H153  H     H_    0.567206 0.172379 0.523670 0.194452
H154  H     H_    0.149128 0.778789 0.223833 0.088972
H155  H     H_    0.185199 0.500925 0.476263 0.194427
H156  H     H_    0.432794 0.827621 0.523670 0.194452
H157  H     H_    0.814801 0.499075 0.476263 0.194427
H158  H     H_    0.567504 0.172269 0.476213 0.193945
H159  H     H_    0.814801 0.499048 0.523727 0.194504
H160  H     H_    0.432495 0.827731 0.476213 0.193945
H161  H     H_    0.185199 0.500952 0.523727 0.194504
H162  H     H_    0.932495 0.672269 0.023787 0.193945
H163  H     H_    0.685199 0.999047 0.976273 0.194504
H164  H     H_    0.067505 0.327731 0.023787 0.193945
H165  H     H_    0.222845 0.126406 0.768256 0.109770
H166  H     H_    0.314801 0.000952 0.976273 0.194504
H167  H     H_    0.932794 0.672379 0.976330 0.194452
H168  H     H_    0.314801 0.000925 0.023737 0.194427
H169  H     H_    0.067206 0.327621 0.976330 0.194452
H170  H     H_    0.685199 0.999075 0.023737 0.194427
H171  H     H_    0.882307 0.506433 0.900762 0.152721
H172  H     H_    0.459214 0.889564 0.099288 0.152890
H173  H     H_    0.117693 0.493567 0.900762 0.152721
H174  H     H_    0.540786 0.110436 0.099288 0.152890
H175  H     H_    0.117703 0.505372 0.099210 0.149120
H176  H     H_    0.850872 0.221211 0.223833 0.088972
H177  H     H_    0.459719 0.110622 0.900714 0.153598
H178  H     H_    0.882297 0.494628 0.099210 0.149120
H179  H     H_    0.540281 0.889378 0.900714 0.153598
H180  H     H_    0.382297 0.005372 0.400790 0.149120
H181  H     H_    0.959719 0.389378 0.599286 0.153598
H182  H     H_    0.617703 0.994628 0.400790 0.149120
H183  H     H_    0.040281 0.610622 0.599286 0.153598
H184  H     H_    0.617693 0.006433 0.599238 0.152721
H185  H     H_    0.959214 0.610436 0.400712 0.152890
H186  H     H_    0.382307 0.993567 0.599238 0.152721
H187  H     H_    0.777155 0.873594 0.768256 0.109770
H188  H     H_    0.040786 0.389564 0.400712 0.152890
H189  H     H_    0.881766 0.506871 0.852916 0.180101
H190  H     H_    0.459088 0.889095 0.147233 0.173845
H191  H     H_    0.118234 0.493129 0.852916 0.180101
H192  H     H_    0.540912 0.110905 0.147233 0.173845
H193  H     H_    0.118320 0.505559 0.147083 0.179694
H194  H     H_    0.459572 0.111083 0.852772 0.174281
H195  H     H_    0.881679 0.494441 0.147084 0.179694
H196  H     H_    0.540428 0.888917 0.852772 0.174281
H197  H     H_    0.381680 0.005559 0.352916 0.179694
H198  H     H_    0.350872 0.278789 0.276167 0.088972
H199  H     H_    0.959572 0.388917 0.647228 0.174281
H200  H     H_    0.618320 0.994440 0.352916 0.179694
H201  H     H_    0.040428 0.611083 0.647228 0.174281
H202  H     H_    0.618234 0.006871 0.647084 0.180101
H203  H     H_    0.959088 0.610904 0.352767 0.173845
H204  H     H_    0.381766 0.993129 0.647084 0.180101
H205  H     H_    0.040912 0.389095 0.352767 0.173845
H206  H     H_    0.800041 0.756308 0.665410 0.177600
H207  H     H_    0.738547 0.684999 0.674284 0.155271
H208  H     H_    0.906023 0.672872 0.666411 0.246581
N1    N     N_R   0.500000 1.000000 0.567958 -0.356007
N2    N     N_R   1.000000 0.500000 0.431960 -0.354456
N3    N     N_R   0.500000 0.000000 0.431963 -0.356728
N4    N     N_R   1.000000 0.500000 0.568032 -0.354454
N5    N     N_R   1.000000 0.500000 0.068037 -0.356728
N6    N     N_R   0.500000 1.000000 0.931968 -0.354454
N7    N     N_R   1.000000 0.500000 0.932042 -0.356007
N8    N     N_R   0.500000 0.000000 0.068040 -0.354456
O1    O     O_3   0.000000 0.500000 0.750000 -0.517453
O2    O     O_R   0.438690 0.000330 0.691960 -0.661494
O3    O     O_R   0.999670 0.438690 0.308040 -0.649401
O4    O     O_R   0.561310 0.999670 0.691960 -0.661494
O5    O     O_R   0.499670 0.061310 0.191960 -0.649401
O6    O     O_R   0.061310 0.500330 0.808040 -0.661494
O7    O     O_R   0.500330 0.938690 0.191960 -0.649401
O8    O     O_R   0.938690 0.499670 0.808040 -0.661494
O9    O     O_R   0.500330 0.061310 0.808040 -0.649341
O10   O     O_R   0.938690 0.500330 0.191960 -0.661600
O11   O     O_R   0.499670 0.938690 0.808040 -0.649342
O12   O     O_3   0.500000 0.000000 0.250000 -0.517253
O13   O     O_R   0.061310 0.499670 0.191960 -0.661600
O14   O     O_R   0.913470 0.352550 0.734780 -0.625196
O15   O     O_R   0.352550 0.086530 0.265220 -0.631783
O16   O     O_R   0.086530 0.647450 0.734780 -0.625197
O17   O     O_R   0.647450 0.913470 0.265220 -0.631783
O18   O     O_R   0.086530 0.352550 0.265220 -0.625357
O19   O     O_R   0.647450 0.086530 0.734780 -0.631499
O20   O     O_R   0.913470 0.647450 0.265220 -0.625357
O21   O     O_R   0.352550 0.913470 0.734780 -0.631499
O22   O     O_R   0.413470 0.852550 0.234780 -0.625357
O23   O     O_3   0.000000 0.500000 0.250000 -0.517253
O24   O     O_R   0.852550 0.586530 0.765220 -0.631500
O25   O     O_R   0.586530 0.147450 0.234780 -0.625357
O26   O     O_R   0.147450 0.413470 0.765220 -0.631500
O27   O     O_R   0.586530 0.852550 0.765220 -0.625197
O28   O     O_R   0.147450 0.586530 0.234780 -0.631783
O29   O     O_R   0.413470 0.147450 0.765220 -0.625197
O30   O     O_R   0.852550 0.413470 0.234780 -0.631783
O31   O     O_R   0.147200 0.586220 0.765220 -0.595211
O32   O     O_R   0.586220 0.852800 0.234780 -0.563230
O33   O     O_R   0.852800 0.413780 0.765220 -0.595211
O34   O     O_3   0.500000 0.000000 0.750000 -0.517453
O35   O     O_R   0.413780 0.147200 0.234780 -0.563230
O36   O     O_R   0.852800 0.586220 0.234780 -0.595031
O37   O     O_R   0.413780 0.852800 0.765220 -0.563310
O38   O     O_R   0.147200 0.413780 0.234780 -0.595031
O39   O     O_R   0.586220 0.147200 0.765220 -0.563309
O40   O     O_R   0.647200 0.086220 0.265220 -0.595031
O41   O     O_R   0.086220 0.352800 0.734780 -0.563310
O42   O     O_R   0.352800 0.913780 0.265220 -0.595031
O43   O     O_R   0.913780 0.647200 0.734780 -0.563309
O44   O     O_R   0.352800 0.086220 0.734780 -0.595211
O45   O     O_R   0.999670 0.561310 0.691960 -0.649342
O46   O     O_R   0.913780 0.352800 0.265220 -0.563231
O47   O     O_R   0.647200 0.913780 0.734780 -0.595211
O48   O     O_R   0.086220 0.647200 0.265220 -0.563230
O49   O     O_2   0.454661 0.879412 0.568327 -0.556392
O50   O     O_2   0.871089 0.498605 0.431555 -0.556436
O51   O     O_2   0.545339 0.120588 0.568327 -0.556393
O52   O     O_2   0.128911 0.501394 0.431555 -0.556437
O53   O     O_2   0.453295 0.879998 0.431521 -0.557890
O54   O     O_2   0.128922 0.499870 0.568434 -0.556068
O55   O     O_2   0.546705 0.120002 0.431521 -0.557891
O56   O     O_R   0.561310 0.000330 0.308040 -0.661600
O57   O     O_2   0.871078 0.500131 0.568434 -0.556068
O58   O     O_2   0.046705 0.379998 0.068479 -0.557891
O59   O     O_2   0.371078 0.999870 0.931566 -0.556068
O60   O     O_2   0.953295 0.620002 0.068479 -0.557891
O61   O     O_2   0.628922 0.000130 0.931566 -0.556068
O62   O     O_2   0.045340 0.379412 0.931673 -0.556393
O63   O     O_2   0.628911 0.998605 0.068445 -0.556437
O64   O     O_2   0.954660 0.620588 0.931673 -0.556393
O65   O     O_2   0.371089 0.001395 0.068445 -0.556437
O66   O     O_3   0.813705 0.721787 0.703242 -0.573294
O67   O     O_R   0.000330 0.438690 0.691960 -0.649341
O68   O     O_3   0.695549 0.201806 0.299569 -0.634630
O69   O     O_3   0.186295 0.278213 0.703242 -0.573294
O70   O     O_3   0.304450 0.798194 0.299569 -0.634630
O71   O     O_3   0.186156 0.721932 0.296746 -0.573335
O72   O     O_3   0.304586 0.201957 0.700434 -0.634760
O73   O     O_3   0.813843 0.278068 0.296746 -0.573335
O74   O     O_3   0.695414 0.798043 0.700434 -0.634760
O75   O     O_3   0.313843 0.221932 0.203254 -0.573336
O76   O     O_3   0.195414 0.701957 0.799566 -0.634760
O77   O     O_3   0.686156 0.778068 0.203254 -0.573336
O78   O     O_R   0.438690 0.999670 0.308040 -0.661600
O79   O     O_3   0.804586 0.298043 0.799566 -0.634760
O80   O     O_3   0.686295 0.221787 0.796758 -0.573294
O81   O     O_3   0.804450 0.701806 0.200431 -0.634630
O82   O     O_3   0.313705 0.778213 0.796758 -0.573294
O83   O     O_3   0.195549 0.298194 0.200431 -0.634630
O84   O     O_R   0.000330 0.561310 0.308040 -0.649401
Zn1   Zn    Zn3+2 0.912170 0.500020 0.771750 1.002833
Zn2   Zn    Zn3+2 0.000020 0.587830 0.728250 1.028218
Zn3   Zn    Zn3+2 0.587830 0.999980 0.271750 1.002456
Zn4   Zn    Zn3+2 0.999980 0.412170 0.728250 1.028218
Zn5   Zn    Zn3+2 0.587830 0.000020 0.728250 1.002834
Zn6   Zn    Zn3+2 0.999980 0.587830 0.271750 1.028033
Zn7   Zn    Zn3+2 0.412170 0.999980 0.728250 1.002834
Zn8   Zn    Zn3+2 0.000020 0.412170 0.271750 1.028033
Zn9   Zn    Zn3+2 0.500020 0.087830 0.228250 1.028033
Zn10  Zn    Zn3+2 0.087830 0.499980 0.771750 1.002833
Zn11  Zn    Zn3+2 0.499980 0.912170 0.228250 1.028033
Zn12  Zn    Zn3+2 0.087830 0.500020 0.228250 1.002456
Zn13  Zn    Zn3+2 0.499980 0.087830 0.771750 1.028217
Zn14  Zn    Zn3+2 0.912170 0.499980 0.228250 1.002456
Zn15  Zn    Zn3+2 0.500020 0.912170 0.771750 1.028217
Zn16  Zn    Zn3+2 0.412170 0.000020 0.271750 1.002456

loop_
_geom_bond_atom_site_label_1
_geom_bond_atom_site_label_2
_ccdc_geom_bond_type
C1    O45   A    
C126  C127  S    
C232  Cl23  S    
O16   Zn2   S    
C186  O5    A    
C197  O6    A    
C7    C60   S    
C50   C228  S    
C34   C42   S    
O28   Zn12  S    
C125  H43   S    
O31   Zn10  S    
C79   C87   A    
C142  O79   S    
C75   C95   A    
C53   C214  S    
C207  N3    S    
C8    O66   S    
C3    H24   S    
C147  H95   S    
C12   O71   S    
C143  H86   S    
C141  H81   S    
C171  C209  A    
C194  C197  S    
C106  C107  S    
C132  O75   S    
C143  C144  S    
C155  H117  S    
C117  H25   S    
C108  C109  S    
C169  H181  S    
C64   O52   S    
C36   C53   S    
O15   Zn16  S    
C78   C96   A    
C9    O68   S    
C154  H114  S    
C149  O81   S    
C231  C236  S    
C25   C60   S    
O36   Zn14  S    
O7    Zn11  S    
C19   O77   S    
C72   O60   S    
C137  C138  S    
C8    C16   S    
O23   Zn8   S    
C4    C56   S    
C223  O25   A    
O12   Zn9   S    
O1    Zn4   S    
C22   O81   S    
C20   O79   S    
C17   C52   S    
C185  H197  S    
O67   Zn4   S    
C114  C115  S    
C28   C31   S    
C137  H72   S    
C148  H97   S    
C101  C146  A    
C40   C58   S    
C43   C222  S    
C140  C141  S    
C169  C187  A    
C216  O18   A    
C66   N4    A    
C46   H159  S    
C14   O72   S    
C112  O56   A    
C172  C190  A    
C31   H124  S    
C144  H88   S    
C128  H52   S    
C138  H73   S    
C162  C204  A    
C27   H137  S    
C73   C88   A    
C22   C58   S    
C133  H63   S    
C131  H59   S    
C176  H188  S    
C218  O36   A    
C127  H48   S    
C110  H14   S    
C153  H110  S    
C229  H1    S    
C183  C196  A    
C44   C223  S    
C86   C99   A    
C160  C178  A    
C18   Cl19  S    
C46   C84   A    
O39   Zn13  S    
C151  H106  S    
C184  C198  A    
C28   H101  S    
C197  O8    A    
C1    C200  S    
C78   C230  A    
C229  C237  S    
C181  H193  S    
C236  H176  S    
O32   Zn11  S    
O42   Zn16  S    
C89   C101  A    
C45   C224  S    
C44   C231  S    
C175  C201  S    
C106  H3    S    
C211  N2    S    
C141  H83   S    
C88   C102  A    
C139  C140  S    
O35   Zn9   S    
C158  H122  S    
C235  Cl29  S    
C118  H28   S    
C187  C200  A    
C154  H111  S    
C24   C46   A    
C156  C158  S    
C130  C131  S    
C9    C15   S    
C17   C25   S    
C148  H96   S    
C28   H138  S    
C193  H205  S    
C122  H39   S    
O34   Zn13  S    
C228  O30   A    
C4    Cl5   S    
C63   N1    A    
C20   C21   S    
C126  O73   S    
C113  C135  A    
O23   Zn6   S    
C191  H203  S    
C115  H20   S    
C150  H102  S    
O12   Zn11  S    
O21   Zn7   S    
C41   H134  S    
C25   O83   S    
C62   N2    A    
C105  H207  S    
C61   N1    A    
C47   C233  S    
C145  H93   S    
C116  H23   S    
C67   C83   A    
C131  H60   S    
C5    C240  S    
C80   C97   A    
O6    Zn10  S    
O5    Zn9   S    
C129  H54   S    
C16   C51   S    
C116  O70   S    
C5    Cl6   S    
C230  H153  S    
C18   O76   S    
C221  O42   A    
C23   C59   S    
C32   H125  S    
C5    C58   S    
C29   C47   S    
C30   C48   S    
C16   O74   S    
C212  O33   A    
C37   C40   S    
C136  H70   S    
C126  H47   S    
C13   C57   A    
C237  H187  S    
C157  H170  S    
C77   C93   A    
C26   H79   S    
C181  C196  A    
O3    Zn8   S    
C77   N8    A    
C143  H87   S    
O8    Zn1   S    
C221  O22   A    
C35   H158  S    
C3    C55   S    
C27   C44   S    
O37   Zn15  S    
C57   C85   A    
C83   C98   A    
C165  H177  S    
C111  H16   S    
C30   H123  S    
C166  C205  A    
C222  O24   A    
C176  C193  A    
C161  C179  A    
O27   Zn15  S    
C233  C234  S    
C162  C180  A    
C219  O10   A    
C52   C238  S    
C149  H99   S    
C122  H38   S    
C126  H45   S    
C47   C221  S    
C203  N7    S    
O26   Zn10  S    
C177  H189  S    
C40   H133  S    
C158  H120  S    
C114  H18   S    
C38   C55   S    
O1    Zn1   S    
C237  Cl31  S    
C175  O4    A    
C10   C14   S    
C22   Cl24  S    
O4    Zn5   S    
C180  H192  S    
C23   Cl25  S    
C102  C104  A    
C29   C30   S    
O34   Zn15  S    
C26   C33   S    
C167  C184  A    
C34   H145  S    
O23   Zn12  S    
C10   C45   S    
C64   N2    A    
C63   O51   S    
C134  H65   S    
C185  C199  A    
C50   C236  S    
C224  O41   A    
C140  H78   S    
C123  H40   S    
O13   Zn12  S    
C130  H56   S    
C19   C54   S    
O40   Zn3   S    
C70   C89   A    
C3    C4    S    
C155  C156  S    
C72   C87   A    
C120  C121  S    
C173  H185  S    
C87   C100  A    
C171  H183  S    
C95   C157  A    
C6    C59   S    
C152  H107  S    
C106  H208  S    
O56   Zn3   S    
C136  C137  S    
C93   C135  A    
O11   Zn15  S    
C66   C86   A    
C21   O80   S    
C219  O13   A    
O2    Zn7   S    
C134  H67   S    
C6    C239  S    
C40   H150  S    
C2    H155  S    
C37   H147  S    
C35   C230  A    
C90   C157  A    
C38   H148  S    
C7    H68   S    
C60   C216  S    
C69   C84   A    
C61   C81   A    
C117  C118  S    
C164  O3    A    
C58   C218  S    
C135  H168  S    
C73   N6    A    
C189  H201  S    
C184  H196  S    
C32   H142  S    
C3    Cl4   S    
C15   O73   S    
C119  H30   S    
C62   C82   A    
C187  H199  S    
C34   H127  S    
C72   N5    A    
C21   Cl22  S    
C66   O54   S    
C231  H112  S    
C152  C153  S    
C124  H167  S    
C161  H173  S    
C170  C188  A    
C150  C151  S    
C111  O69   S    
C107  H6    S    
C174  C192  A    
C63   C78   A    
C61   O49   S    
O22   Zn11  S    
C94   C146  A    
C39   H149  S    
C115  H21   S    
C57   H160  S    
C74   C94   A    
C11   C47   S    
C113  H166  S    
C139  O77   S    
C8    C43   S    
C12   C48   S    
C175  O2    A    
C220  O21   A    
C53   C239  S    
C25   Cl26  S    
C225  O47   A    
C79   H162  S    
C132  H61   S    
C226  O48   A    
C137  H71   S    
C148  H98   S    
C234  H154  S    
C116  H22   S    
C165  C182  A    
C73   O61   S    
O12   Zn3   S    
C129  C130  S    
C59   C220  S    
C92   C124  A    
C210  N1    S    
C123  C125  S    
C163  C181  A    
C105  O66   S    
C192  H204  S    
C13   C81   A    
C222  O43   A    
C138  H74   S    
C77   O65   S    
C166  H178  S    
C90   H163  S    
C140  H80   S    
C18   C53   S    
C55   C212  S    
C2    C68   A    
C218  O20   A    
C215  O32   A    
C1    O67   A    
C147  C148  S    
C9    C44   S    
C123  H41   S    
C192  C201  A    
C45   C232  S    
C49   C227  S    
C108  H7    S    
O48   Zn6   S    
C36   H128  S    
O84   Zn6   S    
C223  O40   A    
C151  H105  S    
C224  O26   A    
C64   C80   A    
C145  O80   S    
C36   C41   S    
C173  C211  A    
C31   C49   S    
C125  H44   S    
C41   H151  S    
C56   C217  S    
C145  C147  S    
C71   N6    A    
C5    H46   S    
O30   Zn14  S    
C54   C215  S    
C240  H13   S    
C89   C100  A    
C167  C206  A    
C6    Cl7   S    
C11   Cl13  S    
C168  H180  S    
C39   H131  S    
C19   Cl20  S    
C215  O17   A    
C160  H172  S    
C35   C83   A    
O19   Zn5   S    
C196  C219  S    
C144  H91   S    
C37   H129  S    
C117  H26   S    
C100  C103  A    
O25   Zn9   S    
C193  C202  A    
C118  H29   S    
C164  O84   A    
C155  H116  S    
C20   Cl21  S    
C233  Cl27  S    
C229  Cl1   S    
C205  N5    S    
C208  O11   A    
C10   O69   S    
C168  C207  A    
C155  O83   S    
C125  H42   S    
C132  H62   S    
C107  H4    S    
O46   Zn8   S    
O45   Zn2   S    
C180  C195  A    
C122  O72   S    
C70   O58   S    
C88   C90   A    
C94   C103  A    
C76   O64   S    
C115  H19   S    
C133  C134  S    
C82   C97   A    
O20   Zn6   S    
C105  H206  S    
C68   H161  S    
C182  H194  S    
C65   O53   S    
O24   Zn1   S    
C79   C124  A    
C145  H92   S    
C81   C96   A    
C142  H84   S    
C142  H85   S    
C67   O55   S    
C27   C32   S    
C84   C99   A    
C13   H156  S    
C129  H53   S    
C166  C183  A    
O18   Zn8   S    
C160  C204  A    
C21   C56   S    
C214  O16   A    
C119  C120  S    
C43   C229  S    
C209  N4    S    
C33   C51   S    
C156  H119  S    
C105  C106  S    
C232  H132  S    
C34   C52   S    
C176  C211  A    
C29   H139  S    
C119  O71   S    
C30   H140  S    
C149  C150  S    
C133  H64   S    
C109  H10   S    
C38   C39   S    
C235  H165  S    
C139  H76   S    
C216  O38   A    
C238  H198  S    
C173  C191  A    
C9    Cl10  S    
C111  C114  S    
C240  Cl3   S    
C128  H51   S    
C179  H191  S    
C177  C194  A    
C74   O62   S    
C110  H12   S    
C212  O14   A    
C147  H94   S    
C111  H15   S    
C142  C143  S    
C27   H90   S    
C119  H31   S    
C120  H32   S    
C48   C234  S    
C179  C194  A    
C204  N8    S    
C23   O82   S    
C227  O44   A    
C121  H34   S    
C68   C86   A    
C129  O74   S    
O44   Zn7   S    
C182  C198  A    
C67   N3    A    
C76   N7    A    
C16   Cl17  S    
C17   O75   S    
C141  H82   S    
C158  H121  S    
O34   Zn7   S    
C42   H135  S    
C171  C189  A    
C31   H141  S    
C118  H27   S    
O33   Zn1   S    
C144  H89   S    
C172  C210  A    
O41   Zn4   S    
C14   C49   S    
C206  N6    S    
O43   Zn2   S    
C69   N4    A    
C162  H174  S    
C48   C226  S    
C116  C117  S    
C227  O29   A    
C6    H57   S    
C10   Cl11  S    
C15   C50   S    
C136  O76   S    
C24   C82   A    
C112  O78   A    
C85   C98   A    
C92   C103  A    
O14   Zn4   S    
C8    Cl9   S    
C14   Cl15  S    
C39   C56   S    
C128  H50   S    
C132  C133  S    
O17   Zn3   S    
C51   C225  S    
O10   Zn14  S    
C33   H144  S    
C134  H66   S    
C191  C202  A    
O9    Zn13  S    
C109  H9    S    
C213  O35   A    
C112  C199  S    
C127  H49   S    
C70   N5    A    
C101  H164  S    
C167  H179  S    
C159  C177  A    
C20   C55   S    
C231  Cl12  S    
C178  H190  S    
C93   C104  A    
C97   C99   A    
C69   O57   S    
C26   C43   S    
C172  H184  S    
C15   Cl16  S    
C75   N8    A    
O23   Zn14  S    
C28   C45   S    
C12   Cl14  S    
C198  C208  S    
C186  O7    A    
C220  O37   A    
C62   O50   S    
C186  C195  S    
C152  H108  S    
C19   C22   S    
C41   C59   S    
C136  H69   S    
C42   C60   S    
C131  H58   S    
C74   N7    A    
C163  H175  S    
C110  H11   S    
C217  O19   A    
C188  C199  A    
C7    Cl8   S    
C163  C205  A    
C232  C235  S    
C91   C113  A    
C108  O68   S    
C96   C98   A    
C7    C238  S    
C153  H109  S    
C146  H169  S    
C159  C203  A    
C18   C23   S    
C120  H33   S    
C169  C209  A    
C139  H77   S    
C236  Cl30  S    
C188  H200  S    
C51   C237  S    
C234  Cl28  S    
C208  O9    A    
C71   C91   A    
C238  Cl32  S    
C32   C50   S    
C233  H143  S    
C164  C202  S    
C76   C92   A    
C149  H100  S    
O78   Zn16  S    
C37   C54   S    
C189  C200  A    
C121  H37   S    
O1    Zn10  S    
C121  H36   S    
C33   H126  S    
C91   C102  A    
C226  O28   A    
C107  H5    S    
C174  H186  S    
C95   C104  A    
C65   N3    A    
C152  O82   S    
C165  C206  A    
O34   Zn5   S    
C159  H171  S    
C151  H104  S    
C213  O15   A    
C38   H130  S    
C114  H17   S    
C75   O63   S    
C168  C185  A    
C174  C210  A    
O38   Zn12  S    
O1    Zn2   S    
C161  C203  A    
C29   H113  S    
C154  H115  S    
C11   C12   S    
C190  C201  A    
C65   C85   A    
C178  C195  A    
O47   Zn5   S    
C153  C154  S    
C54   C240  S    
C170  C207  A    
C49   C235  S    
C217  O39   A    
C36   H146  S    
C150  H103  S    
C71   O59   S    
C156  H118  S    
C24   H157  S    
C190  H202  S    
C26   H136  S    
C52   C213  S    
O12   Zn16  S    
C42   H152  S    
C138  H75   S    
C239  Cl2   S    
O29   Zn13  S    
C2    C80   A    
C4    H35   S    
C130  H55   S    
C170  H182  S    
C214  O31   A    
C225  O27   A    
C239  H2    S    
C109  C110  S    
C122  C123  S    
C11   O70   S    
C228  O46   A    
C17   Cl18  S    
C108  H8    S    
C183  H195  S    
C127  C128  S    
