data_mof_unit_12424.cif
_audit_creation_date              2013-03-05T15:41:00-0500
_audit_creation_method            fapswitch 2.2
_symmetry_space_group_name_H-M    P1
_symmetry_Int_Tables_number       1
_space_group_crystal_system       triclinic
_cell_length_a                    28.073535
_cell_length_b                    7.199313
_cell_length_c                    17.207219
_cell_angle_alpha                 89.925675
_cell_angle_beta                  101.332763
_cell_angle_gamma                 89.823039
_cell_volume                      3409.92351182

loop_
_atom_site_label
_atom_site_type_symbol
_atom_site_description
_atom_site_fract_x
_atom_site_fract_y
_atom_site_fract_z
_atom_type_partial_charge
O1    O     O_R   0.000700 0.436510 0.857920 -0.560274
O2    O     O_R   0.999300 0.563490 0.142080 -0.560338
O3    O     O_R   0.999300 0.936510 0.642080 -0.542855
O4    O     O_R   0.000700 0.063490 0.357920 -0.542695
O5    O     O_R   0.930080 0.766380 0.721890 -0.526928
O6    O     O_R   0.069920 0.233620 0.278110 -0.525581
O7    O     O_R   0.069920 0.266380 0.778110 -0.550548
O8    O     O_R   0.930080 0.733620 0.221890 -0.552994
C1    C     C_R   0.910715 0.598289 0.708017 0.860226
C2    C     C_R   0.089292 0.401894 0.292510 0.859166
C3    C     C_R   0.089362 0.097298 0.792480 0.861092
C4    C     C_R   0.910724 0.902346 0.207246 0.865537
O9    O     O_R   0.996180 0.766230 0.862310 -0.537288
O10   O     O_R   0.003820 0.233770 0.137690 -0.535840
O11   O     O_R   0.003820 0.266230 0.637690 -0.562556
O12   O     O_R   0.996180 0.733770 0.362310 -0.562407
O13   O     O_R   0.065870 0.936460 0.783500 -0.525683
O14   O     O_R   0.934130 0.063540 0.216500 -0.526808
O15   O     O_R   0.934130 0.436460 0.716500 -0.553101
O16   O     O_R   0.065870 0.563540 0.283500 -0.555280
C5    C     C_R   0.998471 0.596399 0.894463 0.888540
C6    C     C_R   0.001514 0.403597 0.105532 0.887067
C7    C     C_R   0.001530 0.096506 0.605513 0.872209
C8    C     C_R   0.998468 0.903493 0.394487 0.873141
O17   O     O_3   0.022790 0.603020 0.723980 -0.284917
O18   O     O_3   0.977210 0.396980 0.276020 -0.286460
O19   O     O_3   0.977210 0.103020 0.776020 -0.281056
O20   O     O_3   0.022790 0.896980 0.223980 -0.280675
V1    V     V_3+5 0.995770 0.877900 0.754830 1.245421
V2    V     V_3+5 0.004230 0.122100 0.245170 1.243942
V3    V     V_3+5 0.004230 0.377900 0.745170 1.207693
V4    V     V_3+5 0.995770 0.622100 0.254830 1.203827
C9    C     C_2   0.001736 0.082597 0.519538 -0.182658
C10   C     C_2   0.998265 0.917400 0.480462 -0.181612
C11   C     C_2   0.998312 0.582594 0.980410 -0.195443
C12   C     C_2   0.001654 0.417400 0.019579 -0.193711
H1    H     H_    0.004613 0.211279 0.487787 0.108737
H2    H     H_    0.995390 0.788717 0.512213 0.109670
H3    H     H_    0.995617 0.711421 0.012076 0.120377
H4    H     H_    0.004344 0.288572 0.987912 0.119825
C13   C     C_R   0.683245 0.885438 0.025192 0.589650
C14   C     C_R   0.320334 0.148385 0.947931 0.593917
C15   C     C_R   0.317207 0.414828 0.473718 0.593160
C16   C     C_R   0.683457 0.552007 0.533778 0.589442
O21   O     O_2   0.712920 0.831926 0.976382 -0.503123
O22   O     O_2   0.293344 0.255688 0.987048 -0.513212
O23   O     O_2   0.288278 0.362381 0.523833 -0.514568
O24   O     O_2   0.713215 0.569224 0.481366 -0.511391
N1    N     N_R   0.702427 0.927466 0.102564 -0.451823
N2    N     N_R   0.298193 0.050716 0.882799 -0.448768
N3    N     N_R   0.297233 0.467278 0.397518 -0.444835
N4    N     N_R   0.702590 0.545320 0.613277 -0.448880
C17   C     C_R   0.672968 0.978164 0.153787 0.606393
C18   C     C_R   0.324533 0.939883 0.841987 0.608865
C19   C     C_R   0.326315 0.537247 0.348876 0.612794
C20   C     C_R   0.673172 0.520006 0.667272 0.596950
C21   C     C_R   0.776623 0.788573 0.183497 0.017197
C22   C     C_R   0.223578 0.207967 0.812808 0.017336
C23   C     C_R   0.217414 0.592953 0.329329 0.044558
C24   C     C_R   0.781670 0.421689 0.683344 0.037601
C25   C     C_R   0.827238 0.782061 0.207599 -0.126986
C26   C     C_R   0.172827 0.220419 0.792741 -0.117208
C27   C     C_R   0.167286 0.574500 0.303685 -0.105154
C28   C     C_R   0.832177 0.434791 0.704899 -0.105203
C29   C     C_R   0.834823 0.047770 0.123290 0.309000
C30   C     C_R   0.166032 0.938066 0.867823 0.309863
C31   C     C_R   0.170645 0.265646 0.361876 0.305265
C32   C     C_R   0.829671 0.733626 0.637762 0.306892
C33   C     C_R   0.783870 0.053743 0.100430 -0.042677
C34   C     C_R   0.217043 0.925469 0.885872 -0.044193
C35   C     C_R   0.221537 0.280767 0.381707 -0.040067
C36   C     C_R   0.778743 0.721270 0.619000 -0.041528
C37   C     C_R   0.754589 0.924129 0.129641 0.202975
C38   C     C_R   0.245943 0.059752 0.858976 0.209234
C39   C     C_R   0.245303 0.446146 0.368343 0.186207
C40   C     C_R   0.754516 0.564448 0.640068 0.194272
C41   C     C_R   0.601959 0.951731 0.047307 -0.117262
C42   C     C_R   0.399070 0.026928 0.933241 -0.103548
C43   C     C_R   0.397939 0.489635 0.452310 -0.114490
C44   C     C_R   0.602193 0.510024 0.559994 -0.115754
C45   C     C_R   0.632887 0.899482 0.995904 -0.050107
C46   C     C_R   0.370889 0.136203 0.974985 -0.034986
C47   C     C_R   0.367808 0.414466 0.500456 -0.041591
C48   C     C_R   0.633047 0.540926 0.506098 -0.055453
C49   C     C_R   0.613382 0.870692 0.915531 0.061476
C50   C     C_R   0.393721 0.235294 0.041811 -0.002477
C51   C     C_R   0.388664 0.330266 0.572352 0.041118
C52   C     C_R   0.613419 0.553188 0.425124 0.049961
C53   C     C_R   0.621647 0.981689 0.128501 -0.108642
C54   C     C_R   0.376009 0.928486 0.864939 -0.112178
C55   C     C_R   0.376712 0.564471 0.377574 -0.104978
C56   C     C_R   0.622532 0.489702 0.641688 -0.110155
C57   C     C_R   0.857074 0.911324 0.178603 -0.169324
C58   C     C_R   0.143237 0.085699 0.818991 -0.170104
C59   C     C_R   0.142980 0.412378 0.319768 -0.186170
C60   C     C_R   0.856981 0.589605 0.682617 -0.179926
H5    H     H_    0.766833 0.156632 0.057823 0.137663
H6    H     H_    0.234525 0.814313 0.923619 0.135060
H7    H     H_    0.242608 0.166164 0.411659 0.146562
H8    H     H_    0.757847 0.830659 0.584642 0.139465
H9    H     H_    0.637362 0.840698 0.874787 0.161546
H10   H     H_    0.372604 0.328193 0.071467 0.152806
H11   H     H_    0.365753 0.259180 0.606748 0.158329
H12   H     H_    0.637464 0.562827 0.383160 0.171711
C61   C     C_R   0.479276 0.919030 0.915038 -0.026655
C62   C     C_R   0.521317 0.047425 0.067061 -0.019742
C63   C     C_R   0.520526 0.448989 0.584854 -0.017511
C64   C     C_R   0.479450 0.557808 0.428570 -0.023823
C65   C     C_R   0.472235 0.096558 0.033915 0.065166
C66   C     C_R   0.531029 0.926794 0.937758 0.049416
C67   C     C_R   0.530911 0.536280 0.450871 0.044672
C68   C     C_R   0.470019 0.418094 0.555029 0.051109
C69   C     C_R   0.450270 0.014754 0.960609 0.042700
C70   C     C_R   0.551353 0.974714 0.017332 0.041955
C71   C     C_R   0.551126 0.498104 0.531830 0.042124
C72   C     C_R   0.449234 0.489221 0.478878 0.039803
C73   C     C_R   0.455563 0.810704 0.851043 -0.153867
C74   C     C_R   0.540146 0.053574 0.149148 -0.163485
C75   C     C_R   0.541102 0.438030 0.666311 -0.173671
C76   C     C_R   0.457247 0.656908 0.360342 -0.154119
C77   C     C_R   0.405122 0.816808 0.824677 0.363368
C78   C     C_R   0.589297 0.017014 0.180684 0.349807
C79   C     C_R   0.591290 0.447817 0.694779 0.345462
C80   C     C_R   0.406807 0.660187 0.333927 0.363883
O25   O     O_2   0.300741 0.840160 0.780272 -0.470206
O26   O     O_2   0.693509 0.033650 0.227523 -0.471946
O27   O     O_2   0.692716 0.531587 0.745186 -0.472199
O28   O     O_2   0.307051 0.572095 0.272113 -0.480258
C81   C     C_R   0.563499 0.889993 0.885256 0.082046
C82   C     C_R   0.443875 0.222031 0.070313 0.050234
C83   C     C_R   0.439087 0.319305 0.597268 0.059069
C84   C     C_R   0.563258 0.548680 0.396388 0.069284
H13   H     H_    0.156672 0.334761 0.755619 0.130875
H14   H     H_    0.843126 0.676363 0.249746 0.124403
H15   H     H_    0.851944 0.322797 0.739187 0.137385
H16   H     H_    0.147336 0.689545 0.271977 0.145523
H17   H     H_    0.245569 0.313750 0.792325 0.125014
H18   H     H_    0.754491 0.687084 0.206345 0.115494
H19   H     H_    0.763661 0.298841 0.699525 0.120719
H20   H     H_    0.234419 0.723187 0.319226 0.139377
H21   H     H_    0.475906 0.715825 0.821430 0.122186
H22   H     H_    0.515911 0.075236 0.189981 0.135468
H23   H     H_    0.518310 0.421616 0.709470 0.128890
H24   H     H_    0.478683 0.742970 0.329227 0.124964
N5    N     N_R   0.863150 0.174239 0.086465 0.093254
O29   O     O_R   0.848103 0.343923 0.070948 -0.351528
O30   O     O_R   0.899247 0.112448 0.056515 -0.365397
N6    N     N_R   0.138363 0.806346 0.903264 0.095096
O31   O     O_R   0.152401 0.633727 0.911706 -0.350174
O32   O     O_R   0.104445 0.864162 0.939319 -0.364492
N7    N     N_R   0.147862 0.108646 0.391001 0.099575
O33   O     O_R   0.169570 0.947925 0.397907 -0.378889
O34   O     O_R   0.111677 0.134588 0.426884 -0.362733
N8    N     N_R   0.852812 0.886325 0.606280 0.099270
O35   O     O_R   0.832696 0.050129 0.600636 -0.366896
O36   O     O_R   0.888488 0.855193 0.569797 -0.364455
N9    N     N_R   0.384757 0.709609 0.756142 0.117730
O37   O     O_R   0.393014 0.531718 0.755834 -0.380017
O38   O     O_R   0.368105 0.793795 0.689324 -0.325909
N10   N     N_R   0.604432 0.001248 0.265335 0.111573
O39   O     O_R   0.583281 0.100428 0.311968 -0.392316
O40   O     O_R   0.631128 0.860912 0.295411 -0.341643
N11   N     N_R   0.609641 0.398662 0.776243 0.112073
O41   O     O_R   0.586836 0.453513 0.831078 -0.394636
O42   O     O_R   0.641234 0.264574 0.792730 -0.327504
N12   N     N_R   0.387067 0.773698 0.266448 0.121355
O43   O     O_R   0.408590 0.779956 0.206053 -0.379615
O44   O     O_R   0.353936 0.897286 0.271811 -0.317462
C85   C     C_3   0.548637 0.902973 0.796286 -0.374714
H25   H     H_    0.576642 0.977102 0.770773 0.158295
H26   H     H_    0.544046 0.762707 0.769621 0.137046
H27   H     H_    0.514922 0.984838 0.779095 0.112336
C86   C     C_3   0.465296 0.362829 0.132112 -0.399311
H28   H     H_    0.448277 0.501062 0.116791 0.161441
H29   H     H_    0.457733 0.319850 0.190411 0.144580
H30   H     H_    0.504736 0.383640 0.135397 0.117995
C87   C     C_3   0.457212 0.172644 0.658657 -0.412557
H31   H     H_    0.434142 0.046629 0.647588 0.158285
H32   H     H_    0.494331 0.125466 0.655011 0.115383
H33   H     H_    0.455642 0.224881 0.718787 0.158752
C88   C     C_3   0.547305 0.529939 0.307640 -0.336266
H34   H     H_    0.575024 0.454889 0.281606 0.159200
H35   H     H_    0.513688 0.446844 0.292781 0.119176
H36   H     H_    0.542547 0.668656 0.278998 0.141913

loop_
_geom_bond_atom_site_label_1
_geom_bond_atom_site_label_2
_geom_bond_distance
_ccdc_geom_bond_type
O17   V3    1.763373 S    
C31   C59   1.419821 A    
C61   C66   1.429759 A    
N1    C17   1.370948 A    
O1    C5    1.319559 A    
N9    O37   1.300997 A    
C81   C85   1.508281 S    
O19   V1    1.761283 S    
O13   V1    1.979414 S    
C63   C68   1.428141 A    
C64   C76   1.408310 A    
O3    C7    1.319345 A    
C11   C12   1.360084 D    
C14   C46   1.406459 A    
C44   C48   1.405763 A    
N1    C37   1.446931 S    
O15   V3    1.976550 S    
C36   H8    1.083276 S    
N5    O29   1.301428 A    
C83   C87   1.507363 S    
O4    V2    2.006391 S    
C86   H28   1.111331 S    
C42   C54   1.417277 A    
O7    C3    1.335247 A    
C41   C53   1.414919 A    
C32   C60   1.420925 A    
C62   C70   1.413943 A    
C23   H20   1.082672 S    
C26   H13   1.083427 S    
O9    V1    2.013599 S    
N11   O42   1.301577 A    
N3    C39   1.454099 S    
C18   C54   1.423365 A    
C32   N8    1.437071 S    
N2    C38   1.444637 S    
C74   C78   1.403879 A    
O4    C8    1.319352 A    
C25   C57   1.408673 A    
C86   H30   1.108173 S    
C31   C35   1.406775 A    
C53   C78   1.419627 A    
C21   C37   1.400876 A    
C27   C59   1.408107 A    
C15   C47   1.404542 A    
O1    V3    2.007321 S    
C75   H23   1.077902 S    
C66   C81   1.428298 A    
O2    V4    2.007320 S    
C14   O22   1.349866 S    
C20   O27   1.347912 S    
C51   C83   1.398033 A    
O3    V1    2.006391 S    
C73   C77   1.400020 A    
C34   C38   1.399384 A    
C19   C55   1.418212 A    
C52   H12   1.083348 S    
C76   C80   1.399668 A    
C1    O15   1.329617 A    
N11   O41   1.301133 A    
C2    O16   1.328699 A    
C87   H32   1.108491 S    
C76   H24   1.077394 S    
O2    C6    1.319559 A    
N7    O33   1.300455 A    
C33   C37   1.401794 A    
O14   V2    1.979414 S    
C66   C70   1.419434 A    
C30   N6    1.436589 S    
C65   C69   1.420096 A    
C30   C58   1.423861 A    
C49   C81   1.401325 A    
C16   N4    1.368586 A    
O11   C7    1.338649 A    
C28   H15   1.083265 S    
N8    O36   1.301374 A    
O12   C8    1.338640 A    
C77   N9    1.432932 S    
C43   C72   1.422655 A    
C62   C74   1.408307 A    
N12   O44   1.301582 A    
C85   H26   1.107086 S    
C61   C73   1.407577 A    
O10   V2    2.013599 S    
C63   C75   1.409153 A    
N5    O30   1.301325 A    
C25   H14   1.083198 S    
O5    V1    1.991549 S    
C88   H35   1.105868 S    
C82   C86   1.508360 S    
C73   H21   1.079455 S    
C18   O25   1.347394 S    
O7    V3    1.986359 S    
C31   N7    1.437629 S    
O8    V4    1.986356 S    
C85   H25   1.110519 S    
C12   H4    1.086215 S    
N6    O31   1.301853 A    
C28   C60   1.408093 A    
C56   C79   1.417942 A    
O18   V4    1.763374 S    
C50   C82   1.399929 A    
C7    C9    1.484045 S    
C88   H34   1.110511 S    
C35   H7    1.082742 S    
C24   C40   1.400725 A    
C8    C10   1.484042 S    
C32   C36   1.405619 A    
N10   O40   1.300697 A    
C44   C56   1.416690 A    
C11   H3    1.086220 S    
O5    C1    1.330707 A    
C84   C88   1.510958 S    
C79   N11   1.438523 S    
C42   C46   1.407746 A    
C44   C71   1.423144 A    
C41   C45   1.406555 A    
O8    C4    1.332521 A    
C87   H33   1.110288 S    
C13   C45   1.407764 A    
C9    C10   1.361282 D    
O9    C5    1.337507 A    
C36   C40   1.403290 A    
N2    C18   1.370587 A    
O11   V3    2.015541 S    
C1    C60   1.487308 S    
C63   C71   1.415835 A    
N8    O35   1.301173 A    
C86   H29   1.109256 S    
C22   C26   1.401067 A    
C14   N2    1.366678 A    
C80   N12   1.437004 S    
C22   H17   1.083086 S    
O6    V2    1.991548 S    
C55   C80   1.415761 A    
C26   C58   1.409292 A    
C17   C53   1.420976 A    
N12   O43   1.301512 A    
C85   H27   1.103082 S    
C51   H11   1.084799 S    
C4    C57   1.491029 S    
C42   C69   1.424251 A    
C54   C77   1.419259 A    
C52   C84   1.398272 A    
C29   N5    1.436647 S    
C41   C70   1.422017 A    
C50   H10   1.084651 S    
C23   C39   1.402578 A    
C68   C72   1.419714 A    
C49   H9    1.084606 S    
C22   C38   1.400541 A    
O16   V4    1.976550 S    
C88   H36   1.109099 S    
C61   C69   1.414856 A    
C3    O13   1.328433 A    
C13   O21   1.349685 S    
C10   H2    1.086169 S    
C43   C55   1.412169 A    
C48   C52   1.396590 A    
N6    O32   1.302008 A    
C74   H22   1.080926 S    
C47   C51   1.397111 A    
O6    C2    1.332922 A    
C21   C25   1.400442 A    
C5    C11   1.482997 S    
C75   C79   1.399846 A    
O12   V4    2.015542 S    
C13   N1    1.369075 A    
C6    C12   1.482995 S    
C23   C27   1.396435 A    
C64   C67   1.427922 A    
C16   C48   1.404236 A    
N4    C40   1.446999 S    
C24   C28   1.396837 A    
N10   O39   1.300930 A    
C64   C72   1.415213 A    
O20   V2    1.761284 S    
C46   C50   1.399044 A    
C27   H16   1.083152 S    
C35   C39   1.407149 A    
O10   C6    1.337505 A    
C30   C34   1.407049 A    
N4    C20   1.371336 A    
C2    C59   1.490071 S    
C15   N3    1.372839 A    
C29   C33   1.407535 A    
C29   C57   1.421671 A    
C3    C58   1.493499 S    
C21   H18   1.082826 S    
N3    C19   1.375103 A    
N7    O34   1.301412 A    
C68   C83   1.427815 A    
C9    H1    1.086169 S    
C17   O26   1.348005 S    
C24   H19   1.082945 S    
C43   C47   1.404223 A    
C16   O24   1.350217 S    
C67   C84   1.430522 A    
C20   C56   1.420807 A    
C19   O28   1.348217 S    
N9    O38   1.301162 A    
C87   H31   1.111023 S    
C4    O14   1.329630 A    
C65   C82   1.426567 A    
C78   N10   1.439153 S    
C67   C71   1.423238 A    
C15   O23   1.349852 S    
C45   C49   1.399750 A    
C34   H6    1.083551 S    
C62   C65   1.427131 A    
C33   H5    1.083290 S    
