data_mof_unit_35795.cif
_audit_creation_date              2013-03-05T16:03:27-0500
_audit_creation_method            fapswitch 2.2
_symmetry_space_group_name_H-M    P1
_symmetry_Int_Tables_number       1
_space_group_crystal_system       triclinic
_cell_length_a                    6.946758
_cell_length_b                    18.303782
_cell_length_c                    20.137832
_cell_angle_alpha                 68.56097
_cell_angle_beta                  90.501968
_cell_angle_gamma                 90.473684
_cell_volume                      2383.26470772

loop_
_atom_site_label
_atom_site_type_symbol
_atom_site_description
_atom_site_fract_x
_atom_site_fract_y
_atom_site_fract_z
_atom_type_partial_charge
O1    O     O_R   0.488960 0.443750 0.941980 -0.592753
O2    O     O_R   0.823890 0.406510 0.087590 -0.543788
O3    O     O_R   0.999680 0.556250 0.058020 -0.573523
C1    C     C_R   0.655113 0.383656 0.115345 0.927951
O4    O     O_R   0.818360 0.434410 0.944340 -0.556412
O5    O     O_R   0.994110 0.584350 0.913750 -0.602309
C2    C     C_R   0.649672 0.422907 0.921741 0.974209
O6    O     O_R   0.494530 0.415650 0.086250 -0.610150
O7    O     O_3   0.662590 0.549160 0.990130 -0.286133
V1    V     V_3+5 0.935320 0.490880 0.001830 1.246279
O8    O     O_R   0.324180 0.593490 0.912410 -0.597609
C3    C     C_R   0.154596 0.616869 0.885169 0.927141
O9    O     O_R   0.329720 0.565590 0.055660 -0.606342
C4    C     C_R   0.161859 0.579803 0.076045 0.963800
V2    V     V_3+5 0.435990 0.509120 0.998170 1.189924
O10   O     O_3   0.158850 0.450840 0.009870 -0.240009
C5    C     C_3   0.090796 0.700012 0.317282 -0.165017
C6    C     C_3   0.269771 0.694749 0.273647 -0.170566
H1    H     H_    0.384836 0.649968 0.292385 0.139810
H2    H     H_    0.058026 0.659683 0.372429 0.154146
H3    H     H_    0.440414 0.814222 0.250497 0.167979
C7    C     C_1   0.155255 0.625543 0.121545 -0.214097
C8    C     C_1   0.110102 0.872705 0.379720 -0.130966
C9    C     C_3   0.960531 0.713033 0.250795 -0.214923
C10   C     C_3   0.139644 0.708540 0.207826 0.190314
C11   C     C_3   0.993405 0.802392 0.227691 -0.058629
C12   C     C_3   0.121741 0.789485 0.293457 0.164070
C13   C     C_3   0.170658 0.797957 0.183653 -0.196113
C14   C     C_3   0.300411 0.784730 0.250273 -0.086455
C15   C     C_1   0.148850 0.663148 0.160233 0.033546
C16   C     C_1   0.115092 0.834684 0.341352 0.124352
H4    H     H_    0.203070 0.838414 0.128506 0.155895
H5    H     H_    0.819923 0.683744 0.250691 0.149034
H6    H     H_    0.433832 0.549536 0.692633 0.145417
C17   C     C_R   0.957950 0.759777 0.874470 -0.235051
C18   C     C_R   0.868024 0.827625 0.872899 -0.181692
C19   C     C_R   0.887281 0.897101 0.814234 0.362942
C20   C     C_R   0.992729 0.897608 0.754261 -0.280319
C21   C     C_R   0.057115 0.824846 0.750181 0.085126
C22   C     C_R   0.052068 0.756227 0.813856 0.126252
C23   C     C_R   0.124514 0.817896 0.685653 -0.264041
C24   C     C_R   0.205922 0.745949 0.687811 0.104331
C25   C     C_R   0.219439 0.680798 0.753492 0.110278
C26   C     C_R   0.142704 0.685788 0.816613 -0.285999
C27   C     C_R   0.273505 0.737072 0.624923 -0.169682
C28   C     C_R   0.355784 0.667106 0.627053 -0.089492
C29   C     C_R   0.370907 0.603995 0.691290 -0.049247
C30   C     C_R   0.302587 0.610227 0.753774 -0.159775
H7    H     H_    0.949755 0.710055 0.924079 0.146735
H8    H     H_    0.792814 0.827277 0.919917 0.162554
H9    H     H_    0.263067 0.783675 0.573184 0.097771
H10   H     H_    0.407109 0.661733 0.578442 0.130046
H11   H     H_    0.313420 0.558556 0.801880 0.125094
C31   C     C_R   0.506104 0.101845 0.248191 0.193551
C32   C     C_R   0.400468 0.100787 0.188559 0.255032
C33   C     C_R   0.405564 0.166545 0.124907 -0.274947
C34   C     C_R   0.531749 0.228507 0.121125 -0.089745
C35   C     C_R   0.582668 0.240715 0.185041 0.110298
C36   C     C_R   0.569376 0.175284 0.250539 -0.082649
C37   C     C_R   0.644168 0.315721 0.184557 -0.233212
C38   C     C_R   0.691280 0.325182 0.250455 0.018455
C39   C     C_R   0.695498 0.257291 0.314652 0.103192
C40   C     C_R   0.625587 0.183751 0.315479 -0.217488
C41   C     C_R   0.735974 0.399765 0.255665 -0.132877
C42   C     C_R   0.815502 0.402841 0.318885 -0.208643
C43   C     C_R   0.833477 0.335594 0.380041 0.365067
C44   C     C_R   0.766668 0.264254 0.378222 -0.306229
H12   H     H_    0.853717 0.459138 0.321752 0.195807
H13   H     H_    0.772715 0.213967 0.427454 0.153909
O11   O     O_R   0.770540 0.084530 0.414050 -0.565517
O12   O     O_R   0.445710 0.065660 0.555720 -0.548990
O13   O     O_R   0.270420 0.915650 0.586190 -0.571977
C45   C     C_R   0.614713 0.080220 0.575927 0.970736
O14   O     O_R   0.441140 0.093540 0.412470 -0.597009
O15   O     O_R   0.265820 0.943740 0.441930 -0.573968
C46   C     C_R   0.610376 0.116215 0.384827 0.983186
O16   O     O_R   0.775150 0.056440 0.558310 -0.615482
O17   O     O_3   0.602370 0.950960 0.510050 -0.273036
V3    V     V_3+5 0.329450 0.009140 0.498150 1.258637
O18   O     O_R   0.935790 0.934280 0.444060 -0.562226
C47   C     C_R   0.103824 0.919416 0.424406 1.001756
O19   O     O_R   0.940370 0.906390 0.587310 -0.622195
C48   C     C_R   0.109822 0.884344 0.615557 0.942860
V4    V     V_3+5 0.828810 0.990710 0.501460 1.235967
O20   O     O_3   0.105780 0.049100 0.489960 -0.265786
C49   C     C_3   0.743800 0.317736 0.716478 0.321836
C50   C     C_3   0.561519 0.298949 0.681418 -0.160825
H14   H     H_    0.501731 0.335496 0.628468 0.191900
H15   H     H_    0.309521 0.295756 0.761786 0.159646
C51   C     C_1   0.623138 0.127032 0.620325 -0.196132
C52   C     C_1   0.641891 0.379057 0.874720 -0.254494
C53   C     C_3   0.813759 0.233087 0.737455 -0.157958
C54   C     C_3   0.631207 0.213135 0.703839 0.109602
C55   C     C_3   0.710294 0.210822 0.810101 -0.236245
C56   C     C_3   0.640409 0.296582 0.788038 0.026793
C57   C     C_3   0.525809 0.190524 0.775893 -0.058205
C58   C     C_3   0.456383 0.276797 0.754260 -0.189932
C59   C     C_1   0.627025 0.165975 0.657795 0.178925
C60   C     C_1   0.640407 0.342064 0.835542 0.123288
H16   H     H_    0.436150 0.137082 0.800525 0.169240
H17   H     H_    0.771952 0.174623 0.862840 0.177381
N1    N     N_R   0.807502 0.967552 0.818295 0.215602
O21   O     O_R   0.635601 0.966091 0.843925 -0.397575
O22   O     O_R   0.916930 0.028470 0.808914 -0.456952
C61   C     C_2   0.050743 0.975181 0.702105 0.633481
H18   H     H_    0.945800 0.021597 0.681646 0.031014
O23   O     O_2   0.219666 0.989562 0.686167 -0.567723
N2    N     N_R   0.910802 0.340372 0.445046 0.247123
O24   O     O_R   0.972737 0.406978 0.446764 -0.360566
O25   O     O_R   0.922289 0.278053 0.502952 -0.361849
N3    N     N_R   0.582513 0.029266 0.297303 0.245205
O26   O     O_R   0.477121 0.966084 0.319863 -0.364079
O27   O     O_R   0.768164 0.022365 0.305857 -0.339223
N4    N     N_R   0.304895 0.030452 0.190568 0.245364
O28   O     O_R   0.377700 0.987737 0.157793 -0.407874
O29   O     O_R   0.141876 0.010289 0.223670 -0.339752
C62   C     C_2   0.291481 0.167177 0.061760 0.608100
H19   H     H_    0.231877 0.113275 0.059344 0.069437
O30   O     O_2   0.255039 0.228719 0.012881 -0.576387
C63   C     C_2   0.654157 0.259145 0.056735 0.522399
H20   H     H_    0.597152 0.264961 0.004976 0.033837
O31   O     O_2   0.826067 0.270588 0.062020 -0.544408
C64   C     C_2   0.677104 0.476334 0.201712 0.519364
H21   H     H_    0.543253 0.481356 0.172636 0.022545
O32   O     O_2   0.772361 0.535653 0.192048 -0.599727
N5    N     N_R   0.864870 0.386636 0.682794 0.233387
O33   O     O_R   0.940409 0.398776 0.620787 -0.309959
O34   O     O_R   0.897659 0.436348 0.714106 -0.424965
C65   C     C_2   0.012585 0.208064 0.728059 0.621862
H22   H     H_    0.096236 0.173658 0.774432 0.015378
O35   O     O_2   0.080796 0.225974 0.668547 -0.519595
C66   C     C_2   0.836169 0.861333 0.199571 0.587458
H23   H     H_    0.758560 0.864726 0.151568 -0.001689
O36   O     O_2   0.793843 0.905313 0.230259 -0.474441

loop_
_geom_bond_atom_site_label_1
_geom_bond_atom_site_label_2
_geom_bond_distance
_ccdc_geom_bond_type
C50   H14   1.110111 S    
N5    O33   1.300253 A    
C49   N5    1.457753 S    
C23   C24   1.423371 A    
N3    O26   1.299074 A    
C1    O6    1.295823 A    
O12   V3    1.978163 S    
N4    O28   1.300885 A    
C11   C66   1.496563 S    
C64   H21   1.080930 S    
C21   C23   1.434041 A    
C27   C28   1.392870 A    
C33   C34   1.407842 A    
C10   C13   1.541313 S    
C61   O23   1.220276 D    
C11   C12   1.535800 S    
C19   C20   1.415092 A    
O14   C46   1.303371 A    
C39   C44   1.416547 A    
C13   C14   1.554310 S    
C9    C11   1.543775 S    
C45   C51   1.447489 S    
O13   V3    2.005749 S    
C62   O30   1.221336 D    
O5    C3    1.295492 A    
C20   C21   1.439115 A    
N1    O22   1.300522 A    
C56   C60   1.479986 S    
C64   O32   1.220870 D    
C12   C14   1.542852 S    
C40   C46   1.492645 S    
C27   H9    1.080960 S    
C35   C37   1.431098 A    
V2    O10   2.165688 S    
C23   C48   1.492223 S    
C28   H10   1.082659 S    
C5    H2    1.110138 S    
N2    O24   1.301728 A    
C6    H1    1.110226 S    
C33   C62   1.488960 S    
C28   C29   1.387832 A    
O8    V2    2.004345 S    
C17   C18   1.384653 A    
C55   H17   1.110288 S    
C66   H23   1.084678 S    
C17   H7    1.079382 S    
O1    V2    1.962590 S    
O11   V4    2.000145 S    
C25   C30   1.417432 A    
O18   V4    1.963618 S    
C43   C44   1.395162 A    
O9    C4    1.299016 A    
N1    O21   1.301266 A    
C6    C10   1.541431 S    
C63   O31   1.221180 D    
C31   C36   1.427822 A    
C30   H11   1.081091 S    
C5    C9    1.554794 S    
C12   C16   1.483767 S    
C5    C12   1.542740 S    
C13   H4    1.110322 S    
V4    O20   2.165799 S    
C21   C22   1.430293 A    
O12   C45   1.296411 A    
C49   C50   1.541032 S    
O15   C47   1.299531 A    
C50   C58   1.558417 S    
O16   V4    1.979607 S    
C35   C36   1.424133 A    
H3    C14   1.109200 S    
H15   C58   1.109611 S    
C37   C38   1.434427 A    
C44   H13   1.079224 S    
C24   C27   1.418707 A    
C8    C16   1.215086 T    
C38   C41   1.438100 A    
O2    C1    1.301727 A    
C25   C26   1.416258 A    
C39   C40   1.421606 A    
C29   C30   1.392074 A    
C42   H12   1.083661 S    
C2    C52   1.448347 S    
C57   C58   1.556296 S    
C1    C37   1.492632 S    
C32   C33   1.401885 A    
C53   C55   1.549384 S    
C5    C6    1.552480 S    
C55   C56   1.547934 S    
N3    O27   1.300683 A    
C6    C14   1.552004 S    
C9    C10   1.541517 S    
C55   C57   1.555240 S    
O3    C4    1.298499 A    
C34   C63   1.482840 S    
C42   C43   1.392505 A    
C54   C57   1.545115 S    
O19   V4    2.004303 S    
O14   V3    2.005163 S    
O9    V2    1.963678 S    
O11   C46   1.292397 A    
C24   C25   1.423721 A    
O2    V1    2.005153 S    
V3    O20   1.703681 S    
C18   H8    1.083394 S    
C63   H20   1.080233 S    
O4    C2    1.296633 A    
C65   H22   1.083048 S    
O7    V1    2.150532 S    
C10   C15   1.482240 S    
C31   C32   1.407923 A    
C18   C19   1.390115 A    
N5    O34   1.300346 A    
C7    C15   1.214849 T    
O1    C2    1.298749 A    
C11   C13   1.543589 S    
C8    C47   1.451353 S    
C43   N2    1.442361 S    
O18   C47   1.298194 A    
O5    V1    2.005677 S    
N4    O29   1.299806 A    
O8    C3    1.302800 A    
C56   C58   1.544442 S    
C32   N4    1.431108 S    
O6    V2    2.004757 S    
C41   C64   1.483400 S    
C61   H18   1.082643 S    
C57   H16   1.109712 S    
C36   C40   1.422995 A    
C9    H5    1.110674 S    
C41   C42   1.403137 A    
C4    C7    1.450755 S    
C20   C61   1.479650 S    
C53   C65   1.493877 S    
O7    V2    1.714608 S    
O4    V1    1.978190 S    
C3    C26   1.493561 S    
O3    V1    1.970778 S    
C49   C53   1.531558 S    
C62   H19   1.084064 S    
O17   V3    2.150537 S    
C34   C35   1.425739 A    
C19   N1    1.437485 S    
C50   C54   1.547800 S    
C53   C54   1.535521 S    
N2    O25   1.301861 A    
C31   N3    1.437603 S    
C17   C22   1.412190 A    
C38   C39   1.428962 A    
O13   C48   1.294604 A    
C49   C56   1.532344 S    
O17   V4    1.711004 S    
C22   C26   1.422075 A    
C66   O36   1.219482 D    
O19   C48   1.303986 A    
C45   O16   1.298195 A    
V1    O10   1.703590 S    
H6    C29   1.082906 S    
C52   C60   1.212977 T    
O15   V3    1.970613 S    
C54   C59   1.479839 S    
C51   C59   1.212736 T    
C65   O35   1.220017 D    
