data_mof_unit_8280.cif
_audit_creation_date              2012-12-11T14:41:14-0500
_audit_creation_method            fapswitch 2.2
_symmetry_space_group_name_H-M    P1
_symmetry_Int_Tables_number       1
_space_group_crystal_system       triclinic
_cell_length_a                    24.538391
_cell_length_b                    17.413988
_cell_length_c                    15.538489
_cell_angle_alpha                 90.019817
_cell_angle_beta                  129.238212
_cell_angle_gamma                 90.111884
_cell_volume                      5142.63358598

loop_
_atom_site_label
_atom_site_type_symbol
_atom_type_description
_atom_site_fract_x
_atom_site_fract_y
_atom_site_fract_z
_atom_type_partial_charge
C1    C     C_R   0.333742 0.391907 0.198875 -0.130318
C2    C     C_R   0.333664 0.607195 0.198072 -0.129766
C3    C     C_R   0.851656 0.857828 0.244534 -0.123518
C4    C     C_R   0.835571 0.113498 0.203633 -0.127094
C5    C     C_R   0.633406 0.340911 0.828544 0.168044
C6    C     C_R   0.647979 0.624555 0.864586 0.152526
C7    C     C_R   0.118131 0.819679 0.790224 0.162700
C8    C     C_R   0.120107 0.178058 0.795618 0.163487
C9    C     C_R   0.640473 0.314981 0.499967 0.123335
C10   C     C_R   0.640616 0.685839 0.502626 0.123003
C11   C     C_R   0.179839 0.873797 0.498124 0.048109
C12   C     C_R   0.180117 0.130145 0.501745 0.028884
C13   C     C_R   0.363755 0.313982 0.502856 0.065329
C14   C     C_R   0.361695 0.684863 0.500693 0.029335
C15   C     C_R   0.818793 0.881086 0.501888 0.040696
C16   C     C_R   0.819289 0.122449 0.499726 0.037411
C17   C     C_3   0.358053 0.218465 0.618498 -0.511406
C18   C     C_3   0.290461 0.698525 0.559016 -0.533111
C19   C     C_3   0.786272 0.838409 0.617716 -0.507561
C20   C     C_3   0.779599 0.156673 0.608129 -0.552775
C21   C     C_3   0.735025 0.787287 0.617857 0.448562
C22   C     C_3   0.727228 0.206561 0.606741 0.446778
C23   C     C_3   0.303964 0.183408 0.626116 0.468756
C24   C     C_3   0.239441 0.749060 0.558418 0.466139
C25   C     C_3   0.256274 0.307303 0.476318 -0.422404
C26   C     C_3   0.248983 0.756721 0.379112 -0.432786
C27   C     C_3   0.692435 0.860118 0.414369 -0.426383
C28   C     C_3   0.691976 0.147999 0.401476 -0.420532
C29   C     C_3   0.287578 0.193723 0.412549 -0.098412
C30   C     C_3   0.351934 0.818511 0.557274 -0.085521
C31   C     C_3   0.775911 0.749020 0.474915 -0.089854
C32   C     C_3   0.782019 0.255293 0.485965 -0.094696
C33   C     C_3   0.318880 0.258364 0.503057 0.249295
C34   C     C_3   0.315833 0.739511 0.500938 0.260559
C35   C     C_3   0.770058 0.833306 0.503490 0.246896
C36   C     C_3   0.770018 0.169492 0.500238 0.268750
C37   C     C_3   0.685550 0.743063 0.504320 0.161351
C38   C     C_3   0.684722 0.258301 0.499951 0.160923
C39   C     C_3   0.231544 0.175169 0.504486 0.172005
C40   C     C_3   0.228661 0.826443 0.498002 0.175079
C41   C     C_3   0.642254 0.801991 0.407793 -0.342056
C42   C     C_3   0.642172 0.206314 0.394687 -0.343025
C43   C     C_3   0.199500 0.255293 0.456360 -0.327181
C44   C     C_3   0.200518 0.811649 0.377673 -0.373949
C45   C     C_R   0.660992 0.376684 0.784442 -0.100072
C46   C     C_R   0.667954 0.605221 0.801727 -0.084874
C47   C     C_R   0.150754 0.861513 0.757893 -0.078670
C48   C     C_R   0.152210 0.137136 0.761644 -0.114514
C49   C     C_3   0.732351 0.695530 0.488508 -0.557760
C50   C     C_3   0.737422 0.307145 0.498879 -0.557490
C51   C     C_3   0.245338 0.136962 0.428437 -0.560767
C52   C     C_3   0.300988 0.868092 0.561538 -0.554803
C53   C     C_2   0.661523 0.272212 0.896150 -0.279325
C54   C     C_2   0.694408 0.650848 0.980201 -0.231205
C55   C     C_2   0.143933 0.748080 0.853374 -0.259211
C56   C     C_2   0.146333 0.248773 0.860585 -0.260016
C57   C     C_2   0.702521 0.226174 0.890375 0.013277
C58   C     C_2   0.764195 0.653441 0.039107 -0.102002
C59   C     C_2   0.196130 0.708992 0.868057 -0.069309
C60   C     C_2   0.196178 0.290071 0.871253 -0.104219
C61   C     C_2   0.307475 0.654149 0.020433 -0.202979
C62   C     C_2   0.307163 0.345910 0.020998 -0.186251
C63   C     C_2   0.811689 0.166667 0.031357 -0.206144
C64   C     C_2   0.859673 0.742994 0.151970 -0.177309
C65   C     C_2   0.237662 0.656414 0.961533 -0.107361
C66   C     C_2   0.237527 0.343720 0.963038 -0.113070
C67   C     C_2   0.742206 0.167510 0.973253 -0.035756
C68   C     C_2   0.805960 0.704967 0.134226 -0.118650
C69   C     C_R   0.588273 0.356768 0.407149 -0.150503
C70   C     C_R   0.588671 0.643917 0.408625 -0.155395
C71   C     C_R   0.113294 0.894066 0.406446 -0.040484
C72   C     C_R   0.112725 0.111885 0.408039 -0.148926
C73   C     C_R   0.412065 0.359763 0.593754 -0.101146
C74   C     C_R   0.413930 0.642568 0.593301 -0.108714
C75   C     C_R   0.886813 0.898289 0.593226 -0.112514
C76   C     C_R   0.886719 0.103663 0.592198 -0.112007
C77   C     C_R   0.665280 0.359434 0.592210 -0.093454
C78   C     C_R   0.664069 0.641482 0.594109 -0.090748
C79   C     C_R   0.188351 0.894437 0.591383 -0.106296
C80   C     C_R   0.188537 0.104008 0.592625 -0.049307
C81   C     C_R   0.340620 0.355372 0.408910 -0.145084
C82   C     C_R   0.339901 0.643278 0.407757 -0.133247
C83   C     C_R   0.812360 0.896384 0.408925 -0.163626
C84   C     C_R   0.813324 0.106714 0.407367 -0.161403
C85   C     C_R   0.570237 0.375351 0.784965 -0.133587
C86   C     C_R   0.577488 0.606072 0.802668 -0.139529
C87   C     C_R   0.059326 0.860552 0.758469 -0.144935
C88   C     C_R   0.060493 0.137915 0.761695 -0.141357
C89   C     C_R   0.424035 0.391391 0.197318 -0.143170
C90   C     C_R   0.424202 0.608452 0.197334 -0.146879
C91   C     C_R   0.942953 0.857046 0.243573 -0.088366
C92   C     C_R   0.926357 0.113647 0.201872 -0.134738
C93   C     C_R   0.353652 0.372723 0.135968 0.132381
C94   C     C_R   0.353720 0.626727 0.135383 0.148406
C95   C     C_R   0.884740 0.815450 0.213505 0.141510
C96   C     C_R   0.856842 0.135138 0.143000 0.135352
H1    H     H_    0.280990 0.394629 0.171710 0.077476
H2    H     H_    0.280720 0.603676 0.170053 0.079217
H3    H     H_    0.804036 0.843783 0.231329 0.084043
H4    H     H_    0.783271 0.114649 0.178483 0.083972
H5    H     H_    0.393769 0.173617 0.629882 0.140999
H6    H     H_    0.334997 0.683007 0.646146 0.138214
H7    H     H_    0.840741 0.819986 0.686469 0.126518
H8    H     H_    0.833663 0.171101 0.683266 0.130955
H9    H     H_    0.768378 0.745493 0.686283 -0.030037
H10   H     H_    0.759527 0.243218 0.682111 -0.004510
H11   H     H_    0.323190 0.124960 0.662016 0.013985
H12   H     H_    0.264485 0.762233 0.646530 0.011788
H13   H     H_    0.275331 0.347481 0.545910 0.232085
H14   H     H_    0.218785 0.702941 0.336435 0.191988
H15   H     H_    0.685209 0.918176 0.435714 0.206567
H16   H     H_    0.679976 0.088919 0.412574 0.203312
H17   H     H_    0.603510 0.832337 0.410274 0.215775
H18   H     H_    0.598356 0.176491 0.384399 0.210242
H19   H     H_    0.176777 0.281648 0.492336 0.224815
H20   H     H_    0.146608 0.786919 0.324486 0.206862
H21   H     H_    0.748988 0.748933 0.384178 0.110469
H22   H     H_    0.759363 0.260948 0.397376 0.114690
H23   H     H_    0.247621 0.221866 0.330742 0.109241
H24   H     H_    0.356955 0.848703 0.499311 0.115917
H25   H     H_    0.766130 0.655804 0.559925 0.168126
H26   H     H_    0.770497 0.342404 0.575844 0.167231
H27   H     H_    0.272907 0.081675 0.466030 0.161074
H28   H     H_    0.322990 0.880523 0.648226 0.164649
H29   H     H_    0.699585 0.658261 0.413297 0.177902
H30   H     H_    0.708988 0.348865 0.428725 0.180319
H31   H     H_    0.195177 0.122541 0.345145 0.173429
H32   H     H_    0.293629 0.924976 0.522714 0.172940
H33   H     H_    0.231484 0.343263 0.400761 0.148496
H34   H     H_    0.263877 0.782087 0.330748 0.153848
H35   H     H_    0.677893 0.864547 0.330793 0.143487
H36   H     H_    0.681286 0.148711 0.320593 0.143792
H37   H     H_    0.713857 0.371089 0.812934 0.070770
H38   H     H_    0.720859 0.602102 0.829598 0.067145
H39   H     H_    0.198717 0.847866 0.772108 0.088744
H40   H     H_    0.200973 0.150089 0.777921 0.143577
H41   H     H_    0.611793 0.771981 0.326302 0.139813
H42   H     H_    0.617944 0.241695 0.318896 0.144535
H43   H     H_    0.155378 0.250649 0.365337 0.143785
H44   H     H_    0.197753 0.866773 0.338726 0.149596
H45   H     H_    0.212784 0.630761 0.992552 0.120870
H46   H     H_    0.212931 0.369485 0.994381 0.121421
H47   H     H_    0.716967 0.137403 0.000796 0.115159
H48   H     H_    0.785050 0.721756 0.175532 0.116303
H49   H     H_    0.715473 0.239213 0.836800 0.175376
H50   H     H_    0.788914 0.628987 0.007224 0.124957
H51   H     H_    0.215858 0.724960 0.824674 0.152925
H52   H     H_    0.214589 0.275205 0.825943 0.198550
H53   H     H_    0.331596 0.680597 0.988389 0.130266
H54   H     H_    0.330905 0.319491 0.988436 0.149543
H55   H     H_    0.835973 0.197748 0.002600 0.130020
H56   H     H_    0.879814 0.725873 0.109473 0.132388
H57   H     H_    0.649061 0.259296 0.950457 0.136489
H58   H     H_    0.670499 0.675541 0.013475 0.127571
H59   H     H_    0.124839 0.731667 0.897661 0.130098
H60   H     H_    0.128593 0.263715 0.907250 0.132194
H61   H     H_    0.561167 0.343118 0.321027 0.096148
H62   H     H_    0.562327 0.658118 0.322917 0.094421
H63   H     H_    0.091265 0.894794 0.320342 0.058521
H64   H     H_    0.090323 0.117309 0.322005 0.091313
H65   H     H_    0.432799 0.353844 0.677977 0.107364
H66   H     H_    0.440272 0.655235 0.679427 0.112417
H67   H     H_    0.909220 0.899458 0.679460 0.086574
H68   H     H_    0.908438 0.103314 0.678096 0.087182
H69   H     H_    0.711931 0.350071 0.676218 0.070448
H70   H     H_    0.706764 0.653022 0.680445 0.090511
H71   H     H_    0.236290 0.893458 0.676688 0.068361
H72   H     H_    0.236263 0.098004 0.677231 0.133363
H73   H     H_    0.297396 0.341276 0.323593 0.082166
H74   H     H_    0.298829 0.656734 0.321451 0.095825
H75   H     H_    0.765084 0.894417 0.323185 0.085974
H76   H     H_    0.767247 0.110213 0.320926 0.089832
H77   H     H_    0.540548 0.367079 0.813654 0.097661
H78   H     H_    0.548478 0.603867 0.833524 0.096262
H79   H     H_    0.022722 0.844254 0.771901 0.106620
H80   H     H_    0.024245 0.153506 0.776074 0.106282
H81   H     H_    0.452745 0.393993 0.165967 0.101415
H82   H     H_    0.453233 0.606227 0.166523 0.092125
H83   H     H_    0.979424 0.840625 0.230038 0.107788
H84   H     H_    0.955967 0.113965 0.172000 0.093685
H85   H     H_    0.394283 0.254895 0.691419 0.209794
H86   H     H_    0.265349 0.642994 0.515784 0.200617
H87   H     H_    0.783219 0.899420 0.635638 0.211389
H88   H     H_    0.772469 0.094590 0.615639 0.198526
N1    N     N_R   0.389430 0.421450 0.294590 -0.037247
N2    N     N_R   0.389430 0.578550 0.294590 -0.040963
N3    N     N_R   0.889430 0.921450 0.294590 -0.044596
N4    N     N_R   0.889430 0.078550 0.294590 -0.044462
N5    N     N_R   0.612200 0.424040 0.705410 -0.042899
N6    N     N_R   0.612200 0.575960 0.705410 -0.042188
N7    N     N_R   0.112200 0.924040 0.705410 -0.051582
N8    N     N_R   0.112200 0.075960 0.705410 -0.053593
N9    N     N_R   0.581780 0.422390 0.443390 -0.044513
N10   N     N_R   0.581780 0.577610 0.443390 -0.044424
N11   N     N_R   0.081780 0.922390 0.443390 -0.035513
N12   N     N_R   0.081780 0.077610 0.443390 -0.042353
N13   N     N_R   0.419850 0.423100 0.556610 -0.044830
N14   N     N_R   0.419850 0.576900 0.556610 -0.043961
N15   N     N_R   0.919850 0.923100 0.556610 -0.033721
N16   N     N_R   0.919850 0.076900 0.556610 -0.036822
N17   N     N_R   0.627410 0.423100 0.556610 -0.049099
N18   N     N_R   0.627410 0.576900 0.556610 -0.053058
N19   N     N_R   0.127410 0.923100 0.556610 -0.031223
N20   N     N_R   0.127410 0.076900 0.556610 -0.050906
N21   N     N_R   0.374220 0.422390 0.443390 -0.041317
N22   N     N_R   0.374220 0.577610 0.443390 -0.041586
N23   N     N_R   0.874220 0.922390 0.443390 -0.030860
N24   N     N_R   0.874220 0.077610 0.443390 -0.033046
N25   N     N_R   0.555000 0.424040 0.705410 -0.042985
N26   N     N_R   0.555000 0.575960 0.705410 -0.041631
N27   N     N_R   0.055000 0.924040 0.705410 -0.047641
N28   N     N_R   0.055000 0.075960 0.705410 -0.047828
N29   N     N_R   0.446630 0.421450 0.294590 -0.036578
N30   N     N_R   0.446630 0.578550 0.294590 -0.036777
N31   N     N_R   0.946630 0.921450 0.294590 -0.050647
N32   N     N_R   0.946630 0.078550 0.294590 -0.044341
Ni1   Ni    Ni4+2 0.382890 0.500000 0.370170 0.215880
Ni2   Ni    Ni4+2 0.882890 0.000000 0.370170 0.216700
Ni3   Ni    Ni4+2 0.618740 0.500000 0.629830 0.214907
Ni4   Ni    Ni4+2 0.118740 1.000000 0.629830 0.219591
Ni5   Ni    Ni4+2 0.514090 0.500000 0.370170 0.217977
Ni6   Ni    Ni4+2 0.014090 0.000000 0.370170 0.215763
Ni7   Ni    Ni4+2 0.487550 0.500000 0.629830 0.225703
Ni8   Ni    Ni4+2 0.987550 1.000000 0.629830 0.212394
S1    S     S_3+6 0.301613 0.238827 0.724339 -0.104727
O1    O     O_2   0.337540 0.315480 0.751352 -0.304638
O2    O     O_2   0.227673 0.252851 0.680558 -0.364579
O3    O     O_3   0.344390 0.187685 0.842397 -0.566443
H89   H     H_    0.332035 0.212180 0.885512 0.351334
S2    S     S_3+6 0.160149 0.695344 0.504943 -0.061473
O4    O     O_2   0.110477 0.742170 0.509023 -0.274605
O5    O     O_2   0.122811 0.669902 0.387205 -0.332934
O6    O     O_3   0.182968 0.617399 0.585224 -0.515254
H90   H     H_    0.193383 0.577012 0.552620 0.350617
S3    S     S_3+6 0.689259 0.842501 0.653462 -0.060482
O7    O     O_2   0.659301 0.914585 0.585295 -0.238590
O8    O     O_2   0.630483 0.796891 0.634660 -0.329449
O9    O     O_3   0.746907 0.867193 0.788388 -0.515012
H91   H     H_    0.760384 0.818086 0.829396 0.329143
S4    S     S_3+6 0.672947 0.147984 0.622376 -0.054371
O10   O     O_2   0.617951 0.196170 0.610924 -0.283862
O11   O     O_2   0.637033 0.084950 0.536930 -0.290098
O12   O     O_3   0.724237 0.108205 0.749612 -0.516184
H92   H     H_    0.747617 0.064319 0.744352 0.372197
C97   C     C_R   0.340627 0.155096 0.405038 0.167895
C98   C     C_R   0.344429 0.179619 0.322411 -0.162046
C99   C     C_R   0.393954 0.148476 0.315392 -0.112873
C100  C     C_R   0.439776 0.091353 0.389358 -0.016605
C101  C     C_R   0.435622 0.064695 0.469711 -0.062988
C102  C     C_R   0.386395 0.095858 0.477512 -0.171867
H93   H     H_    0.309297 0.223397 0.263237 0.100582
H94   H     H_    0.396719 0.168709 0.252364 0.118989
H95   H     H_    0.478123 0.067305 0.383843 0.147831
H96   H     H_    0.470593 0.019623 0.526124 0.141016
H97   H     H_    0.384535 0.072416 0.539898 0.103503
C103  C     C_R   0.425952 0.813805 0.669111 0.134338
C104  C     C_R   0.484408 0.829151 0.674309 -0.158680
C105  C     C_R   0.552807 0.825411 0.775383 -0.027282
C106  C     C_R   0.563881 0.806693 0.872675 -0.131056
C107  C     C_R   0.506631 0.790994 0.868988 -0.131913
C108  C     C_R   0.438076 0.794529 0.768124 -0.154280
H98   H     H_    0.477195 0.843676 0.599923 0.131823
H99   H     H_    0.597281 0.837254 0.778329 0.177483
H100  H     H_    0.616843 0.804582 0.950992 0.108489
H101  H     H_    0.515349 0.776399 0.944548 0.108490
H102  H     H_    0.394904 0.782847 0.768327 0.102075
C109  C     C_R   0.850570 0.719142 0.533714 0.178417
C110  C     C_R   0.875244 0.712201 0.473128 -0.171985
C111  C     C_R   0.943218 0.685823 0.524261 -0.061455
C112  C     C_R   0.987349 0.665258 0.636198 -0.065555
C113  C     C_R   0.963843 0.671783 0.697526 -0.152649
C114  C     C_R   0.896004 0.698609 0.646988 -0.153291
H103  H     H_    0.842065 0.727849 0.386179 0.098737
H104  H     H_    0.961588 0.681138 0.476875 0.154497
H105  H     H_    0.039746 0.644153 0.675343 0.141345
H106  H     H_    0.998176 0.655750 0.784362 0.110625
H107  H     H_    0.879063 0.701715 0.696322 0.100454
C115  C     C_R   0.858484 0.282769 0.556475 0.177804
C116  C     C_R   0.888289 0.296563 0.504615 -0.163785
C117  C     C_R   0.956643 0.325443 0.565284 -0.077516
C118  C     C_R   0.996122 0.341274 0.678290 -0.073207
C119  C     C_R   0.968040 0.326435 0.731564 -0.150572
C120  C     C_R   0.899761 0.297246 0.671421 -0.154752
H108  H     H_    0.858466 0.285451 0.416732 0.105042
H109  H     H_    0.978748 0.336312 0.524325 0.123231
H110  H     H_    0.048464 0.365216 0.724503 0.126784
H111  H     H_    0.998935 0.338444 0.819400 0.106159
H112  H     H_    0.878899 0.288572 0.714505 0.098528

loop_
_geom_bond_atom_site_label_1
_geom_bond_atom_site_label_2
_ccdc_geom_bond_type
C15   C75   A    
C97   C102  A    
C90   H82   S    
N3    N31   A    
C53   H57   S    
C114  H107  S    
C55   C59   D    
C42   H42   S    
C51   H27   S    
C27   C35   S    
N13   N21   A    
C105  H99   S    
C50   H26   S    
C16   C84   A    
C56   H60   S    
C67   H47   S    
N6    Ni3   S    
C8    C56   S    
C82   H74   S    
C47   H39   S    
C52   H32   S    
C26   C44   S    
C84   N24   A    
C80   N20   A    
C99   H94   S    
C28   H16   S    
C55   H59   S    
C29   H23   S    
N11   Ni6   S    
N21   Ni1   S    
C119  C120  A    
C17   C23   S    
N1    Ni1   S    
C111  H104  S    
C64   H56   S    
C10   C37   S    
C18   C24   S    
C14   C74   A    
C44   H20   S    
C81   N21   A    
C19   C21   S    
C90   N30   A    
C9    C69   A    
C38   C42   S    
C24   S2    S    
C86   H78   S    
C37   C41   S    
C54   C58   D    
C11   C71   A    
C59   H51   S    
N14   N22   A    
C83   H75   S    
C18   H86   S    
C77   H69   S    
O12   H92   S    
C22   C38   S    
C3    H3    S    
C13   C81   A    
C92   C96   A    
S1    O3    S    
C27   H35   S    
N20   Ni4   S    
S2    O6    S    
C75   H67   S    
C104  C105  A    
C18   H6    S    
C28   C42   S    
C87   H79   S    
C17   H5    S    
C117  H109  S    
N8    N28   A    
C83   N23   A    
C57   H49   S    
C92   H84   S    
C43   H19   S    
C39   C51   S    
C4    C96   A    
C19   H7    S    
C26   C34   S    
N5    Ni3   S    
C7    C87   A    
C74   N14   A    
C29   C33   S    
C73   N13   A    
C110  H103  S    
C85   H77   S    
S3    O7    D    
C14   C34   S    
C43   H43   S    
C50   H30   S    
C89   H81   S    
N12   N20   A    
C107  H101  S    
C62   H54   S    
O6    H90   S    
C26   H14   S    
C92   N32   A    
C41   H41   S    
C26   H34   S    
C25   H13   S    
C71   N11   A    
C20   H88   S    
C5    C85   A    
C70   N10   A    
N9    Ni5   S    
C25   H33   S    
C12   C72   A    
C60   C66   S    
C101  H96   S    
C44   H44   S    
C16   C76   A    
C111  C112  A    
C89   C93   A    
S3    O8    D    
C79   H71   S    
C25   C43   S    
S2    O4    D    
C2    N2    A    
C17   C33   S    
C46   N6    A    
C32   C36   S    
C15   C35   S    
O3    H89   S    
C23   S1    S    
C42   H18   S    
C90   C94   A    
C22   S4    S    
C98   H93   S    
N22   Ni1   S    
N24   Ni2   S    
C113  H106  S    
N2    Ni1   S    
C63   C67   D    
C31   C49   S    
C78   H70   S    
C62   C66   D    
C31   C109  S    
C104  H98   S    
N16   Ni8   S    
C78   N18   A    
C2    C94   A    
C28   C36   S    
C117  C118  A    
N17   Ni3   S    
C112  C113  A    
N15   N23   A    
C76   N16   A    
C1    H1    S    
C74   H66   S    
C30   C34   S    
C61   C94   S    
C39   C43   S    
C84   H76   S    
C118  C119  A    
C40   C52   S    
C103  C108  A    
C5    C45   A    
C63   C96   S    
S4    O12   S    
C56   C60   D    
C66   H46   S    
C77   N17   A    
C8    C88   A    
C7    C47   A    
N18   Ni3   S    
C8    C48   A    
C13   C73   A    
C31   H21   S    
N30   Ni5   S    
C61   C65   D    
C46   H38   S    
N2    N30   A    
C109  C114  A    
C27   C41   S    
C73   H65   S    
C116  C117  A    
C23   H11   S    
C103  C104  A    
C69   N9    A    
S4    O11   D    
C101  C102  A    
C21   H9    S    
C21   C37   S    
C9    C77   A    
C116  H108  S    
S2    O5    D    
C91   N31   A    
C18   C34   S    
C63   H55   S    
C37   C49   S    
N16   N24   A    
C11   C79   A    
C69   H61   S    
N10   Ni5   S    
C24   H12   S    
C7    C55   S    
C10   C70   A    
C45   N5    A    
C20   C22   S    
C6    C54   S    
C75   N15   A    
C115  C120  A    
N4    N32   A    
N25   Ni7   S    
S3    O9    S    
C30   C103  S    
C76   H68   S    
N8    Ni4   S    
C19   H87   S    
C106  C107  A    
N31   Ni6   S    
C64   C68   D    
C6    C86   A    
C82   N22   A    
C71   H63   S    
C100  C101  A    
C89   N29   A    
C29   C51   S    
C5    C53   S    
C102  H97   S    
C30   C52   S    
O9    H91   S    
C24   C40   S    
N23   Ni2   S    
C53   C57   D    
N26   Ni7   S    
C6    C46   A    
C119  H111  S    
S1    O1    D    
C120  H112  S    
C100  H95   S    
C29   C97   S    
C112  H105  S    
C48   H40   S    
N12   Ni6   S    
C86   N26   A    
C64   C95   S    
C32   H22   S    
C107  C108  A    
N13   Ni7   S    
C3    N3    A    
N7    Ni4   S    
C72   N12   A    
C68   H48   S    
C15   C83   A    
C109  C110  A    
C106  H100  S    
C38   C50   S    
N4    Ni2   S    
C49   H29   S    
C45   H37   S    
C118  H110  S    
C72   H64   S    
C58   H50   S    
C79   N19   A    
N29   Ni5   S    
C1    N1    A    
C4    N4    A    
C98   C99   A    
C4    H4    S    
N14   Ni7   S    
N6    N26   A    
C51   H31   S    
C108  H102  S    
N5    N25   A    
C59   C65   S    
C87   N27   A    
S4    O10   D    
C57   C67   S    
C58   C68   S    
C21   S3    S    
N9    N17   A    
C30   H24   S    
C12   C39   S    
C23   C39   S    
N27   Ni8   S    
C12   C80   A    
C52   H28   S    
C41   H17   S    
C9    C38   S    
S1    O2    D    
C3    C95   A    
N1    N29   A    
C10   C78   A    
C32   C50   S    
C31   C35   S    
C49   H25   S    
N19   Ni4   S    
C47   N7    A    
C11   C40   S    
C70   H62   S    
N28   Ni8   S    
C48   N8    A    
N32   Ni6   S    
C22   H10   S    
C20   H8    S    
C27   H15   S    
C20   C36   S    
C17   H85   S    
C88   H80   S    
C40   C44   S    
C32   C115  S    
N11   N19   A    
C110  C111  A    
C2    H2    S    
C91   C95   A    
C1    C93   A    
C13   C33   S    
C88   N28   A    
C62   C93   S    
C105  C106  A    
C14   C82   A    
C115  C116  A    
C85   N25   A    
C19   C35   S    
N15   Ni8   S    
C60   H52   S    
C28   H36   S    
C54   H58   S    
C97   C98   A    
N7    N27   A    
C61   H53   S    
C81   H73   S    
C80   H72   S    
C16   C36   S    
C65   H45   S    
C113  C114  A    
C99   C100  A    
C25   C33   S    
C91   H83   S    
N3    Ni2   S    
N10   N18   A    
