data_mof_unit_35548.cif
_audit_creation_date              2013-03-05T15:55:19-0500
_audit_creation_method            fapswitch 2.2
_symmetry_space_group_name_H-M    P1
_symmetry_Int_Tables_number       1
_space_group_crystal_system       triclinic
_cell_length_a                    12.33154
_cell_length_b                    13.150896
_cell_length_c                    13.878305
_cell_angle_alpha                 105.070088
_cell_angle_beta                  73.71678
_cell_angle_gamma                 116.657723
_cell_volume                      1906.96183289

loop_
_atom_site_label
_atom_site_type_symbol
_atom_site_description
_atom_site_fract_x
_atom_site_fract_y
_atom_site_fract_z
_atom_type_partial_charge
O1    O     O_R   0.025040 0.682470 0.528790 -0.586476
O2    O     O_R   0.194310 0.640150 0.490130 -0.609032
C1    C     C_R   0.144755 0.713454 0.505386 0.779684
O3    O     O_R   0.903380 0.524130 0.659910 -0.576260
O4    O     O_R   0.072660 0.481800 0.621240 -0.573855
C2    C     C_R   0.984124 0.504033 0.686316 0.805148
Cu1   Cu    Cu3+1 0.899780 0.525060 0.522890 0.966444
Cu2   Cu    Cu3+1 0.100220 0.474940 0.477110 0.941059
O5    O     O_R   0.805690 0.359850 0.509870 -0.587973
O6    O     O_R   0.974960 0.317530 0.471210 -0.590362
O7    O     O_R   0.927340 0.518200 0.378760 -0.546007
O8    O     O_R   0.096620 0.475870 0.340090 -0.583792
C3    C     C_R   0.856001 0.286026 0.485548 0.805978
C4    C     C_R   0.015739 0.495586 0.313611 0.826777
C5    C     C_1   0.024629 0.491160 0.208188 -0.112234
C6    C     C_2   0.044443 0.479676 0.011889 0.347164
C7    C     C_2   0.962433 0.501117 0.982685 -0.277851
C8    C     C_1   0.967633 0.503548 0.878784 0.103563
C9    C     C_1   0.033627 0.486237 0.118914 -0.026821
C10   C     C_1   0.974223 0.504523 0.791107 -0.121981
H1    H     H_    0.890385 0.520896 0.039190 0.165785
C11   C     C_R   0.741265 0.969806 0.380181 -0.177990
H2    H     H_    0.920600 0.105371 0.389136 0.153254
H3    H     H_    0.569777 0.765999 0.321501 0.163432
H4    H     H_    0.778991 0.907541 0.337238 0.145800
C12   C     C_R   0.774894 0.163912 0.465304 -0.047626
C13   C     C_R   0.177393 0.919120 0.541633 -0.177716
C14   C     C_R   0.253623 0.037084 0.547640 0.188332
C15   C     C_R   0.381656 0.071096 0.520582 -0.221852
C16   C     C_R   0.434774 0.989562 0.480360 0.064402
C17   C     C_R   0.355450 0.872173 0.458587 0.073576
C18   C     C_R   0.564554 0.021345 0.458354 0.095662
C19   C     C_R   0.613278 0.939188 0.402719 0.157745
C20   C     C_R   0.533830 0.828169 0.368408 -0.225611
C21   C     C_R   0.406955 0.795458 0.394681 -0.175048
C22   C     C_R   0.647301 0.131932 0.492185 -0.220193
C23   C     C_R   0.821901 0.082018 0.410657 -0.193015
C24   C     C_R   0.227086 0.836048 0.499882 -0.150950
H5    H     H_    0.614476 0.195055 0.540335 0.148907
H6    H     H_    0.079042 0.891123 0.569880 0.166043
H7    H     H_    0.437567 0.162570 0.527369 0.132998
H8    H     H_    0.350921 0.710536 0.360669 0.186778
C25   C     C_R   0.648217 0.686103 0.649480 -0.280829
H9    H     H_    0.823558 0.705449 0.668251 0.127915
H10   H     H_    0.445112 0.719664 0.683095 0.156224
H11   H     H_    0.646727 0.758555 0.708146 0.147479
N1    N     N_R   0.748810 0.563010 0.557590 -0.195753
C26   C     C_R   0.249582 0.350189 0.365253 0.010129
C27   C     C_R   0.352409 0.324009 0.327743 -0.299784
C28   C     C_R   0.458770 0.386780 0.370195 0.329154
C29   C     C_R   0.456963 0.470191 0.459411 -0.135944
C30   C     C_R   0.350210 0.496931 0.492001 0.240687
C31   C     C_R   0.555335 0.529515 0.517128 -0.019318
C32   C     C_R   0.551517 0.622640 0.595456 0.167174
C33   C     C_R   0.449646 0.650108 0.621893 -0.241772
C34   C     C_R   0.349709 0.586109 0.573850 -0.122329
C35   C     C_R   0.655313 0.498446 0.504584 0.087045
C36   C     C_R   0.747559 0.655728 0.628080 0.071877
N2    N     N_R   0.250540 0.437620 0.443020 -0.202446
H12   H     H_    0.659652 0.421910 0.455352 0.174237
H13   H     H_    0.170210 0.303810 0.328677 0.156511
H14   H     H_    0.352021 0.259294 0.260912 0.192276
H15   H     H_    0.273538 0.610072 0.603676 0.201926
N3    N     N_R   0.569925 0.374713 0.313057 0.097137
O9    O     O_R   0.665740 0.464597 0.282905 -0.371020
O10   O     O_R   0.568550 0.272641 0.275575 -0.368172
N4    N     N_R   0.142741 0.452419 0.941824 0.140185
O11   O     O_R   0.233808 0.458307 0.976037 -0.346067
O12   O     O_R   0.136649 0.410824 0.846620 -0.359244
C37   C     C_3   0.204693 0.130760 0.585096 -0.381642
C38   C     C_3   0.064496 0.089276 0.600205 -0.803472
H16   H     H_    0.031328 0.037544 0.528981 0.243652
H17   H     H_    0.017160 0.037587 0.663169 0.246817
H18   H     H_    0.040276 0.165004 0.620525 0.265305
H19   H     H_    0.234624 0.180128 0.658035 0.228757
H20   H     H_    0.247498 0.191372 0.528875 0.207419

loop_
_geom_bond_atom_site_label_1
_geom_bond_atom_site_label_2
_geom_bond_distance
_ccdc_geom_bond_type
C29   C31   1.446567 A    
C33   C34   1.382003 A    
C28   N3    1.432851 S    
Cu1   Cu2   2.703897 S    
C31   C32   1.419343 A    
C5    C9    1.199671 T    
C18   C22   1.399531 A    
C14   C15   1.398219 A    
Cu2   N2    2.025994 S    
C16   C17   1.414044 A    
O7    C4    1.301012 A    
C13   C24   1.406117 A    
C7    C8    1.433415 S    
C20   C21   1.386928 A    
C21   H8    1.078814 S    
O5    C3    1.301549 A    
C38   H18   1.110928 S    
C1    C24   1.479074 S    
H9    C36   1.081766 S    
C6    C7    1.345992 D    
C11   H4    1.083835 S    
C37   C38   1.529833 S    
C25   C36   1.386327 A    
O3    Cu1   1.917849 S    
C19   C20   1.390953 A    
O2    Cu2   1.936677 S    
C29   C30   1.435268 A    
O3    C2    1.298723 A    
C38   H17   1.110496 S    
C31   C35   1.418420 A    
C35   H12   1.073779 S    
H2    C23   1.083202 S    
C11   C23   1.392799 A    
H3    C20   1.084148 S    
N4    O11   1.301704 A    
N4    O12   1.301372 A    
N3    O10   1.301606 A    
Cu1   O7    1.917608 S    
C15   C16   1.415736 A    
C30   N2    1.383369 A    
N1    C35   1.365211 A    
C25   C32   1.401287 A    
C13   H6    1.080692 S    
Cu2   O8    1.917848 S    
C28   C29   1.427240 A    
C34   H15   1.064276 S    
C6    N4    1.446049 S    
C12   C22   1.396551 A    
C26   C27   1.387719 A    
O8    C4    1.297752 A    
C37   H20   1.112523 S    
C17   C21   1.414786 A    
C3    C12   1.462850 S    
C37   H19   1.111375 S    
C26   N2    1.355237 A    
Cu1   O5    1.936679 S    
C11   C19   1.403333 A    
C32   C33   1.386725 A    
C27   H14   1.083037 S    
C15   H7    1.079174 S    
O1    Cu1   1.947162 S    
C22   H5    1.077443 S    
C14   C37   1.519885 S    
O6    C3    1.302693 A    
O4    Cu2   1.917608 S    
C12   C23   1.400000 A    
C2    C10   1.423464 S    
C17   C24   1.420518 A    
N3    O9    1.301968 A    
O2    C1    1.302879 A    
C38   H16   1.111092 S    
C18   C19   1.418836 A    
N1    C36   1.353569 A    
C16   C18   1.421717 A    
C26   H13   1.081489 S    
O4    C2    1.299750 A    
C6    C9    1.436664 S    
C8    C10   1.199639 T    
C25   H11   1.083969 S    
C7    H1    1.087461 S    
H10   C33   1.084685 S    
Cu2   O6    1.947165 S    
C27   C28   1.399182 A    
C13   C14   1.401921 A    
C4    C5    1.423920 S    
O1    C1    1.308077 A    
C30   C34   1.405554 A    
Cu1   N1    2.037861 S    
