data_mof_unit_64215.cif
_audit_creation_date              2013-03-05T15:59:22-0500
_audit_creation_method            fapswitch 2.2
_symmetry_space_group_name_H-M    P1
_symmetry_Int_Tables_number       1
_space_group_crystal_system       monoclinic
_cell_length_a                    21.637887
_cell_length_b                    21.637892
_cell_length_c                    55.721485
_cell_angle_alpha                 90.0
_cell_angle_beta                  90.0
_cell_angle_gamma                 90.000051
_cell_volume                      26088.7024338

loop_
_atom_site_label
_atom_site_type_symbol
_atom_site_description
_atom_site_fract_x
_atom_site_fract_y
_atom_site_fract_z
_atom_type_partial_charge
O1    O     O_R   0.499970 0.408410 0.020130 -0.618689
O2    O     O_R   0.591590 0.499970 0.020130 -0.618689
O3    O     O_R   0.500030 0.591590 0.020130 -0.618689
O4    O     O_R   0.408410 0.500030 0.020130 -0.618689
O5    O     O_R   0.499970 0.591590 0.979870 -0.618688
O6    O     O_R   0.591590 0.500030 0.979870 -0.618688
O7    O     O_R   0.500030 0.408410 0.979870 -0.618687
O8    O     O_R   0.408410 0.499970 0.979870 -0.618688
O9    O     O_R   0.999970 0.908410 0.520130 -0.618690
O10   O     O_R   0.091590 0.999970 0.520130 -0.618690
O11   O     O_R   0.000030 0.091590 0.520130 -0.618690
O12   O     O_R   0.908410 0.000030 0.520130 -0.618690
O13   O     O_R   0.999970 0.091590 0.479870 -0.618688
O14   O     O_R   0.091590 0.000030 0.479870 -0.618688
O15   O     O_R   0.000030 0.908410 0.479870 -0.618688
O16   O     O_R   0.908410 0.999970 0.479870 -0.618688
C1    C     C_R   0.000000 0.500000 0.123631 0.288450
C2    C     C_R   0.500000 1.000000 0.123631 0.288455
C3    C     C_R   0.000000 0.500000 0.876369 0.288450
C4    C     C_R   0.500000 1.000000 0.876369 0.288469
C5    C     C_R   0.500000 0.000000 0.623630 0.288422
C6    C     C_R   1.000000 0.500000 0.623630 0.288449
C7    C     C_R   0.500000 0.000000 0.376370 0.288442
C8    C     C_R   0.000000 0.500000 0.376369 0.288448
C9    C     C_R   0.500000 0.379808 0.000000 0.912641
C10   C     C_R   0.620192 0.500000 0.000000 0.912641
C11   C     C_R   0.500000 0.620192 0.000000 0.912640
C12   C     C_R   0.379808 0.500000 0.000000 0.912642
C13   C     C_R   0.000000 0.879808 0.500000 0.912643
C14   C     C_R   0.120192 1.000000 0.500000 0.912643
C15   C     C_R   1.000000 0.120192 0.500000 0.912642
C16   C     C_R   0.879808 1.000000 0.500000 0.912643
Zn1   Zn    Zn3+2 0.500000 0.500000 0.026880 1.021859
Zn2   Zn    Zn3+2 0.500000 0.500000 0.973120 1.021862
Zn3   Zn    Zn3+2 1.000000 1.000000 0.526880 1.021856
Zn4   Zn    Zn3+2 0.000000 1.000000 0.473120 1.021859
C17   C     C_R   0.282057 0.471458 0.981223 -0.213134
C18   C     C_R   0.528543 0.282057 0.981223 -0.213131
C19   C     C_R   0.717943 0.528542 0.981223 -0.213134
C20   C     C_R   0.471457 0.717943 0.981223 -0.213131
C21   C     C_R   0.282057 0.528542 0.018777 -0.213134
C22   C     C_R   0.528543 0.717943 0.018777 -0.213134
C23   C     C_R   0.717943 0.471458 0.018777 -0.213134
C24   C     C_R   0.471457 0.282057 0.018777 -0.213134
C25   C     C_R   0.782057 0.971458 0.481223 -0.213133
C26   C     C_R   0.028542 0.782057 0.481223 -0.213134
C27   C     C_R   0.217943 0.028542 0.481223 -0.213134
C28   C     C_R   0.971458 0.217943 0.481223 -0.213134
C29   C     C_R   0.782057 0.028542 0.518777 -0.213135
C30   C     C_R   0.028542 0.217943 0.518777 -0.213134
C31   C     C_R   0.217943 0.971458 0.518777 -0.213135
C32   C     C_R   0.971458 0.782057 0.518777 -0.213134
H1    H     H_    0.307314 0.449715 0.966697 0.201649
H2    H     H_    0.550287 0.307314 0.966697 0.201649
H3    H     H_    0.692686 0.550285 0.966697 0.201649
H4    H     H_    0.449713 0.692686 0.966697 0.201649
H5    H     H_    0.307314 0.550285 0.033303 0.201649
H6    H     H_    0.550287 0.692686 0.033302 0.201649
H7    H     H_    0.692686 0.449714 0.033303 0.201649
H8    H     H_    0.449713 0.307314 0.033302 0.201649
H9    H     H_    0.807314 0.949715 0.466697 0.201650
H10   H     H_    0.050285 0.807314 0.466697 0.201649
H11   H     H_    0.192686 0.050285 0.466697 0.201650
H12   H     H_    0.949714 0.192686 0.466697 0.201649
H13   H     H_    0.807314 0.050285 0.533303 0.201649
H14   H     H_    0.050285 0.192686 0.533303 0.201649
H15   H     H_    0.192686 0.949715 0.533303 0.201649
H16   H     H_    0.949715 0.807314 0.533303 0.201649
C33   C     C_R   0.218056 0.471461 0.980884 0.286115
C34   C     C_R   0.528540 0.218056 0.980885 0.286103
C35   C     C_R   0.781944 0.528539 0.980884 0.286115
C36   C     C_R   0.471460 0.781944 0.980885 0.286102
C37   C     C_R   0.218056 0.528539 0.019116 0.286114
C38   C     C_R   0.528540 0.781944 0.019115 0.286113
C39   C     C_R   0.781944 0.471461 0.019116 0.286114
C40   C     C_R   0.471460 0.218056 0.019115 0.286113
C41   C     C_R   0.718056 0.971461 0.480884 0.286115
C42   C     C_R   0.028539 0.718056 0.480884 0.286116
C43   C     C_R   0.281944 0.028539 0.480884 0.286115
C44   C     C_R   0.971461 0.281944 0.480884 0.286115
C45   C     C_R   0.718056 0.028539 0.519115 0.286122
C46   C     C_R   0.028539 0.281944 0.519115 0.286115
C47   C     C_R   0.281944 0.971461 0.519115 0.286123
C48   C     C_R   0.971461 0.718056 0.519115 0.286114
C49   C     C_R   0.186167 0.500000 0.000000 -0.274155
C50   C     C_R   0.500000 0.186167 1.000000 -0.274157
C51   C     C_R   0.813833 0.500000 0.000000 -0.274155
C52   C     C_R   0.500000 0.813833 1.000000 -0.274157
C53   C     C_R   0.686167 1.000000 0.500000 -0.274153
C54   C     C_R   1.000000 0.686167 0.500000 -0.274155
C55   C     C_R   0.313833 1.000000 0.500000 -0.274153
C56   C     C_R   1.000000 0.313833 0.500000 -0.274155
C57   C     C_R   0.313593 0.500000 0.000000 -0.147698
C58   C     C_R   0.500000 0.313593 1.000000 -0.147697
C59   C     C_R   0.686407 0.500000 0.000000 -0.147699
C60   C     C_R   0.500000 0.686407 1.000000 -0.147697
C61   C     C_R   0.813593 1.000000 0.500000 -0.147700
C62   C     C_R   0.000000 0.813593 0.500000 -0.147699
C63   C     C_R   0.186407 1.000000 0.500000 -0.147700
C64   C     C_R   1.000000 0.186407 0.500000 -0.147699
O17   O     O_R   0.999960 0.448330 0.035690 -0.618441
O18   O     O_R   0.551670 0.999960 0.035690 -0.618442
O19   O     O_R   0.000040 0.551670 0.035690 -0.618441
O20   O     O_R   0.448330 0.000040 0.035690 -0.618441
O21   O     O_R   0.999960 0.551670 0.964310 -0.618440
O22   O     O_R   0.551670 0.000040 0.964310 -0.618446
O23   O     O_R   0.000040 0.448330 0.964310 -0.618440
O24   O     O_R   0.448330 0.999960 0.964310 -0.618445
O25   O     O_R   0.499960 0.948330 0.535690 -0.618437
O26   O     O_R   0.051670 0.499960 0.535690 -0.618441
O27   O     O_R   0.500040 0.051670 0.535690 -0.618438
O28   O     O_R   0.948330 0.500040 0.535690 -0.618440
O29   O     O_R   0.499960 0.051670 0.464310 -0.618441
O30   O     O_R   0.051670 0.500040 0.464310 -0.618440
O31   O     O_R   0.500040 0.948330 0.464310 -0.618440
O32   O     O_R   0.948330 0.499960 0.464310 -0.618440
C65   C     C_R   1.000000 0.500000 0.047130 0.985475
C66   C     C_R   0.500000 1.000000 0.047130 0.985476
C67   C     C_R   0.000000 0.500000 0.952870 0.985477
C68   C     C_R   0.500000 1.000000 0.952870 0.985473
C69   C     C_R   0.500000 1.000000 0.547130 0.985479
C70   C     C_R   0.000000 0.500000 0.547130 0.985476
C71   C     C_R   0.500000 1.000000 0.452870 0.985479
C72   C     C_R   0.000000 0.500000 0.452870 0.985477
O33   O     O_R   0.091600 0.448330 0.000070 -0.603084
O34   O     O_R   0.551670 0.091600 0.000070 -0.603080
O35   O     O_R   0.908400 0.551670 0.000070 -0.603084
O36   O     O_R   0.448330 0.908400 0.000070 -0.603080
O37   O     O_R   0.091600 0.551670 0.999930 -0.603084
O38   O     O_R   0.551670 0.908400 0.999930 -0.603087
O39   O     O_R   0.908400 0.448330 0.999930 -0.603084
O40   O     O_R   0.448330 0.091600 0.999930 -0.603087
O41   O     O_R   0.591600 0.948330 0.500070 -0.603082
O42   O     O_R   0.051670 0.591600 0.500070 -0.603084
O43   O     O_R   0.408400 0.051670 0.500070 -0.603082
O44   O     O_R   0.948330 0.408400 0.500070 -0.603084
O45   O     O_R   0.591600 0.051670 0.499930 -0.603087
O46   O     O_R   0.051670 0.408400 0.499930 -0.603083
O47   O     O_R   0.408400 0.948330 0.499930 -0.603087
O48   O     O_R   0.948330 0.591600 0.499930 -0.603083
C73   C     C_R   0.120066 0.500000 0.000000 1.012108
C74   C     C_R   0.500000 0.120066 1.000000 1.012106
C75   C     C_R   0.879934 0.500000 0.000000 1.012109
C76   C     C_R   0.500000 0.879934 1.000000 1.012107
C77   C     C_R   0.620066 1.000000 0.500000 1.012110
C78   C     C_R   1.000000 0.620066 0.500000 1.012108
C79   C     C_R   0.379934 1.000000 0.500000 1.012110
C80   C     C_R   1.000000 0.379934 0.500000 1.012109
Zn5   Zn    Zn3+2 0.000000 0.430970 0.000000 1.076417
Zn6   Zn    Zn3+2 0.569030 0.000000 0.000000 1.076413
Zn7   Zn    Zn3+2 0.000000 0.569030 0.000000 1.076417
Zn8   Zn    Zn3+2 0.430970 0.000000 0.000000 1.076413
Zn9   Zn    Zn3+2 0.500000 0.930970 0.500000 1.076421
Zn10  Zn    Zn3+2 0.069030 0.500000 0.500000 1.076419
Zn11  Zn    Zn3+2 0.500000 0.069030 0.500000 1.076421
Zn12  Zn    Zn3+2 0.930970 0.500000 0.500000 1.076419
C81   C     C_R   0.958348 0.539025 0.237291 0.044536
C82   C     C_R   0.460985 0.958338 0.237291 0.044536
C83   C     C_R   0.041652 0.460975 0.237291 0.044536
C84   C     C_R   0.539014 0.041662 0.237291 0.044536
C85   C     C_R   0.958349 0.460974 0.762709 0.044536
C86   C     C_R   0.461016 0.041691 0.762709 0.044536
C87   C     C_R   0.041651 0.539026 0.762709 0.044536
C88   C     C_R   0.538984 0.958309 0.762709 0.044536
C89   C     C_R   0.458388 0.039068 0.737291 0.044536
C90   C     C_R   0.960973 0.458350 0.737291 0.044536
C91   C     C_R   0.541612 0.960933 0.737291 0.044537
C92   C     C_R   0.039027 0.541650 0.737291 0.044536
C93   C     C_R   0.458360 0.960962 0.262709 0.044537
C94   C     C_R   0.960973 0.541649 0.262709 0.044536
C95   C     C_R   0.541640 0.039038 0.262709 0.044536
C96   C     C_R   0.039027 0.458350 0.262709 0.044536
C97   C     C_R   0.000000 0.500000 0.224709 0.075568
C98   C     C_R   0.500000 1.000000 0.224709 0.075568
C99   C     C_R   0.000000 0.500000 0.775291 0.075567
C100  C     C_R   0.500000 0.000000 0.775290 0.075566
C101  C     C_R   0.500000 0.000000 0.724709 0.075567
C102  C     C_R   1.000000 0.500000 0.724709 0.075567
C103  C     C_R   0.500000 0.000000 0.275291 0.075567
C104  C     C_R   0.000000 0.500000 0.275291 0.075568
C105  C     C_R   0.914978 0.573783 0.223915 -0.206021
C106  C     C_R   0.426238 0.914960 0.223915 -0.206021
C107  C     C_R   0.085022 0.426217 0.223915 -0.206021
C108  C     C_R   0.573761 0.085040 0.223915 -0.206021
C109  C     C_R   0.914980 0.426215 0.776085 -0.206021
C110  C     C_R   0.426303 0.085097 0.776085 -0.206021
C111  C     C_R   0.085020 0.573784 0.776085 -0.206020
C112  C     C_R   0.573697 0.914904 0.776085 -0.206021
C113  C     C_R   0.415052 0.073868 0.723915 -0.206022
C114  C     C_R   0.926214 0.414982 0.723915 -0.206021
C115  C     C_R   0.584948 0.926132 0.723915 -0.206023
C116  C     C_R   0.073786 0.585018 0.723915 -0.206020
C117  C     C_R   0.415000 0.926191 0.276085 -0.206021
C118  C     C_R   0.926212 0.585017 0.276085 -0.206021
C119  C     C_R   0.584999 0.073808 0.276085 -0.206021
C120  C     C_R   0.073788 0.414983 0.276085 -0.206021
C121  C     C_R   0.914479 0.572333 0.199017 -0.123357
C122  C     C_R   0.427688 0.914460 0.199017 -0.123356
C123  C     C_R   0.085521 0.427667 0.199017 -0.123357
C124  C     C_R   0.572312 0.085540 0.199017 -0.123357
C125  C     C_R   0.914480 0.427665 0.800983 -0.123358
C126  C     C_R   0.427753 0.085596 0.800983 -0.123355
C127  C     C_R   0.085520 0.572335 0.800983 -0.123357
C128  C     C_R   0.572247 0.914405 0.800983 -0.123354
C129  C     C_R   0.414550 0.072418 0.699017 -0.123355
C130  C     C_R   0.927663 0.414482 0.699017 -0.123357
C131  C     C_R   0.585450 0.927582 0.699017 -0.123356
C132  C     C_R   0.072337 0.585518 0.699017 -0.123357
C133  C     C_R   0.414500 0.927641 0.300983 -0.123357
C134  C     C_R   0.927661 0.585517 0.300983 -0.123357
C135  C     C_R   0.585500 0.072359 0.300983 -0.123356
C136  C     C_R   0.072339 0.414483 0.300983 -0.123358
C137  C     C_R   0.957131 0.536273 0.186486 -0.026103
C138  C     C_R   0.463738 0.957122 0.186486 -0.026103
C139  C     C_R   0.042869 0.463727 0.186486 -0.026103
C140  C     C_R   0.536262 0.042878 0.186486 -0.026103
C141  C     C_R   0.957132 0.463726 0.813514 -0.026103
C142  C     C_R   0.463771 0.042906 0.813514 -0.026103
C143  C     C_R   0.042868 0.536274 0.813514 -0.026103
C144  C     C_R   0.536229 0.957094 0.813514 -0.026103
C145  C     C_R   0.457167 0.036315 0.686486 -0.026098
C146  C     C_R   0.963725 0.457133 0.686486 -0.026103
C147  C     C_R   0.542834 0.963685 0.686486 -0.026098
C148  C     C_R   0.036275 0.542867 0.686486 -0.026103
C149  C     C_R   0.457142 0.963714 0.313514 -0.026101
C150  C     C_R   0.963725 0.542867 0.313514 -0.026103
C151  C     C_R   0.542858 0.036285 0.313514 -0.026102
C152  C     C_R   0.036275 0.457133 0.313514 -0.026103
C153  C     C_R   0.000000 0.500000 0.199245 -0.049612
C154  C     C_R   0.500000 1.000000 0.199245 -0.049613
C155  C     C_R   0.000000 0.500000 0.800755 -0.049612
C156  C     C_R   0.500000 0.000000 0.800755 -0.049614
C157  C     C_R   0.500000 0.000000 0.699245 -0.049616
C158  C     C_R   1.000000 0.500000 0.699245 -0.049612
C159  C     C_R   0.500000 1.000000 0.300755 -0.049613
C160  C     C_R   0.000000 0.500000 0.300755 -0.049612
C161  C     C_R   0.957542 0.535159 0.161341 0.516077
C162  C     C_R   0.464851 0.957533 0.161341 0.516075
C163  C     C_R   0.042458 0.464840 0.161341 0.516077
C164  C     C_R   0.535149 0.042467 0.161341 0.516075
C165  C     C_R   0.957543 0.464840 0.838659 0.516075
C166  C     C_R   0.464884 0.042494 0.838659 0.516072
C167  C     C_R   0.042457 0.535160 0.838659 0.516077
C168  C     C_R   0.535116 0.957506 0.838659 0.516072
C169  C     C_R   0.457575 0.035200 0.661341 0.516077
C170  C     C_R   0.964839 0.457543 0.661341 0.516076
C171  C     C_R   0.542425 0.964800 0.661341 0.516077
C172  C     C_R   0.035161 0.542456 0.661341 0.516076
C173  C     C_R   0.457552 0.964828 0.338659 0.516076
C174  C     C_R   0.964838 0.542456 0.338659 0.516076
C175  C     C_R   0.542448 0.035172 0.338659 0.516076
C176  C     C_R   0.035162 0.457544 0.338659 0.516075
N1    N     N_R   0.000000 0.500000 0.149329 -0.354515
N2    N     N_R   0.500000 1.000000 0.149329 -0.354517
N3    N     N_R   0.000000 0.500000 0.850671 -0.354515
N4    N     N_R   0.500000 1.000000 0.850671 -0.354521
N5    N     N_R   0.500000 1.000000 0.649329 -0.354509
N6    N     N_R   1.000000 0.500000 0.649329 -0.354515
N7    N     N_R   0.500000 0.000000 0.350671 -0.354513
N8    N     N_R   0.000000 0.500000 0.350671 -0.354515
H17   H     H_    0.879580 0.601614 0.232144 0.148463
H18   H     H_    0.398416 0.879554 0.232144 0.148463
H19   H     H_    0.120420 0.398386 0.232144 0.148463
H20   H     H_    0.601584 0.120446 0.232144 0.148463
H21   H     H_    0.879582 0.398383 0.767856 0.148463
H22   H     H_    0.398508 0.120523 0.767855 0.148463
H23   H     H_    0.120418 0.601617 0.767856 0.148463
H24   H     H_    0.601493 0.879477 0.767855 0.148463
H25   H     H_    0.379682 0.101735 0.732144 0.148463
H26   H     H_    0.898381 0.379584 0.732144 0.148463
H27   H     H_    0.620318 0.898265 0.732144 0.148464
H28   H     H_    0.101619 0.620416 0.732144 0.148463
H29   H     H_    0.379610 0.898349 0.267856 0.148463
H30   H     H_    0.898379 0.620414 0.267856 0.148463
H31   H     H_    0.620389 0.101651 0.267856 0.148463
H32   H     H_    0.101621 0.379586 0.267856 0.148463
H33   H     H_    0.880358 0.599846 0.189615 0.195804
H34   H     H_    0.400184 0.880332 0.189615 0.195804
H35   H     H_    0.119642 0.400154 0.189615 0.195804
H36   H     H_    0.599816 0.119667 0.189615 0.195804
H37   H     H_    0.880360 0.400151 0.810385 0.195805
H38   H     H_    0.400276 0.119745 0.810385 0.195804
H39   H     H_    0.119640 0.599849 0.810385 0.195805
H40   H     H_    0.599725 0.880255 0.810385 0.195804
H41   H     H_    0.380456 0.099965 0.689615 0.195803
H42   H     H_    0.900148 0.380362 0.689615 0.195804
H43   H     H_    0.619544 0.900036 0.689615 0.195803
H44   H     H_    0.099851 0.619637 0.689615 0.195804
H45   H     H_    0.380388 0.900118 0.310385 0.195804
H46   H     H_    0.900147 0.619636 0.310385 0.195804
H47   H     H_    0.619612 0.099882 0.310385 0.195804
H48   H     H_    0.099853 0.380364 0.310385 0.195804
O49   O     O_2   0.915567 0.568556 0.148969 -0.540783
O50   O     O_2   0.431465 0.915550 0.148969 -0.540779
O51   O     O_2   0.084432 0.431444 0.148969 -0.540783
O52   O     O_2   0.568535 0.084450 0.148969 -0.540779
O53   O     O_2   0.915569 0.431442 0.851031 -0.540782
O54   O     O_2   0.431530 0.084503 0.851031 -0.540771
O55   O     O_2   0.084431 0.568558 0.851031 -0.540782
O56   O     O_2   0.568470 0.915497 0.851031 -0.540771
O57   O     O_2   0.415632 0.068636 0.648969 -0.540798
O58   O     O_2   0.931440 0.415570 0.648969 -0.540783
O59   O     O_2   0.584369 0.931364 0.648969 -0.540797
O60   O     O_2   0.068560 0.584429 0.648969 -0.540783
O61   O     O_2   0.415587 0.931419 0.351031 -0.540786
O62   O     O_2   0.931439 0.584428 0.351031 -0.540783
O63   O     O_2   0.584413 0.068581 0.351031 -0.540786
O64   O     O_2   0.068561 0.415571 0.351031 -0.540782
C177  C     C_R   0.987221 0.445431 0.111066 -0.086704
C178  C     C_R   0.554571 0.987233 0.111066 -0.086703
C179  C     C_R   0.012779 0.554569 0.111066 -0.086704
C180  C     C_R   0.445428 0.012767 0.111066 -0.086704
C181  C     C_R   0.987220 0.554568 0.888934 -0.086705
C182  C     C_R   0.554581 0.012727 0.888934 -0.086700
C183  C     C_R   0.012780 0.445432 0.888934 -0.086705
C184  C     C_R   0.445419 0.987273 0.888934 -0.086700
C185  C     C_R   0.487185 0.945440 0.611065 -0.086702
C186  C     C_R   0.054568 0.487219 0.611066 -0.086704
C187  C     C_R   0.512815 0.054560 0.611065 -0.086702
C188  C     C_R   0.945432 0.512781 0.611066 -0.086704
C189  C     C_R   0.487209 0.054566 0.388934 -0.086704
C190  C     C_R   0.054568 0.512782 0.388934 -0.086704
C191  C     C_R   0.512791 0.945434 0.388934 -0.086704
C192  C     C_R   0.945432 0.487218 0.388934 -0.086704
H49   H     H_    0.976966 0.403178 0.120689 0.157880
H50   H     H_    0.596827 0.976988 0.120689 0.157877
H51   H     H_    0.023033 0.596822 0.120689 0.157880
H52   H     H_    0.403173 0.023012 0.120689 0.157877
H53   H     H_    0.976964 0.596821 0.879311 0.157880
H54   H     H_    0.596845 0.022941 0.879310 0.157868
H55   H     H_    0.023036 0.403178 0.879311 0.157880
H56   H     H_    0.403155 0.977059 0.879310 0.157868
H57   H     H_    0.476901 0.903193 0.620689 0.157899
H58   H     H_    0.096821 0.476962 0.620689 0.157881
H59   H     H_    0.523099 0.096807 0.620689 0.157899
H60   H     H_    0.903179 0.523038 0.620689 0.157881
H61   H     H_    0.476945 0.096817 0.379311 0.157886
H62   H     H_    0.096821 0.523039 0.379311 0.157881
H63   H     H_    0.523055 0.903183 0.379311 0.157886
H64   H     H_    0.903179 0.476961 0.379311 0.157882
C193  C     C_R   0.987501 0.445310 0.086092 -0.143870
C194  C     C_R   0.554693 0.987513 0.086092 -0.143877
C195  C     C_R   0.012499 0.554690 0.086092 -0.143871
C196  C     C_R   0.445307 0.012487 0.086092 -0.143876
C197  C     C_R   0.987499 0.554689 0.913908 -0.143870
C198  C     C_R   0.554702 0.012448 0.913907 -0.143894
C199  C     C_R   0.012500 0.445310 0.913908 -0.143870
C200  C     C_R   0.445298 0.987552 0.913907 -0.143893
C201  C     C_R   0.487466 0.945318 0.586092 -0.143858
C202  C     C_R   0.054689 0.487498 0.586092 -0.143870
C203  C     C_R   0.512534 0.054682 0.586092 -0.143858
C204  C     C_R   0.945311 0.512502 0.586092 -0.143869
C205  C     C_R   0.487489 0.054687 0.413908 -0.143866
C206  C     C_R   0.054689 0.512502 0.413908 -0.143870
C207  C     C_R   0.512511 0.945313 0.413908 -0.143866
C208  C     C_R   0.945311 0.487498 0.413908 -0.143869
H65   H     H_    0.977400 0.402640 0.076721 0.183599
H66   H     H_    0.597364 0.977421 0.076721 0.183591
H67   H     H_    0.022600 0.597359 0.076721 0.183599
H68   H     H_    0.402635 0.022578 0.076721 0.183591
H69   H     H_    0.977398 0.597359 0.923279 0.183600
H70   H     H_    0.597382 0.022508 0.923278 0.183562
H71   H     H_    0.022602 0.402641 0.923279 0.183600
H72   H     H_    0.402618 0.977492 0.923278 0.183562
H73   H     H_    0.477337 0.902655 0.576720 0.183626
H74   H     H_    0.097358 0.477396 0.576721 0.183602
H75   H     H_    0.522663 0.097344 0.576720 0.183626
H76   H     H_    0.902642 0.522604 0.576721 0.183602
H77   H     H_    0.477379 0.097354 0.423279 0.183608
H78   H     H_    0.097358 0.522605 0.423279 0.183602
H79   H     H_    0.522621 0.902646 0.423279 0.183608
H80   H     H_    0.902642 0.477395 0.423279 0.183602
C209  C     C_R   1.000000 0.500000 0.073429 -0.016191
C210  C     C_R   0.500000 1.000000 0.073429 -0.016178
C211  C     C_R   0.000000 0.500000 0.926571 -0.016192
C212  C     C_R   0.500000 1.000000 0.926571 -0.016131
C213  C     C_R   0.500000 1.000000 0.573429 -0.016231
C214  C     C_R   1.000000 0.500000 0.573429 -0.016194
C215  C     C_R   0.500000 1.000000 0.426571 -0.016203
C216  C     C_R   0.000000 0.500000 0.426571 -0.016194
N9    N     N_R   0.186420 0.444080 0.960814 0.217627
O65   O     O_R   0.209454 0.395619 0.950262 -0.360631
O66   O     O_R   0.140277 0.472607 0.950771 -0.420647
N10   N     N_R   0.555922 0.186421 0.960815 0.217635
O67   O     O_R   0.604383 0.209455 0.950263 -0.360612
O68   O     O_R   0.527396 0.140276 0.950771 -0.420620
N11   N     N_R   0.813579 0.555919 0.960814 0.217627
O69   O     O_R   0.790546 0.604381 0.950262 -0.360631
O70   O     O_R   0.859723 0.527393 0.950771 -0.420647
N12   N     N_R   0.444078 0.813579 0.960815 0.217635
O71   O     O_R   0.395617 0.790545 0.950263 -0.360611
O72   O     O_R   0.472603 0.859724 0.950771 -0.420619
N13   N     N_R   0.186421 0.555920 0.039185 0.217627
O73   O     O_R   0.209454 0.604381 0.049738 -0.360629
O74   O     O_R   0.140277 0.527393 0.049229 -0.420647
N14   N     N_R   0.555921 0.813579 0.039185 0.217630
O75   O     O_R   0.604383 0.790546 0.049737 -0.360625
O76   O     O_R   0.527395 0.859723 0.049229 -0.420639
N15   N     N_R   0.813579 0.444080 0.039185 0.217628
O77   O     O_R   0.790546 0.395619 0.049738 -0.360629
O78   O     O_R   0.859723 0.472607 0.049229 -0.420647
N16   N     N_R   0.444079 0.186420 0.039185 0.217630
O79   O     O_R   0.395617 0.209454 0.049737 -0.360626
O80   O     O_R   0.472605 0.140277 0.049229 -0.420640
N17   N     N_R   0.686420 0.944081 0.460814 0.217627
O81   O     O_R   0.709453 0.895620 0.450262 -0.360632
O82   O     O_R   0.640277 0.972608 0.450771 -0.420655
N18   N     N_R   0.055919 0.686421 0.460814 0.217627
O83   O     O_R   0.104381 0.709454 0.450262 -0.360629
O84   O     O_R   0.027393 0.640277 0.450771 -0.420648
N19   N     N_R   0.313579 0.055919 0.460814 0.217627
O85   O     O_R   0.290546 0.104380 0.450262 -0.360632
O86   O     O_R   0.359723 0.027392 0.450771 -0.420654
N20   N     N_R   0.944080 0.313579 0.460814 0.217627
O87   O     O_R   0.895619 0.290546 0.450262 -0.360629
O88   O     O_R   0.972607 0.359723 0.450771 -0.420648
N21   N     N_R   0.686421 0.055918 0.539186 0.217623
O89   O     O_R   0.709453 0.104380 0.549738 -0.360641
O90   O     O_R   0.640277 0.027391 0.549230 -0.420667
N22   N     N_R   0.055919 0.313579 0.539186 0.217628
O91   O     O_R   0.104381 0.290546 0.549738 -0.360628
O92   O     O_R   0.027393 0.359723 0.549229 -0.420649
N23   N     N_R   0.313579 0.944082 0.539186 0.217623
O93   O     O_R   0.290546 0.895620 0.549738 -0.360641
O94   O     O_R   0.359722 0.972609 0.549230 -0.420667
N24   N     N_R   0.944081 0.686420 0.539186 0.217629
O95   O     O_R   0.895619 0.709454 0.549738 -0.360628
O96   O     O_R   0.972607 0.640277 0.549229 -0.420649

loop_
_geom_bond_atom_site_label_1
_geom_bond_atom_site_label_2
_geom_bond_distance
_ccdc_geom_bond_type
C17   C33   1.384986 A    
N19   O86   1.300431 A    
C188  H60   1.082905 S    
O24   C68   1.286982 A    
C44   N20   1.438828 S    
C208  H80   1.083004 S    
C22   H6    1.084028 S    
O39   C75   1.276479 A    
C187  H59   1.082906 S    
C204  H76   1.083005 S    
C41   C53   1.411377 A    
C37   N13   1.438829 S    
C26   H10   1.084027 S    
C207  C215  1.404075 A    
N22   O91   1.301414 A    
N14   O76   1.300431 A    
C185  C201  1.391565 A    
C6    C186  1.400289 A    
C4    C182  1.400297 A    
C100  C156  1.418920 A    
C1    C177  1.400289 A    
C167  N3    1.367760 A    
C110  C126  1.387739 A    
C150  C174  1.401352 A    
C32   C48   1.384986 A    
C147  C157  1.407799 A    
C36   C52   1.411379 A    
C82   C98   1.420152 A    
C178  C194  1.391565 A    
O32   C72   1.286979 A    
C136  H48   1.083498 S    
C191  C207  1.391571 A    
O46   Zn10  2.017317 S    
C103  C159  1.418920 A    
C26   C62   1.393475 A    
O29   C71   1.286975 A    
O31   Zn9   2.023870 S    
N20   O88   1.300432 A    
O19   C65   1.286977 A    
C84   C98   1.420153 A    
O29   Zn11  2.023870 S    
C171  N5    1.367768 A    
O13   C15   1.281083 A    
C23   C39   1.384986 A    
O21   Zn7   2.023870 S    
C118  H30   1.076849 S    
O31   C71   1.286976 A    
C83   C96   1.418582 A    
C8    C192  1.400288 A    
C35   N11   1.438828 S    
C192  H64   1.082904 S    
C28   C64   1.393475 A    
C95   C119  1.414858 A    
C93   C117  1.414857 A    
C8    C190  1.400286 A    
C202  H74   1.083003 S    
C42   C54   1.411381 A    
C44   C56   1.411381 A    
C86   C89   1.418584 A    
O10   C14   1.281078 A    
C52   C76   1.430273 S    
C42   N18   1.438828 S    
C194  C210  1.404081 A    
O35   C75   1.276480 A    
C15   C64   1.432766 S    
C182  C198  1.391565 A    
O33   Zn5   2.017314 S    
O48   Zn12  2.017315 S    
C3    N3    1.431959 S    
C112  H24   1.076858 S    
N9    O65   1.301417 A    
O8    C12   1.281083 A    
O39   Zn5   2.017317 S    
O41   C77   1.276480 A    
C205  H77   1.083003 S    
N11   O69   1.301417 A    
C122  C138  1.395771 A    
C31   C47   1.384986 A    
C137  C153  1.407798 A    
C176  N8    1.367760 A    
C151  C175  1.401352 A    
C113  H25   1.076856 S    
N15   O78   1.300432 A    
C1    C179  1.400289 A    
C146  C158  1.407799 A    
C171  O59   1.349939 S    
C164  N2    1.367763 A    
C172  O60   1.349937 S    
C88   C112  1.414860 A    
N10   O68   1.300432 A    
C173  O61   1.349936 S    
C70   C214  1.465430 S    
O40   C74   1.276480 A    
C91   C115  1.414859 A    
N13   O73   1.301417 A    
C8    N8    1.431959 S    
C5    C185  1.400297 A    
C92   C116  1.414855 A    
C2    C180  1.400290 A    
C147  C171  1.401352 A    
O20   Zn8   2.023864 S    
O11   Zn3   2.017187 S    
C189  C205  1.391571 A    
N17   O81   1.301414 A    
C131  H43   1.083499 S    
C162  O50   1.349938 S    
C5    N5    1.431964 S    
C7    C189  1.400286 A    
C32   C62   1.393470 A    
C108  H20   1.076851 S    
O32   Zn12  2.023870 S    
C180  C196  1.391565 A    
C29   C61   1.393472 A    
C120  C136  1.387739 A    
C104  C160  1.418920 A    
C175  O63   1.349938 S    
C168  N4    1.367768 A    
O47   Zn9   2.017317 S    
C134  H46   1.083498 S    
O27   Zn11  2.023864 S    
O30   Zn10  2.023870 S    
C106  H18   1.076852 S    
C131  C147  1.395771 A    
O22   Zn6   2.023870 S    
C65   C209  1.465430 S    
C89   C101  1.420152 A    
C36   N12   1.438830 S    
C87   C99   1.420149 A    
C55   C79   1.430273 S    
C109  H21   1.076851 S    
C2    N2    1.431959 S    
C53   C77   1.430273 S    
C123  C139  1.395767 A    
C138  C162  1.401346 A    
C38   N14   1.438831 S    
O14   Zn4   2.017186 S    
C206  H78   1.083004 S    
C190  H62   1.082904 S    
C181  H53   1.082905 S    
N15   O77   1.301417 A    
C150  C160  1.407797 A    
O45   Zn11  2.017315 S    
C34   N10   1.438830 S    
C24   C40   1.384984 A    
C148  C158  1.407797 A    
O35   Zn7   2.017317 S    
O5    C11   1.281083 A    
C117  C133  1.387739 A    
O36   Zn8   2.017318 S    
O33   C73   1.276480 A    
C180  H52   1.082905 S    
O38   Zn6   2.017317 S    
C71   C215  1.465430 S    
O10   Zn3   2.017186 S    
C111  H23   1.076852 S    
O38   C76   1.276480 A    
C43   C55   1.411377 A    
C23   H7    1.084031 S    
C121  H33   1.083498 S    
C134  C150  1.395768 A    
C95   C103  1.420149 A    
C203  C213  1.404071 A    
C173  N7    1.367762 A    
C48   C54   1.411376 A    
C114  H26   1.076848 S    
N21   O90   1.300433 A    
C114  C130  1.387739 A    
O3    C11   1.281079 A    
C19   H3    1.084026 S    
C5    C187  1.400295 A    
C2    C178  1.400290 A    
C6    C188  1.400287 A    
C140  C164  1.401346 A    
C199  H71   1.083005 S    
C24   C58   1.393474 A    
C49   C73   1.430273 S    
C102  C158  1.418920 A    
C115  C131  1.387745 A    
C124  H36   1.083503 S    
C112  C128  1.387739 A    
C118  C134  1.387739 A    
C82   C106  1.414858 A    
C89   C113  1.414859 A    
C178  H50   1.082905 S    
C162  N2    1.367763 A    
C142  C156  1.407803 A    
C17   C57   1.393471 A    
O8    Zn2   2.017189 S    
O12   Zn3   2.017189 S    
C98   C154  1.418920 A    
C19   C59   1.393475 A    
O44   C80   1.276479 A    
C161  O49   1.349934 S    
C90   C102  1.420150 A    
C39   C51   1.411377 A    
O43   C79   1.276480 A    
C119  H31   1.076851 S    
C195  H67   1.083008 S    
C183  H55   1.082905 S    
O15   Zn4   2.017189 S    
C193  H65   1.083008 S    
C168  O56   1.349943 S    
N9    O66   1.300431 A    
N16   O79   1.301415 A    
C169  O57   1.349937 S    
O4    Zn1   2.017189 S    
C19   C35   1.384986 A    
C20   C36   1.384986 A    
C145  C157  1.407798 A    
C163  N1    1.367760 A    
C143  C155  1.407798 A    
N11   O70   1.300433 A    
O16   C16   1.281083 A    
C172  N6    1.367760 A    
C139  C163  1.401352 A    
C38   C52   1.411380 A    
C126  C142  1.395773 A    
N22   O92   1.300430 A    
C87   C92   1.418587 A    
C40   N16   1.438831 S    
C203  H75   1.083008 S    
O16   Zn4   2.017189 S    
O34   Zn6   2.017316 S    
C96   C104  1.420149 A    
O6    C10   1.281083 A    
C130  C146  1.395766 A    
C47   C55   1.411377 A    
C163  O51   1.349934 S    
C124  C140  1.395772 A    
C29   C45   1.384986 A    
C142  C166  1.401352 A    
C21   C37   1.384986 A    
O23   Zn5   2.023870 S    
C127  H39   1.083498 S    
C167  O55   1.349934 S    
O28   Zn12  2.023864 S    
C67   C211  1.465430 S    
C25   C41   1.384986 A    
C93   C103  1.420150 A    
C179  H51   1.082905 S    
C34   C50   1.411380 A    
C18   C34   1.384986 A    
C56   C80   1.430273 S    
C177  H49   1.082905 S    
C31   H15   1.084031 S    
C33   C49   1.411381 A    
N23   O94   1.300433 A    
C6    N6    1.431959 S    
C206  C216  1.404073 A    
C39   N15   1.438829 S    
C13   C62   1.432766 S    
C128  C144  1.395775 A    
C22   C60   1.393474 A    
C161  N1    1.367763 A    
C201  C213  1.404073 A    
O37   Zn7   2.017315 S    
C27   H11   1.084027 S    
C132  H44   1.083499 S    
O37   C73   1.276479 A    
N24   O95   1.301413 A    
O3    Zn1   2.017187 S    
C111  C127  1.387739 A    
C149  C173  1.401352 A    
C46   C56   1.411376 A    
C109  C125  1.387739 A    
C135  H47   1.083500 S    
C85   C109  1.414855 A    
C175  N7    1.367760 A    
O24   Zn8   2.023870 S    
C148  C172  1.401352 A    
C21   C57   1.393468 A    
C113  C129  1.387740 A    
C20   H4    1.084033 S    
C27   C63   1.393472 A    
C23   C59   1.393468 A    
C4    N4    1.431953 S    
C165  N3    1.367762 A    
O25   Zn9   2.023864 S    
C120  H32   1.076850 S    
O19   Zn7   2.023864 S    
C45   C53   1.411377 A    
C110  H22   1.076858 S    
C105  C121  1.387739 A    
C9    C58   1.432766 S    
C11   C60   1.432766 S    
C81   C105  1.414859 A    
C20   C60   1.393469 A    
O42   C78   1.276479 A    
O23   C67   1.286979 A    
C196  H68   1.083008 S    
O15   C13   1.281083 A    
O20   C66   1.286979 A    
C22   C38   1.384984 A    
N14   O75   1.301415 A    
C188  C204  1.391571 A    
O48   C78   1.276480 A    
C26   C42   1.384986 A    
C165  O53   1.349937 S    
O34   C74   1.276479 A    
O6    Zn2   2.017186 S    
C129  H41   1.083503 S    
C12   C57   1.432766 S    
C208  C216  1.404075 A    
C198  C212  1.404091 A    
C81   C94   1.418582 A    
N13   O74   1.300433 A    
O45   C77   1.276479 A    
C122  H34   1.083501 S    
C1    N1    1.431959 S    
C33   N9    1.438828 S    
C183  C199  1.391571 A    
C193  C209  1.404079 A    
C29   H13   1.084031 S    
O18   Zn6   2.023864 S    
C35   C51   1.411381 A    
C202  C214  1.404076 A    
O2    Zn1   2.017186 S    
C91   C101  1.420153 A    
C48   N24   1.438833 S    
N20   O87   1.301415 A    
O7    Zn2   2.017189 S    
C199  C211  1.404075 A    
C132  C148  1.395768 A    
C196  C210  1.404079 A    
C138  C154  1.407800 A    
C40   C50   1.411380 A    
C121  C137  1.395768 A    
C30   C46   1.384986 A    
C94   C118  1.414856 A    
C174  O62   1.349937 S    
C169  N5    1.367768 A    
C68   C212  1.465442 S    
C133  H45   1.083499 S    
C186  H58   1.082905 S    
C88   C91   1.418578 A    
N12   O72   1.300432 A    
N12   O71   1.301417 A    
C204  C214  1.404074 A    
C69   C213  1.465425 S    
O7    C9    1.281083 A    
O17   C65   1.286979 A    
C190  C206  1.391571 A    
C21   H5    1.084031 S    
C133  C149  1.395767 A    
O26   C70   1.286977 A    
C146  C170  1.401352 A    
O42   Zn10  2.017316 S    
C24   H8    1.084028 S    
O44   Zn12  2.017318 S    
C25   H9    1.084027 S    
N24   O96   1.300431 A    
C84   C95   1.418582 A    
C184  H56   1.082914 S    
C88   C100  1.420153 A    
C179  C195  1.391565 A    
C141  C165  1.401352 A    
C30   C64   1.393470 A    
C125  C141  1.395766 A    
C136  C152  1.395767 A    
C105  H17   1.076850 S    
N18   O83   1.301415 A    
C170  O58   1.349937 S    
C197  H69   1.083005 S    
N19   O85   1.301414 A    
O9    Zn3   2.017189 S    
O21   C67   1.286977 A    
C177  C193  1.391565 A    
O25   C69   1.286976 A    
C116  H28   1.076851 S    
C3    C183  1.400290 A    
C81   C97   1.420151 A    
C152  C176  1.401352 A    
C66   C210  1.465436 S    
C191  H63   1.082906 S    
O27   C69   1.286975 A    
C166  N4    1.367769 A    
C106  C122  1.387739 A    
C27   C43   1.384986 A    
N10   O67   1.301414 A    
N21   O89   1.301415 A    
O1    Zn1   2.017189 S    
C16   C61   1.432766 S    
C144  C168  1.401347 A    
O47   C79   1.276479 A    
C181  C197  1.391571 A    
O41   Zn9   2.017314 S    
C195  C209  1.404077 A    
C137  C161  1.401352 A    
N17   O82   1.300430 A    
C207  H79   1.083003 S    
C85   C99   1.420149 A    
C107  H19   1.076850 S    
C86   C100  1.420152 A    
C117  H29   1.076851 S    
C164  O52   1.349939 S    
C187  C203  1.391565 A    
O43   Zn11  2.017317 S    
C123  H35   1.083499 S    
C87   C111  1.414854 A    
O17   Zn5   2.023864 S    
C28   H12   1.084027 S    
C200  H72   1.083015 S    
C197  C211  1.404074 A    
C185  H57   1.082906 S    
C18   H2    1.084033 S    
C140  C154  1.407800 A    
O26   Zn10  2.023864 S    
C85   C90   1.418587 A    
O18   C66   1.286977 A    
O9    C13   1.281079 A    
O30   C72   1.286977 A    
O11   C15   1.281079 A    
C135  C151  1.395768 A    
O12   C16   1.281078 A    
O1    C9    1.281079 A    
C116  C132  1.387739 A    
C46   N22   1.438833 S    
O14   C14   1.281083 A    
C126  H38   1.083504 S    
C174  N8    1.367761 A    
O4    C12   1.281078 A    
N16   O80   1.300432 A    
C184  C200  1.391565 A    
C31   C63   1.393472 A    
C176  O64   1.349939 S    
C99   C155  1.418920 A    
C144  C156  1.407806 A    
C43   N19   1.438833 S    
C149  C159  1.407801 A    
C50   C74   1.430273 S    
C4    C184  1.400297 A    
C198  H70   1.083013 S    
O13   Zn4   2.017187 S    
O2    C10   1.281078 A    
O46   C80   1.276480 A    
N23   O93   1.301415 A    
C86   C110  1.414860 A    
C101  C157  1.418920 A    
C108  C124  1.387739 A    
C14   C63   1.432766 S    
C128  H40   1.083505 S    
C107  C123  1.387739 A    
C94   C104  1.420147 A    
C90   C114  1.414855 A    
C192  C208  1.391571 A    
O28   C70   1.286979 A    
C170  N6    1.367762 A    
O36   C76   1.276479 A    
C119  C135  1.387739 A    
C189  H61   1.082906 S    
C125  H37   1.083498 S    
O5    Zn2   2.017187 S    
C18   C58   1.393469 A    
C72   C216  1.465430 S    
C3    C181  1.400288 A    
C30   H14   1.084026 S    
C97   C153  1.418920 A    
C186  C202  1.391571 A    
C194  H66   1.083007 S    
C45   N21   1.438830 S    
C182  H54   1.082914 S    
C37   C49   1.411377 A    
C7    C191  1.400288 A    
C10   C59   1.432766 S    
C166  O54   1.349943 S    
C115  H27   1.076854 S    
O22   C68   1.286980 A    
C139  C153  1.407798 A    
C130  H42   1.083499 S    
N18   O84   1.300432 A    
C32   H16   1.084026 S    
C82   C93   1.418582 A    
C151  C159  1.407798 A    
C127  C143  1.395768 A    
C83   C107  1.414859 A    
C28   C44   1.384986 A    
C200  C212  1.404091 A    
C17   H1    1.084030 S    
C54   C78   1.430273 S    
C25   C61   1.393472 A    
C141  C155  1.407800 A    
C145  C169  1.401352 A    
O40   Zn8   2.017315 S    
C129  C145  1.395772 A    
C143  C167  1.401352 A    
C152  C160  1.407798 A    
C96   C120  1.414854 A    
C7    N7    1.431964 S    
C205  C215  1.404073 A    
C83   C97   1.420151 A    
C41   N17   1.438833 S    
C92   C102  1.420148 A    
C51   C75   1.430273 S    
C47   N23   1.438830 S    
C84   C108  1.414856 A    
C201  H73   1.083008 S    
