data_mof_unit_21090.cif
_audit_creation_date              2012-12-11T15:22:41-0500
_audit_creation_method            fapswitch 2.2
_symmetry_space_group_name_H-M    P1
_symmetry_Int_Tables_number       1
_space_group_crystal_system       triclinic
_cell_length_a                    22.822578
_cell_length_b                    7.23045
_cell_length_c                    20.795947
_cell_angle_alpha                 89.99841
_cell_angle_beta                  93.295021
_cell_angle_gamma                 90.0
_cell_volume                      3426.02214521

loop_
_atom_site_label
_atom_site_type_symbol
_atom_type_description
_atom_site_fract_x
_atom_site_fract_y
_atom_site_fract_z
_atom_type_partial_charge
O1    O     O_R   0.438030 0.494310 0.439340 -0.537808
O2    O     O_R   0.561970 0.994310 0.560660 -0.537809
O3    O     O_R   0.556900 0.822900 0.435960 -0.535208
O4    O     O_R   0.443100 0.322900 0.564040 -0.535207
C1    C     C_R   0.575841 0.655538 0.421104 0.720082
C2    C     C_R   0.424159 0.155537 0.578897 0.720082
O5    O     O_R   0.438170 0.823950 0.431660 -0.541122
O6    O     O_R   0.561830 0.323950 0.568340 -0.541122
O7    O     O_R   0.442390 0.995390 0.556340 -0.533231
O8    O     O_R   0.557610 0.495390 0.443660 -0.533232
C3    C     C_R   0.418430 0.655308 0.415610 0.697229
C4    C     C_R   0.581571 0.155307 0.584390 0.697228
O9    O     O_3   0.501520 0.661170 0.540910 -0.376019
O10   O     O_3   0.498480 0.161170 0.459090 -0.376019
V1    V     V_3+5 0.499720 0.935580 0.492410 1.399917
V2    V     V_3+5 0.500280 0.435580 0.507590 1.399914
C5    C     C_R   0.829811 0.935044 0.856321 -0.221300
C6    C     C_R   0.170190 0.435054 0.143678 -0.221307
C7    C     C_R   0.869221 0.083855 0.865645 -0.078058
C8    C     C_R   0.130778 0.583850 0.134357 -0.078065
C9    C     C_R   0.860676 0.244448 0.827851 -0.219796
C10   C     C_R   0.139322 0.744431 0.172152 -0.219799
C11   C     C_R   0.813749 0.256816 0.781276 0.088784
C12   C     C_R   0.186246 0.756799 0.218730 0.088775
C13   C     C_R   0.774027 0.108066 0.772947 0.054939
C14   C     C_R   0.225973 0.608065 0.227054 0.054934
C15   C     C_R   0.781995 0.946921 0.810774 0.089564
C16   C     C_R   0.218009 0.446934 0.189221 0.089573
C17   C     C_R   0.805773 0.415515 0.742874 -0.195394
C18   C     C_R   0.194213 0.915479 0.257142 -0.195378
C19   C     C_R   0.758502 0.427748 0.697089 -0.189321
C20   C     C_R   0.241484 0.927714 0.302927 -0.189299
C21   C     C_R   0.718205 0.281793 0.688971 0.089769
C22   C     C_R   0.281790 0.781779 0.311034 0.089778
C23   C     C_R   0.726187 0.120628 0.726787 0.055020
C24   C     C_R   0.273812 0.620629 0.273213 0.055016
C25   C     C_R   0.686461 0.971888 0.718470 0.088651
C26   C     C_R   0.313543 0.471905 0.281524 0.088642
C27   C     C_R   0.694457 0.813141 0.756841 -0.195475
C28   C     C_R   0.305556 0.313177 0.243143 -0.195459
C29   C     C_R   0.741723 0.800915 0.802628 -0.188926
C30   C     C_R   0.258290 0.300949 0.197356 -0.188903
C31   C     C_R   0.670336 0.293756 0.643488 -0.222057
C32   C     C_R   0.329663 0.793747 0.356513 -0.222064
C33   C     C_R   0.630891 0.145006 0.634221 -0.078102
C34   C     C_R   0.369110 0.645010 0.365778 -0.078109
C35   C     C_R   0.639490 0.984335 0.671959 -0.219609
C36   C     C_R   0.360512 0.484351 0.328038 -0.219612
H1    H     H_    0.835643 0.811261 0.885410 0.125938
H2    H     H_    0.164357 0.311280 0.114591 0.125944
H3    H     H_    0.890895 0.359548 0.834259 0.130681
H4    H     H_    0.109105 0.859524 0.165742 0.130688
H5    H     H_    0.835972 0.530817 0.748456 0.133063
H6    H     H_    0.164007 0.030762 0.251569 0.133056
H7    H     H_    0.753335 0.551956 0.668165 0.135111
H8    H     H_    0.246643 0.051903 0.331861 0.135093
H9    H     H_    0.664478 0.417566 0.614417 0.125574
H10   H     H_    0.335522 0.917548 0.385581 0.125580
H11   H     H_    0.609264 0.869246 0.665572 0.130710
H12   H     H_    0.390735 0.369268 0.334427 0.130717
H13   H     H_    0.664264 0.697826 0.751253 0.133118
H14   H     H_    0.335756 0.197882 0.248722 0.133111
H15   H     H_    0.746892 0.676699 0.831547 0.135323
H16   H     H_    0.253129 0.176753 0.168427 0.135305
C37   C     C_3   0.241202 0.282199 0.799725 -0.370423
C38   C     C_3   0.758801 0.782193 0.200277 -0.370387
C39   C     C_3   0.250070 0.938282 0.799331 -0.321178
C40   C     C_3   0.749931 0.438271 0.200672 -0.321203
C41   C     C_3   0.298400 0.948604 0.749572 -0.331316
C42   C     C_3   0.701599 0.448608 0.250429 -0.331299
H17   H     H_    0.334557 0.304458 0.780889 0.147132
H18   H     H_    0.665446 0.804457 0.219109 0.147133
H19   H     H_    0.260040 0.289430 0.850238 0.150749
H20   H     H_    0.739965 0.789432 0.149763 0.150750
H21   H     H_    0.227249 0.802842 0.796473 0.140222
H22   H     H_    0.772753 0.302834 0.203542 0.140246
H23   H     H_    0.271251 0.946436 0.848818 0.139736
H24   H     H_    0.728752 0.446409 0.151183 0.139739
H25   H     H_    0.342376 0.948107 0.775631 0.141622
H26   H     H_    0.657624 0.448123 0.224368 0.141621
H27   H     H_    0.296100 0.823525 0.718402 0.131691
H28   H     H_    0.703893 0.323530 0.281600 0.131686
C43   C     C_1   0.378328 0.146739 0.624436 -0.183306
C44   C     C_1   0.621673 0.646742 0.375565 -0.183305
C45   C     C_3   0.205761 0.099544 0.789089 0.266132
C46   C     C_3   0.794238 0.599532 0.210912 0.266105
C47   C     C_3   0.291685 0.295690 0.752732 -0.339050
C48   C     C_3   0.708316 0.795690 0.247268 -0.339058
C49   C     C_3   0.291367 0.125470 0.707379 0.265409
C50   C     C_3   0.708634 0.625474 0.292622 0.265407
C51   C     C_3   0.230655 0.117561 0.669844 -0.324364
C52   C     C_3   0.769346 0.617567 0.330156 -0.324333
C53   C     C_3   0.179899 0.099707 0.717330 -0.018903
C54   C     C_3   0.820102 0.599672 0.282669 -0.018896
C55   C     C_1   0.339476 0.138121 0.661971 -0.092843
C56   C     C_1   0.660526 0.638127 0.338030 -0.092848
C57   C     C_1   0.159091 0.090145 0.836487 -0.109853
C58   C     C_1   0.840908 0.590136 0.163512 -0.109886
C59   C     C_1   0.121022 0.082934 0.874991 -0.184285
C60   C     C_1   0.878977 0.582931 0.125008 -0.184278
H29   H     H_    0.154236 0.230268 0.712431 0.104404
H30   H     H_    0.845777 0.730208 0.287569 0.104407
H31   H     H_    0.224031 0.246116 0.640847 0.120540
H32   H     H_    0.775973 0.746139 0.359143 0.120533
H33   H     H_    0.211556 0.403623 0.792447 0.142155
H34   H     H_    0.788448 0.903609 0.207558 0.142159
H35   H     H_    0.286599 0.424977 0.723882 0.136969
H36   H     H_    0.713401 0.924979 0.276117 0.136968
H37   H     H_    0.231038 0.003401 0.634501 0.136886
H38   H     H_    0.768959 0.503435 0.365511 0.136872
O11   O     O_R   0.942420 0.735670 0.056390 -0.532441
O12   O     O_R   0.057580 0.235670 0.943610 -0.532440
O13   O     O_R   0.061840 0.404850 0.068350 -0.541157
O14   O     O_R   0.938160 0.904850 0.931650 -0.541156
C61   C     C_R   0.081537 0.573601 0.084430 0.696773
C62   C     C_R   0.918462 0.073603 0.915570 0.696771
O15   O     O_R   0.943100 0.406010 0.064050 -0.535199
O16   O     O_R   0.056900 0.906010 0.935950 -0.535196
O17   O     O_R   0.938020 0.234710 0.939330 -0.537708
O18   O     O_R   0.061980 0.734710 0.060670 -0.537707
C63   C     C_R   0.924297 0.574415 0.078884 0.718413
C64   C     C_R   0.075702 0.074415 0.921116 0.718413
O19   O     O_3   0.998500 0.567790 0.959120 -0.375829
O20   O     O_3   0.001500 0.067790 0.040880 -0.375829
V3    V     V_3+5 0.000280 0.293330 0.007580 1.400351
V4    V     V_3+5 0.999720 0.793330 0.992420 1.400351
C65   C     C_3   0.133641 0.945541 0.699469 -0.348034
C66   C     C_3   0.156439 0.762688 0.671976 -0.291203
C67   C     C_3   0.110327 0.610281 0.674044 -0.801058
H39   H     H_    0.103400 0.571210 0.724716 0.227370
H40   H     H_    0.068067 0.657156 0.650298 0.234476
H41   H     H_    0.125433 0.486876 0.647936 0.210663
H42   H     H_    0.166112 0.782266 0.620691 0.184904
H43   H     H_    0.196929 0.714715 0.698549 0.192825
H44   H     H_    0.107841 0.914717 0.741810 0.187935
H45   H     H_    0.101497 0.003332 0.662516 0.158745
C68   C     C_3   0.866345 0.445447 0.300521 -0.348058
C69   C     C_3   0.843535 0.262669 0.328058 -0.291238
C70   C     C_3   0.889627 0.110192 0.326003 -0.801071
H46   H     H_    0.896547 0.071066 0.275334 0.227349
H47   H     H_    0.931894 0.157026 0.349742 0.234477
H48   H     H_    0.874504 0.986833 0.352124 0.210678
H49   H     H_    0.833882 0.282345 0.379344 0.184924
H50   H     H_    0.803034 0.214712 0.301507 0.192837
H51   H     H_    0.892113 0.414510 0.258166 0.187946
H52   H     H_    0.898520 0.503229 0.337440 0.158764

loop_
_geom_bond_atom_site_label_1
_geom_bond_atom_site_label_2
_ccdc_geom_bond_type
C18   C20   A    
O4    V2    S    
O11   C63   A    
C40   C46   S    
C48   C50   S    
O1    C3    A    
O2    C4    A    
C66   C67   S    
C2    O7    A    
C28   H14   S    
C27   C29   A    
O5    C3    A    
C18   H6    S    
C11   C17   A    
C68   H51   S    
C23   C25   A    
C65   H44   S    
C69   H49   S    
C38   C48   S    
C48   H36   S    
C70   H48   S    
O18   V4    S    
O13   V3    S    
C38   H20   S    
C37   H19   S    
C67   H40   S    
C60   C63   S    
O16   C64   A    
O15   C63   A    
C46   C54   S    
C57   C59   T    
C45   C53   S    
C32   H10   S    
C39   H23   S    
C19   C21   A    
C37   C47   S    
C49   C51   S    
C26   C36   A    
C45   C57   S    
C67   H41   S    
C28   C30   A    
O6    V2    S    
C42   C50   S    
C38   H34   S    
C41   C49   S    
C37   H33   S    
H18   C48   S    
C32   C34   A    
C36   H12   S    
C33   C35   A    
C40   H24   S    
C27   H13   S    
C34   C36   A    
C39   C45   S    
C42   H26   S    
C5    C15   A    
C68   H52   S    
C6    C16   A    
C65   H45   S    
O4    C2    A    
C5    H1    S    
C1    C44   S    
C52   H32   S    
C5    C7    A    
O19   V4    S    
O5    V1    S    
C39   C41   S    
C20   C22   A    
C49   C55   S    
C53   C65   S    
O12   C64   A    
C66   H43   S    
C51   C53   S    
C15   C29   A    
C50   C52   S    
O6    C4    A    
C43   C55   T    
O11   V4    S    
C52   C54   S    
C22   C32   A    
O1    V2    S    
C37   C45   S    
O2    V1    S    
C31   C33   A    
O12   V3    S    
C13   C23   A    
C59   C64   S    
H17   C47   S    
O17   V3    S    
C14   C24   A    
C8    C10   A    
C58   C60   T    
C47   C49   S    
C13   C15   A    
C10   C12   A    
C41   H25   S    
C25   C35   A    
C29   H15   S    
C53   H29   S    
C65   C66   S    
C30   H16   S    
C9    H3    S    
O3    V1    S    
C6    H2    S    
C10   H4    S    
C67   H39   S    
C42   H28   S    
C54   C68   S    
C2    C43   S    
C7    C9    A    
C12   C14   A    
C51   H31   S    
C4    C33   S    
O3    C1    A    
C47   H35   S    
C38   C46   S    
C8    C61   S    
O14   C62   A    
C70   H46   S    
C50   C56   S    
C40   H22   S    
O16   V4    S    
C68   C69   S    
C14   C16   A    
C62   O17   A    
C51   H37   S    
C9    C11   A    
O7    V1    S    
C1    O8    A    
C17   C19   A    
O8    V2    S    
C66   H42   S    
C24   C26   A    
C26   C28   A    
C70   H47   S    
C52   H38   S    
C17   H5    S    
C7    C62   S    
O14   V4    S    
C16   C30   A    
C21   C23   A    
C22   C24   A    
C6    C8    A    
C11   C13   A    
C46   C58   S    
C12   C18   A    
C41   H27   S    
C69   C70   S    
C31   H9    S    
C35   H11   S    
C39   H21   S    
C54   H30   S    
C25   C27   A    
C61   O18   A    
O9    V2    S    
C40   C42   S    
O10   V1    S    
C3    C34   S    
C69   H50   S    
C44   C56   T    
C19   H7    S    
C21   C31   A    
O15   V3    S    
C20   H8    S    
O20   V3    S    
O13   C61   A    
