data_mof_unit_58962.cif
_audit_creation_date              2012-12-10T17:57:23-0500
_audit_creation_method            fapswitch 2.2
_symmetry_space_group_name_H-M    P1
_symmetry_Int_Tables_number       1
_space_group_crystal_system       triclinic
_cell_length_a                    9.512949
_cell_length_b                    10.811965
_cell_length_c                    13.450501
_cell_angle_alpha                 90.282794
_cell_angle_beta                  72.47387
_cell_angle_gamma                 90.346328
_cell_volume                      1319.18289709

loop_
_atom_site_label
_atom_site_type_symbol
_atom_type_description
_atom_site_fract_x
_atom_site_fract_y
_atom_site_fract_z
_atom_type_partial_charge
C1    C     C_R   0.498949 0.737943 0.504089 0.786976
C2    C     C_R   0.433431 0.481634 0.979549 0.083864
C3    C     C_R   0.470617 0.453119 0.871686 0.084477
C4    C     C_R   0.542099 0.466038 0.031608 0.074928
C5    C     C_R   0.679806 0.411578 0.978233 0.167886
C6    C     C_R   0.706527 0.370091 0.876142 -0.253794
C7    C     C_R   0.602759 0.388615 0.824168 -0.212217
C8    C     C_R   0.518737 0.504104 0.135041 -0.255057
C9    C     C_R   0.759734 0.430769 0.132615 -0.204788
C10   C     C_R   0.373300 0.488511 0.814910 -0.104525
C11   C     C_R   0.585284 0.939168 0.560835 0.153151
C12   C     C_R   0.421287 0.493573 0.700137 0.777242
C13   C     C_R   0.585859 0.068283 0.554860 -0.169714
C14   C     C_R   0.497069 0.128876 0.504745 -0.066394
C15   C     C_R   0.405594 0.062358 0.459977 -0.184327
C16   C     C_R   0.407038 0.934724 0.461528 -0.205391
C17   C     C_R   0.497941 0.872348 0.509479 -0.083294
C18   C     C_R   0.895381 0.566889 0.572335 -0.030401
C19   C     C_R   0.044253 0.567046 0.572198 -0.021356
C20   C     C_R   0.104463 0.432437 0.428064 -0.026628
C21   C     C_R   0.955642 0.432625 0.427993 -0.027282
C22   C     C_R   0.499299 0.262286 0.500663 0.791979
C23   C     C_R   0.578741 0.498193 0.299935 0.804979
C24   C     C_R   0.788226 0.396444 0.028508 -0.202801
C25   C     C_R   0.623209 0.481903 0.186741 -0.049473
C26   C     C_R   0.231494 0.530820 0.868709 -0.191896
C27   C     C_R   0.188670 0.544863 0.976157 -0.157301
C28   C     C_R   0.288591 0.523282 0.031121 -0.188130
Cu1   Cu    Cu3+1 0.359340 0.499980 0.500000 0.939482
Cu2   Cu    Cu3+1 0.640660 0.500020 0.500000 0.929605
H1    H     H_    0.841870 0.412980 0.171665 0.147117
H2    H     H_    0.653415 0.123291 0.590159 0.156344
H3    H     H_    0.336083 0.109031 0.421399 0.147453
H4    H     H_    0.338855 0.884520 0.423248 0.157697
H5    H     H_    0.815141 0.620136 0.630578 0.125341
H6    H     H_    0.076201 0.620863 0.629960 0.118573
H7    H     H_    0.184489 0.377995 0.370599 0.120010
H8    H     H_    0.923577 0.378545 0.370424 0.116916
H9    H     H_    0.808309 0.323047 0.836091 0.148821
H10   H     H_    0.893573 0.355080 0.988045 0.141003
H11   H     H_    0.419065 0.550542 0.178111 0.146631
H12   H     H_    0.154126 0.555879 0.827416 0.151409
H13   H     H_    0.247507 0.537292 0.114185 0.124644
H14   H     H_    0.078462 0.576485 0.016901 0.148428
H15   H     H_    0.626607 0.348446 0.747248 0.173827
N1    N     N_R   0.147940 0.499970 0.499970 -0.157257
N2    N     N_R   0.852060 0.500060 0.499990 -0.158174
O1    O     O_R   0.381250 0.680340 0.500010 -0.578002
O2    O     O_R   0.618820 0.680370 0.500010 -0.588106
O3    O     O_R   0.323240 0.499950 0.650980 -0.582144
O4    O     O_R   0.560810 0.499980 0.650980 -0.592939
O5    O     O_R   0.381180 0.319630 0.499990 -0.579611
O6    O     O_R   0.618750 0.319660 0.499990 -0.591591
O7    O     O_R   0.439190 0.500020 0.349020 -0.588028
O8    O     O_R   0.676760 0.500050 0.349020 -0.582546
C29   C     C_3   0.674658 0.872897 0.621483 -0.381668
C30   C     C_3   0.726242 0.952664 0.698333 -0.885339
H16   H     H_    0.813006 0.018990 0.656032 0.250276
H17   H     H_    0.631888 0.003187 0.751789 0.260349
H18   H     H_    0.774717 0.892249 0.745879 0.246515
H19   H     H_    0.605722 0.797642 0.668127 0.206264
H20   H     H_    0.773476 0.831144 0.565237 0.217987

loop_
_geom_bond_atom_site_label_1
_geom_bond_atom_site_label_2
_ccdc_geom_bond_type
C12   O3    A    
Cu2   O4    S    
C9    C24   A    
C23   O8    A    
C6    C7    A    
C20   H7    S    
C18   H5    S    
C13   H2    S    
C1    C17   S    
C11   C29   S    
Cu1   N1    S    
C4    C8    A    
C6    H9    S    
C18   N2    A    
C14   C22   S    
C2    C3    A    
C30   H16   S    
C19   N1    A    
C9    C25   A    
C1    O1    A    
C3    C10   A    
C13   C14   A    
C8    H11   S    
C8    C25   A    
C11   C13   A    
C10   C26   A    
C26   C27   A    
Cu1   Cu2   S    
C5    C24   A    
C10   C12   S    
Cu1   O3    S    
C2    C4    A    
C7    H15   S    
C24   H10   S    
Cu2   O2    S    
C22   O6    A    
C3    C7    A    
C19   H6    S    
C23   C25   S    
C5    C6    A    
Cu2   O6    S    
C29   H20   S    
C30   H17   S    
Cu1   O7    S    
C9    H1    S    
Cu1   O1    S    
C15   C16   A    
Cu2   N2    S    
C4    C5    A    
C12   O4    A    
C20   C21   A    
C26   H12   S    
C23   O7    A    
C22   O5    A    
C18   C19   A    
Cu2   O8    S    
C27   C28   A    
C29   C30   S    
C29   H19   S    
C11   C17   A    
C30   H18   S    
C2    C28   A    
C28   H13   S    
C16   H4    S    
C14   C15   A    
C1    O2    A    
C27   H14   S    
C15   H3    S    
C20   N1    A    
C21   H8    S    
C16   C17   A    
C21   N2    A    
Cu1   O5    S    
