data_mof_unit_53300.cif
_audit_creation_date              2012-12-11T14:01:08-0500
_audit_creation_method            fapswitch 2.2
_symmetry_space_group_name_H-M    P1
_symmetry_Int_Tables_number       1
_space_group_crystal_system       triclinic
_cell_length_a                    19.315388
_cell_length_b                    11.152314
_cell_length_c                    18.883354
_cell_angle_alpha                 88.801778
_cell_angle_beta                  90.975834
_cell_angle_gamma                 90.226939
_cell_volume                      4066.1815795

loop_
_atom_site_label
_atom_site_type_symbol
_atom_type_description
_atom_site_fract_x
_atom_site_fract_y
_atom_site_fract_z
_atom_type_partial_charge
C1    C     C_R   0.287109 0.005091 0.862400 0.584548
C2    C     C_R   0.726707 0.041079 0.146958 0.542870
C3    C     C_R   0.775048 0.536076 0.855521 0.549318
C4    C     C_R   0.225343 0.541739 0.145753 0.563634
C5    C     C_R   0.492579 0.059637 0.064878 0.349161
C6    C     C_R   0.520692 0.043494 0.921229 0.355592
C7    C     C_R   0.986929 0.563144 0.070657 0.315167
C8    C     C_R   0.996119 0.555681 0.924305 0.334426
C9    C     C_R   0.974873 0.665970 0.029253 0.368023
C10   C     C_R   0.976600 0.661157 0.956168 0.354719
C11   C     C_R   0.489347 0.161006 0.021216 0.321755
C12   C     C_R   0.506069 0.153538 0.949967 0.318581
C13   C     C_2   0.291720 0.689145 0.931206 0.268444
C14   C     C_2   0.720435 0.681457 0.065266 0.314854
C15   C     C_2   0.789342 0.149920 0.928337 0.320861
C16   C     C_2   0.221203 0.173196 0.064927 0.305979
C17   C     C_2   0.241048 0.594078 0.075535 0.018962
C18   C     C_2   0.761530 0.559632 0.930652 0.034037
C19   C     C_2   0.747758 0.089058 0.078917 0.011182
C20   C     C_2   0.270975 0.031425 0.938579 0.081667
C21   C     C_2   0.303494 0.576300 0.046075 0.436613
C22   C     C_2   0.696584 0.586049 0.951886 0.363686
C23   C     C_2   0.782956 0.022344 0.032577 0.518386
C24   C     C_2   0.205130 0.061208 0.956165 0.408135
C25   C     C_2   0.315440 0.591549 0.968998 0.059708
C26   C     C_2   0.679889 0.605048 0.027490 -0.039356
C27   C     C_2   0.772263 0.041504 0.955253 0.065803
C28   C     C_2   0.185077 0.087405 0.029954 -0.021931
C29   C     C_2   0.506135 0.829421 0.582673 0.450271
C30   C     C_2   0.562937 0.815658 0.437081 0.455130
C31   C     C_2   0.007460 0.331465 0.583709 0.482363
C32   C     C_2   0.062560 0.316097 0.437213 0.466294
C33   C     C_2   0.540329 0.720468 0.478295 0.034036
C34   C     C_2   0.540526 0.733178 0.556709 0.035617
C35   C     C_2   0.039760 0.221412 0.478753 -0.002439
C36   C     C_2   0.039993 0.234329 0.557359 0.012605
C37   C     C_2   0.264454 0.641310 0.567314 0.392974
C38   C     C_2   0.750239 0.563545 0.416779 0.366176
C39   C     C_2   0.764169 0.145973 0.566071 0.403753
C40   C     C_2   0.251764 0.105658 0.425609 0.407664
C41   C     C_2   0.252460 0.608887 0.411995 0.409905
C42   C     C_2   0.763789 0.577481 0.573852 0.395388
C43   C     C_2   0.757190 0.113069 0.409922 0.378465
C44   C     C_2   0.249798 0.081032 0.579292 0.338710
C45   C     C_R   0.470369 0.820695 0.853844 0.606609
C46   C     C_R   0.528397 0.823470 0.147088 0.591191
C47   C     C_R   0.969149 0.321484 0.854573 0.619246
C48   C     C_R   0.027966 0.323716 0.147582 0.591319
C49   C     C_2   0.205420 0.658065 0.454455 0.477344
C50   C     C_2   0.806539 0.525247 0.528142 0.494447
C51   C     C_2   0.716583 0.185667 0.447303 0.463373
C52   C     C_2   0.272617 0.178410 0.545821 0.422289
C53   C     C_2   0.222830 0.702162 0.522832 0.455517
C54   C     C_2   0.808703 0.566887 0.454911 0.439890
C55   C     C_2   0.734756 0.221835 0.518716 0.424069
C56   C     C_2   0.252499 0.196723 0.472082 0.380266
C57   C     C_R   0.279025 0.693504 0.855007 0.592114
C58   C     C_R   0.722874 0.692193 0.142631 0.583126
C59   C     C_R   0.777643 0.187935 0.856188 0.574841
C60   C     C_R   0.223282 0.189969 0.142027 0.580933
C61   C     C_R   0.272409 0.044662 0.648512 0.609836
C62   C     C_R   0.728660 0.047900 0.350025 0.591703
C63   C     C_R   0.773236 0.545558 0.647723 0.592166
C64   C     C_R   0.227935 0.546733 0.350307 0.622976
C65   C     C_R   0.473115 0.823546 0.650903 0.559604
C66   C     C_R   0.564529 0.816475 0.358857 0.584106
C67   C     C_R   0.973053 0.323860 0.651007 0.582693
C68   C     C_R   0.064380 0.316515 0.358944 0.597802
C69   C     C_R   0.272498 0.682027 0.638378 0.607300
C70   C     C_R   0.739506 0.635125 0.352894 0.589966
C71   C     C_R   0.772708 0.183531 0.638231 0.627178
C72   C     C_R   0.240100 0.137952 0.353251 0.609973
C73   C     C_R   0.495823 0.836798 0.076215 -0.037745
C74   C     C_R   0.496960 0.825939 0.927455 0.011937
C75   C     C_R   0.993879 0.338199 0.077752 -0.041927
C76   C     C_R   0.992252 0.330927 0.929112 0.006011
C77   C     C_R   0.500777 0.944647 0.035417 -0.176065
C78   C     C_R   0.508159 0.937235 0.960743 -0.185380
C79   C     C_R   0.993843 0.448850 0.038457 -0.176054
C80   C     C_R   0.995788 0.444736 0.963063 -0.180927
C81   C     C_R   0.485863 0.723129 0.969884 0.377486
C82   C     C_R   0.479032 0.731166 0.041876 0.340730
C83   C     C_R   0.985643 0.225906 0.971033 0.451047
C84   C     C_R   0.978462 0.232373 0.042956 0.382307
Cr1   Cr    Cr6+3 0.230530 0.836340 0.748870 1.064394
Cr2   Cr    Cr6+3 0.769470 0.836340 0.251130 1.145372
Cr3   Cr    Cr6+3 0.730530 0.336340 0.748870 1.053066
Cr4   Cr    Cr6+3 0.269470 0.336340 0.251130 1.135012
Cr5   Cr    Cr6+3 0.387420 0.989430 0.750820 1.131959
Cr6   Cr    Cr6+3 0.612580 0.989430 0.249180 1.143948
Cr7   Cr    Cr6+3 0.887420 0.489430 0.750820 1.154431
Cr8   Cr    Cr6+3 0.112580 0.489430 0.249180 1.160165
Cr9   Cr    Cr6+3 0.385640 0.677860 0.749230 1.053408
Cr10  Cr    Cr6+3 0.614360 0.677860 0.250770 0.998258
Cr11  Cr    Cr6+3 0.885640 0.177860 0.749230 1.089865
Cr12  Cr    Cr6+3 0.114360 0.177860 0.250770 0.990837
O1    O     O_R   0.215090 0.709860 0.828130 -0.512544
O2    O     O_R   0.784910 0.709860 0.171870 -0.442127
O3    O     O_R   0.715090 0.209860 0.828130 -0.543481
O4    O     O_R   0.284910 0.209860 0.171870 -0.477096
O5    O     O_R   0.445660 0.919250 0.676780 -0.436348
O6    O     O_R   0.554340 0.919250 0.323220 -0.420280
O7    O     O_R   0.945660 0.419250 0.676780 -0.416270
O8    O     O_R   0.054340 0.419250 0.323220 -0.400951
O9    O     O_R   0.456260 0.718170 0.670000 -0.589322
O10   O     O_R   0.543740 0.718170 0.330000 -0.577848
O11   O     O_R   0.956260 0.218170 0.670000 -0.595517
O12   O     O_R   0.043740 0.218170 0.330000 -0.587056
O13   O     O_R   0.320940 0.626760 0.674370 -0.452167
O14   O     O_R   0.679060 0.626760 0.325630 -0.501201
O15   O     O_R   0.820940 0.126760 0.674370 -0.476442
O16   O     O_R   0.179060 0.126760 0.325630 -0.539030
O17   O     O_3   0.334530 0.834540 0.749640 -0.363877
O18   O     O_3   0.665470 0.834540 0.250360 -0.363479
O19   O     O_3   0.834530 0.334540 0.749640 -0.341860
O20   O     O_3   0.165470 0.334540 0.250360 -0.351903
O21   O     O_R   0.236990 0.958390 0.823710 -0.457052
O22   O     O_R   0.763010 0.958390 0.176290 -0.444997
O23   O     O_R   0.736990 0.458390 0.823710 -0.491109
O24   O     O_R   0.263010 0.458390 0.176290 -0.433815
O25   O     O_R   0.332380 0.074750 0.830850 -0.543316
O26   O     O_R   0.667620 0.074750 0.169150 -0.526989
O27   O     O_R   0.832380 0.574750 0.830850 -0.514067
O28   O     O_R   0.167620 0.574750 0.169150 -0.547671
O29   O     O_R   0.445800 0.917770 0.825070 -0.467318
O30   O     O_R   0.554200 0.917770 0.174930 -0.429190
O31   O     O_R   0.945800 0.417770 0.825070 -0.449412
O32   O     O_R   0.054200 0.417770 0.174930 -0.425994
O33   O     O_R   0.456410 0.716580 0.829970 -0.463187
O34   O     O_R   0.543590 0.716580 0.170030 -0.507721
O35   O     O_R   0.956410 0.216580 0.829970 -0.433136
O36   O     O_R   0.043590 0.216580 0.170030 -0.512406
O37   O     O_R   0.321080 0.625290 0.822650 -0.554612
O38   O     O_R   0.678920 0.625290 0.177350 -0.581161
O39   O     O_R   0.821080 0.125290 0.822650 -0.486007
O40   O     O_R   0.178920 0.125290 0.177350 -0.567996
O41   O     O_R   0.214930 0.711450 0.668160 -0.468355
O42   O     O_R   0.785070 0.711450 0.331840 -0.465080
O43   O     O_R   0.714930 0.211450 0.668160 -0.485868
O44   O     O_R   0.285070 0.211450 0.331840 -0.486671
O45   O     O_R   0.236850 0.959870 0.675420 -0.505444
O46   O     O_R   0.763150 0.959870 0.324580 -0.482556
O47   O     O_R   0.736850 0.459870 0.675420 -0.526386
O48   O     O_R   0.263150 0.459870 0.324580 -0.459607
O49   O     O_R   0.332230 0.076350 0.670880 -0.457801
O50   O     O_R   0.667770 0.076350 0.329120 -0.460905
O51   O     O_R   0.832230 0.576350 0.670880 -0.482274
O52   O     O_R   0.167770 0.576350 0.329120 -0.470537
F1    F     F_    0.480306 0.612609 0.941909 -0.600508
F2    F     F_    0.463125 0.630390 0.079229 -0.569585
F3    F     F_    0.978652 0.115476 0.942505 -0.504821
F4    F     F_    0.960385 0.131215 0.079529 -0.564016
F5    F     F_    0.136443 0.662668 0.437966 -0.536168
F6    F     F_    0.848738 0.433521 0.549285 -0.602963
F7    F     F_    0.653388 0.222513 0.422470 -0.558577
F8    F     F_    0.310078 0.263919 0.579910 -0.573967
F9    F     F_    0.182294 0.791156 0.546017 -0.567047
F10   F     F_    0.867767 0.617847 0.429838 -0.589202
F11   F     F_    0.709295 0.328080 0.540193 -0.625530
F12   F     F_    0.235510 0.310459 0.450818 -0.602764
F13   F     F_    0.321611 0.615671 0.426040 -0.652649
F14   F     F_    0.730165 0.680587 0.555158 -0.668971
F15   F     F_    0.824277 0.094076 0.429641 -0.662693
F16   F     F_    0.208247 0.002269 0.545230 -0.624322
F17   F     F_    0.296666 0.538328 0.548804 -0.566296
F18   F     F_    0.694139 0.503318 0.442584 -0.616052
F19   F     F_    0.782265 0.032028 0.549766 -0.592894
F20   F     F_    0.280042 0.996316 0.441012 -0.587527
F21   F     F_    0.481996 0.077205 0.134593 -0.599652
F22   F     F_    0.547655 0.041687 0.855262 -0.597753
F23   F     F_    0.980104 0.576772 0.141361 -0.595280
F24   F     F_    0.023562 0.566273 0.858703 -0.599482
F25   F     F_    0.960014 0.771020 0.060414 -0.522230
F26   F     F_    0.965173 0.761941 0.916153 -0.552279
F27   F     F_    0.480814 0.268820 0.051338 -0.625063
F28   F     F_    0.506907 0.253263 0.907675 -0.633097
F29   F     F_    0.352948 0.517956 0.085273 -0.557528
F30   F     F_    0.643628 0.589169 0.903338 -0.633763
F31   F     F_    0.826514 0.934456 0.056113 -0.457858
F32   F     F_    0.154366 0.067171 0.905268 -0.618525
C85   C     C_3   0.339081 0.485112 0.928091 -0.237351
C86   C     C_3   0.372556 0.376444 0.961649 -0.188269
C87   C     C_3   0.361627 0.278346 0.907611 -0.345027
H1    H     H_    0.385804 0.195303 0.924683 0.172470
H2    H     H_    0.305477 0.260419 0.899739 0.199382
H3    H     H_    0.384098 0.304800 0.855693 0.209912
H4    H     H_    0.428598 0.395112 0.968958 0.310005
H5    H     H_    0.352655 0.350711 0.013731 0.306794
H6    H     H_    0.292490 0.457754 0.896456 0.149491
H7    H     H_    0.381833 0.514861 0.893540 0.242136
C88   C     C_3   0.612718 0.552633 0.055151 -0.237120
C89   C     C_3   0.617567 0.444747 0.107512 -0.295035
C90   C     C_3   0.561271 0.439274 0.163463 -0.289723
H8    H     H_    0.562661 0.349981 0.190682 0.158231
H9    H     H_    0.569743 0.506934 0.204521 0.199087
H10   H     H_    0.509224 0.450463 0.138699 0.286870
H11   H     H_    0.608230 0.365283 0.077688 0.189058
H12   H     H_    0.669209 0.435563 0.133064 0.162963
H13   H     H_    0.588039 0.626647 0.079347 0.208167
H14   H     H_    0.577781 0.528297 0.010727 0.261162
C91   C     C_3   0.728483 0.952597 0.913873 -0.279398
C92   C     C_3   0.772793 0.869944 0.868954 -0.222662
C93   C     C_3   0.731396 0.823653 0.805438 -0.411351
H15   H     H_    0.764156 0.763848 0.773989 0.177322
H16   H     H_    0.685123 0.773006 0.823451 0.209662
H17   H     H_    0.714474 0.899802 0.770510 0.192629
H18   H     H_    0.819733 0.915915 0.849163 0.232270
H19   H     H_    0.791528 0.793399 0.902084 0.244714
H20   H     H_    0.696924 0.896870 0.950647 0.181627
H21   H     H_    0.690173 0.001861 0.879918 0.185129
C94   C     C_3   0.114989 0.042745 0.054680 -0.230346
C95   C     C_3   0.116145 0.931861 0.104364 -0.298613
C96   C     C_3   0.060877 0.932057 0.161301 -0.299186
H22   H     H_    0.059696 0.842776 0.188480 0.162214
H23   H     H_    0.072470 0.999544 0.201882 0.191697
H24   H     H_    0.008960 0.948992 0.137407 0.286511
H25   H     H_    0.102647 0.855903 0.071463 0.163723
H26   H     H_    0.167604 0.916821 0.129853 0.155449
H27   H     H_    0.089944 0.117774 0.079232 0.199810
H28   H     H_    0.081435 0.021960 0.008208 0.258450
C97   C     C_3   0.183356 0.672325 0.042408 -0.300904
C98   C     C_3   0.149868 0.635058 0.972808 -0.277928
C99   C     C_3   0.121951 0.748177 0.933532 -0.311648
H29   H     H_    0.082940 0.794066 0.964855 0.184120
H30   H     H_    0.162657 0.816274 0.924755 0.234108
H31   H     H_    0.099290 0.726500 0.881255 0.259470
H32   H     H_    0.182378 0.580384 0.938818 0.187922
H33   H     H_    0.108368 0.572307 0.986560 0.146604
H34   H     H_    0.138040 0.679261 0.076568 0.168414
H35   H     H_    0.200799 0.765008 0.041901 0.183875
C100  C     C_3   0.823882 0.543480 0.981483 -0.270961
C101  C     C_3   0.813242 0.452870 0.043033 -0.366797
C102  C     C_3   0.838659 0.488856 0.116422 -0.364572
H36   H     H_    0.879063 0.426374 0.136928 0.190441
H37   H     H_    0.859432 0.580816 0.115487 0.273791
H38   H     H_    0.795979 0.481685 0.154881 0.157928
H39   H     H_    0.757907 0.433971 0.047694 0.147407
H40   H     H_    0.841775 0.370848 0.030988 0.231350
H41   H     H_    0.866623 0.507323 0.950725 0.135844
H42   H     H_    0.843192 0.630442 0.999554 0.246173
C103  C     C_3   0.715172 0.204733 0.057818 -0.338044
C104  C     C_3   0.651644 0.188094 0.011064 -0.347942
C105  C     C_3   0.644185 0.287210 0.953616 -0.345151
H43   H     H_    0.603972 0.352637 0.965865 0.230046
H44   H     H_    0.693002 0.336147 0.943457 0.152523
H45   H     H_    0.626878 0.246686 0.903725 0.266889
H46   H     H_    0.649344 0.099540 0.986086 0.132418
H47   H     H_    0.608977 0.186034 0.047954 0.207182
H48   H     H_    0.703732 0.256360 0.105456 0.144897
H49   H     H_    0.753646 0.255655 0.031221 0.181994
C106  C     C_3   0.330276 0.022453 0.994924 -0.267989
C107  C     C_3   0.319907 0.933897 0.058881 -0.285346
C108  C     C_3   0.343583 0.977411 0.131571 -0.382895
H50   H     H_    0.385114 0.919027 0.154162 0.193440
H51   H     H_    0.362877 0.070211 0.128701 0.263134
H52   H     H_    0.300123 0.972570 0.169306 0.159372
H53   H     H_    0.265010 0.911530 0.063471 0.180788
H54   H     H_    0.348964 0.850105 0.050023 0.228017
H55   H     H_    0.377253 0.994457 0.967403 0.114538
H56   H     H_    0.341587 0.111930 0.015764 0.186121
F33   F     F_    0.278411 0.791315 0.961608 -0.772678
F34   F     F_    0.761967 0.757331 0.029408 -0.645994
F35   F     F_    0.841473 0.209471 0.960954 -0.685910
F36   F     F_    0.254070 0.256804 0.025655 -0.712686
C109  C     C_3   0.508983 0.606400 0.445633 -0.271989
C110  C     C_3   0.478618 0.510269 0.495160 -0.295247
C111  C     C_3   0.444550 0.408976 0.453571 -0.316859
H57   H     H_    0.402636 0.443610 0.418003 0.239520
H58   H     H_    0.483609 0.363258 0.421200 0.182641
H59   H     H_    0.421945 0.342113 0.491035 0.233612
H60   H     H_    0.521046 0.468419 0.526696 0.190885
H61   H     H_    0.439263 0.550944 0.529407 0.245131
H62   H     H_    0.465384 0.634731 0.409965 0.229233
H63   H     H_    0.549861 0.561381 0.415172 0.220317
C112  C     C_3   0.585763 0.645436 0.602238 -0.270869
C113  C     C_3   0.549356 0.553989 0.653070 -0.335440
C114  C     C_3   0.584815 0.432249 0.662109 -0.379676
H64   H     H_    0.612961 0.406863 0.614109 0.239969
H65   H     H_    0.619855 0.432871 0.709094 0.205561
H66   H     H_    0.545351 0.361692 0.672794 0.168542
H67   H     H_    0.547182 0.592375 0.706874 0.214476
H68   H     H_    0.495906 0.534800 0.634734 0.202776
H69   H     H_    0.616668 0.593385 0.564781 0.239087
H70   H     H_    0.623307 0.698915 0.633835 0.190942
C115  C     C_3   0.009919 0.105969 0.446283 -0.276252
C116  C     C_3   0.980059 0.008927 0.495746 -0.307606
C117  C     C_3   0.949575 0.904569 0.453964 -0.300440
H71   H     H_    0.910165 0.935980 0.414550 0.234910
H72   H     H_    0.991214 0.857824 0.425619 0.200885
H73   H     H_    0.924826 0.839367 0.490990 0.230920
H74   H     H_    0.022048 0.969625 0.528927 0.190468
H75   H     H_    0.939006 0.047862 0.528679 0.237665
H76   H     H_    0.966340 0.132543 0.410136 0.231612
H77   H     H_    0.051633 0.062247 0.416313 0.185894
C118  C     C_3   0.084183 0.146020 0.603119 -0.303098
C119  C     C_3   0.048403 0.056881 0.655963 -0.314534
C120  C     C_3   0.084786 0.937297 0.668984 -0.367788
H78   H     H_    0.110471 0.906560 0.620948 0.275017
H79   H     H_    0.121754 0.944545 0.714105 0.201667
H80   H     H_    0.046243 0.867863 0.684658 0.156504
H81   H     H_    0.045918 0.098594 0.708831 0.217223
H82   H     H_    0.995479 0.034141 0.637149 0.195714
H83   H     H_    0.110349 0.091818 0.564479 0.221824
H84   H     H_    0.124787 0.197288 0.631991 0.154598
F37   F     F_    0.592036 0.912980 0.468499 -0.555814
F38   F     F_    0.479792 0.915587 0.537721 -0.554825
F39   F     F_    0.092426 0.412974 0.468294 -0.521292
F40   F     F_    0.984695 0.421802 0.539741 -0.499332

loop_
_geom_bond_atom_site_label_1
_geom_bond_atom_site_label_2
_ccdc_geom_bond_type
C10   F26   S    
C72   O16   A    
C37   C69   S    
C99   H29   S    
C99   H31   S    
C107  H54   S    
Cr5   O29   S    
C58   O38   A    
C31   C67   S    
C94   H28   S    
C93   H16   S    
Cr7   O31   S    
C116  H74   S    
C49   F5    S    
C47   C76   S    
C7    F23   S    
C63   O51   A    
C86   C87   S    
C35   C36   S    
C117  H72   S    
C89   H12   S    
C23   F31   S    
C21   F29   S    
Cr12  O12   S    
C45   C74   S    
C57   O37   A    
C76   C83   A    
C41   C49   D    
C3    O27   A    
C96   H23   S    
Cr5   O17   S    
C92   C93   S    
C88   C89   S    
C103  H48   S    
C77   C78   A    
C17   C21   D    
C47   O35   A    
C19   C23   D    
C87   H1    S    
C106  H56   S    
C85   H7    S    
C15   C27   D    
C57   O1    A    
Cr6   O30   S    
C14   C26   D    
Cr1   O21   S    
Cr8   O20   S    
C119  C120  S    
C70   O42   A    
C74   C81   A    
C5    C77   A    
C7    C79   A    
C1    C20   S    
Cr5   O5    S    
C2    C19   S    
Cr7   O7    S    
C60   O4    A    
C26   C88   S    
C65   O9    A    
C34   C112  S    
C113  H68   S    
C98   H32   S    
C81   F1    S    
C51   C55   S    
Cr6   O18   S    
Cr1   O1    S    
C19   C103  S    
C95   C96   S    
C8    C10   A    
C90   H8    S    
C73   C77   A    
C31   C36   D    
Cr12  O20   S    
C75   C79   A    
C107  C108  S    
C32   F39   S    
C58   O2    A    
C65   O5    A    
Cr7   O51   S    
C67   O7    A    
C28   C94   S    
Cr5   O49   S    
C51   F7    S    
Cr10  O34   S    
Cr9   O37   S    
C110  H60   S    
C108  H50   S    
C111  H59   S    
C49   C53   S    
C75   C84   A    
C6    C78   A    
C13   C57   S    
C4    O28   A    
C103  C104  S    
C16   C60   S    
Cr4   O44   S    
C70   O14   A    
C97   H35   S    
C24   F32   S    
C35   C115  S    
C9    F25   S    
C112  H69   S    
C102  H36   S    
C60   O40   A    
C12   F28   S    
C37   C53   D    
C105  H45   S    
Cr7   O27   S    
C114  H64   S    
C64   O52   A    
C120  H79   S    
C62   O46   A    
C91   H20   S    
C15   F35   S    
C17   C97   S    
C88   H14   S    
C87   H3    S    
Cr1   O45   S    
Cr8   O8    S    
C37   F17   S    
C104  H47   S    
C100  H42   S    
Cr3   O23   S    
C97   C98   S    
C83   C84   A    
C90   H10   S    
C30   C66   S    
C3    O23   A    
C42   C50   D    
C29   C65   S    
C61   O45   A    
C92   H18   S    
C74   C78   A    
C101  H39   S    
C118  H83   S    
C6    F22   S    
C109  H62   S    
C21   C25   S    
C39   C71   S    
C40   C72   S    
C18   C22   D    
Cr3   O19   S    
C24   C28   S    
C46   O34   A    
C108  H52   S    
C111  H57   S    
C99   H30   S    
C47   O31   A    
C44   C61   S    
C94   H27   S    
C116  H75   S    
Cr1   O17   S    
C29   F38   S    
C102  H38   S    
C1    O25   A    
C72   O44   A    
C113  C114  S    
C62   O50   A    
C114  H66   S    
C63   O47   A    
C46   C73   S    
Cr9   O13   S    
C38   C70   S    
C45   O33   A    
C41   F13   S    
Cr8   O52   S    
C112  C113  S    
C2    O22   A    
C106  C107  S    
Cr12  O40   S    
C96   H22   S    
C50   C54   S    
C5    C11   A    
C18   C100  S    
Cr8   O28   S    
C6    C12   A    
C95   H25   S    
C105  H43   S    
C120  H78   S    
C61   O49   A    
C106  H55   S    
C85   H6    S    
C39   C55   D    
C40   C56   D    
C115  H77   S    
Cr4   O24   S    
C55   F11   S    
C27   C91   S    
Cr11  O35   S    
Cr9   O33   S    
C107  H53   S    
C83   F3    S    
C2    O26   A    
C14   C58   S    
C93   H17   S    
C76   C80   A    
C118  C119  S    
C29   C34   D    
Cr10  O14   S    
C33   C109  S    
C119  H82   S    
C115  C116  S    
C48   O32   A    
C94   C95   S    
C38   C54   D    
C98   H33   S    
C31   F40   S    
C42   F14   S    
C104  C105  S    
C117  H73   S    
Cr2   O22   S    
Cr9   O17   S    
C89   H11   S    
C1    O21   A    
Cr4   O4    S    
Cr11  O11   S    
C4    C17   S    
Cr1   O41   S    
C73   C82   A    
Cr2   O46   S    
C96   H24   S    
C38   F18   S    
C15   C59   S    
C103  H49   S    
C68   O8    A    
Cr3   O43   S    
C11   F27   S    
C110  H61   S    
C111  H58   S    
C43   C51   D    
Cr5   O25   S    
C59   O39   A    
C101  C102  S    
Cr7   O19   S    
Cr2   O2    S    
C56   F12   S    
C22   C26   S    
C97   H34   S    
C5    F21   S    
C48   O36   A    
C44   F16   S    
C41   C64   S    
C86   H5    S    
C42   C63   S    
C8    F24   S    
C43   C62   S    
C43   F15   S    
C16   C28   D    
C93   H15   S    
C59   O3    A    
C91   C92   S    
C66   O6    A    
C22   F30   S    
C81   C82   A    
Cr10  O18   S    
Cr12  O16   S    
C30   F37   S    
C88   H13   S    
C87   H2    S    
C116  C117  S    
C113  H67   S    
C85   C86   S    
C3    C18   S    
C100  H41   S    
Cr9   O9    S    
C69   O13   A    
C36   C118  S    
Cr6   O6    S    
C117  H71   S    
C45   O29   A    
C105  H44   S    
C71   O15   A    
C23   C27   S    
C14   F34   S    
C109  C110  S    
C32   C68   S    
C92   H19   S    
C101  H40   S    
Cr6   O26   S    
C48   C75   S    
C13   C25   D    
C66   O10   A    
Cr8   O32   S    
C25   C85   S    
Cr3   O3    S    
C69   O41   A    
C119  H81   S    
C32   C35   D    
C20   C24   D    
Cr11  O19   S    
C108  H51   S    
C20   C106  S    
C71   O43   A    
C64   O48   A    
C90   H9    S    
Cr4   O20   S    
C54   F10   S    
Cr11  O39   S    
C33   C34   S    
C112  H70   S    
C102  H37   S    
C82   F2    S    
C84   F4    S    
C114  H65   S    
C120  H80   S    
C91   H21   S    
C9    C10   A    
C7    C9    A    
Cr10  O10   S    
C30   C33   D    
C46   O30   A    
C44   C52   D    
C11   C12   A    
C52   F8    S    
C53   F9    S    
C104  H46   S    
Cr12  O36   S    
Cr2   O18   S    
C89   C90   S    
Cr6   O50   S    
Cr11  O15   S    
C67   O11   A    
C95   H26   S    
C50   F6    S    
Cr10  O38   S    
C86   H4    S    
C39   F19   S    
C98   C99   S    
C40   F20   S    
C110  C111  S    
Cr2   O42   S    
C79   C80   A    
C16   F36   S    
C109  H63   S    
C115  H76   S    
C100  C101  S    
C8    C80   A    
C4    O24   A    
C68   O12   A    
Cr3   O47   S    
C13   F33   S    
Cr4   O48   S    
C52   C56   S    
C118  H84   S    
