data_mof_unit_66158.cif
_audit_creation_date              2012-12-10T18:48:18-0500
_audit_creation_method            fapswitch 2.2
_symmetry_space_group_name_H-M    P1
_symmetry_Int_Tables_number       1
_space_group_crystal_system       triclinic
_cell_length_a                    13.893341
_cell_length_b                    18.157199
_cell_length_c                    19.478155
_cell_angle_alpha                 90.338817
_cell_angle_beta                  90.218167
_cell_angle_gamma                 84.848948
_cell_volume                      4893.68438522

loop_
_atom_site_label
_atom_site_type_symbol
_atom_type_description
_atom_site_fract_x
_atom_site_fract_y
_atom_site_fract_z
_atom_type_partial_charge
C1    C     C_R   0.500163 0.500248 0.632526 0.825110
C2    C     C_R   0.499837 0.499752 0.367473 0.825110
C3    C     C_R   0.499441 0.432384 0.254598 0.609927
C4    C     C_R   0.500562 0.567616 0.745402 0.609927
C5    C     C_R   0.499565 0.499175 0.291859 -0.156646
C6    C     C_R   0.500435 0.500824 0.708141 -0.156646
C7    C     C_R   0.439418 0.455775 0.035139 -0.177178
C8    C     C_R   0.560584 0.544224 0.964861 -0.177178
C9    C     C_R   0.440080 0.455530 0.963661 -0.172085
C10   C     C_R   0.559921 0.544470 0.036339 -0.172084
C11   C     C_R   0.500646 0.499770 0.927988 0.129873
C12   C     C_R   0.499356 0.500230 0.072013 0.129872
C13   C     C_R   0.560308 0.275167 0.543118 0.086324
C14   C     C_R   0.439691 0.724833 0.456883 0.086324
C15   C     C_R   0.561482 0.197766 0.543923 -0.280436
C16   C     C_R   0.438517 0.802234 0.456078 -0.280434
C17   C     C_R   0.500043 0.161554 0.499952 0.104041
C18   C     C_R   0.499957 0.838446 0.500047 0.104041
C19   C     C_R   0.438623 0.205650 0.455968 -0.271206
C20   C     C_R   0.561377 0.794350 0.544031 -0.271206
C21   C     C_R   0.439786 0.282902 0.456786 0.145496
C22   C     C_R   0.560215 0.717098 0.543213 0.145495
C23   C     C_R   0.683197 0.488112 0.500030 0.817399
C24   C     C_R   0.316803 0.511888 0.499970 0.817399
C25   C     C_R   0.413825 0.044557 0.490218 -0.175048
C26   C     C_R   0.586175 0.955443 0.509782 -0.175048
C27   C     C_R   0.413802 0.967183 0.490248 -0.168074
C28   C     C_R   0.586198 0.032817 0.509751 -0.168074
C29   C     C_R   0.499976 0.921287 0.500031 0.120943
C30   C     C_R   0.500023 0.078713 0.499969 0.120942
C31   C     C_1   0.213701 0.519096 0.499920 -0.165068
C32   C     C_1   0.786299 0.480904 0.500080 -0.165068
C33   C     C_2   0.023317 0.530528 0.499834 -0.158090
C34   C     C_2   0.976683 0.469472 0.500166 -0.158089
C35   C     C_1   0.873099 0.475188 0.500123 0.008409
C36   C     C_1   0.126901 0.524812 0.499877 0.008409
C37   C     C_R   0.499415 0.566114 0.256011 -0.270286
C38   C     C_R   0.500583 0.433886 0.743989 -0.270286
C39   C     C_R   0.499309 0.566506 0.184528 -0.169367
C40   C     C_R   0.500689 0.433494 0.815472 -0.169367
C41   C     C_R   0.499203 0.500007 0.147580 0.017354
C42   C     C_R   0.500798 0.499993 0.852420 0.017355
C43   C     C_R   0.499256 0.433104 0.183119 -0.237005
C44   C     C_R   0.500747 0.566896 0.816881 -0.237004
Cu1   Cu    Cu3+1 0.500030 0.426640 0.500000 0.970799
Cu2   Cu    Cu3+1 0.499970 0.573360 0.500000 0.970799
H1    H     H_    0.015994 0.414960 0.500470 0.157342
H2    H     H_    0.984006 0.585040 0.499530 0.157342
H3    H     H_    0.390928 0.180702 0.420382 0.135952
H4    H     H_    0.609073 0.819297 0.579616 0.135952
H5    H     H_    0.392548 0.316161 0.422559 0.143332
H6    H     H_    0.607454 0.683839 0.577439 0.143333
H7    H     H_    0.345693 0.077687 0.483719 0.129723
H8    H     H_    0.654307 0.922313 0.516281 0.129723
H9    H     H_    0.345652 0.943353 0.483770 0.131720
H10   H     H_    0.654348 0.056647 0.516230 0.131720
H11   H     H_    0.499200 0.618370 0.283140 0.176870
H12   H     H_    0.500795 0.381630 0.716859 0.176870
H13   H     H_    0.498180 0.618891 0.158095 0.145669
H14   H     H_    0.501816 0.381109 0.841904 0.145668
H15   H     H_    0.500423 0.381093 0.155474 0.158933
H16   H     H_    0.499582 0.618907 0.844526 0.158932
H17   H     H_    0.391121 0.421986 0.061620 0.136304
H18   H     H_    0.608881 0.578014 0.938380 0.136303
H19   H     H_    0.392197 0.421649 0.936248 0.134321
H20   H     H_    0.607804 0.578350 0.063753 0.134321
H21   H     H_    0.607593 0.302366 0.577313 0.119595
H22   H     H_    0.392405 0.697634 0.422688 0.119595
H23   H     H_    0.609201 0.166714 0.579493 0.130962
H24   H     H_    0.390798 0.833286 0.420508 0.130961
N1    N     N_R   0.500010 0.316380 0.499980 -0.176917
N2    N     N_R   0.499990 0.683620 0.500020 -0.176918
O1    O     O_R   0.500040 0.438020 0.599820 -0.605121
O2    O     O_R   0.499960 0.561980 0.400180 -0.605121
O3    O     O_R   0.500000 0.561930 0.599810 -0.520894
O4    O     O_R   0.500000 0.438070 0.400190 -0.520894
O5    O     O_R   0.637870 0.429290 0.499990 -0.577249
O6    O     O_R   0.362130 0.570710 0.500010 -0.577251
O7    O     O_R   0.637830 0.553200 0.499980 -0.587942
O8    O     O_R   0.362170 0.446800 0.500020 -0.587942
F1    F     F_    0.499817 0.366223 0.286755 -0.667784
F2    F     F_    0.500189 0.633777 0.713245 -0.667784

loop_
_geom_bond_atom_site_label_1
_geom_bond_atom_site_label_2
_ccdc_geom_bond_type
C40   H14   S    
C5    C37   A    
C27   C29   A    
Cu2   O2    S    
C28   H10   S    
C39   C41   A    
Cu1   Cu2   S    
C3    C43   A    
C21   N1    A    
Cu1   O4    S    
Cu1   O1    S    
C19   C21   A    
C25   H7    S    
Cu2   O7    S    
C27   H9    S    
Cu1   N1    S    
C33   C36   S    
C11   C42   S    
C7    C9    A    
C34   C35   S    
C20   H4    S    
C38   H12   S    
C24   O8    A    
C3    F1    S    
C6    C38   A    
Cu2   N2    S    
C2    O2    A    
C40   C42   A    
C17   C30   S    
C41   C43   A    
C42   C44   A    
C26   H8    S    
C22   N2    A    
Cu2   O3    S    
C10   H20   S    
C7    C12   A    
C15   H23   S    
C1    C6    S    
C1    O3    A    
C32   C35   T    
C16   H24   S    
C4    C6    A    
Cu2   O6    S    
C13   N1    A    
C44   H16   S    
C12   C41   S    
C19   H3    S    
C39   H13   S    
C33   C34   D    
C18   C29   S    
C23   O5    A    
C9    C11   A    
C7    H17   S    
C10   C12   A    
C8    H18   S    
C24   O6    A    
C20   C22   A    
C13   C15   A    
C14   C16   A    
C2    C5    S    
C21   H5    S    
C2    O4    A    
C43   H15   S    
C22   H6    S    
C13   H21   S    
C25   C30   A    
C15   C17   A    
C14   N2    A    
C16   C18   A    
C3    C5    A    
C25   C27   A    
C4    C44   A    
C26   C28   A    
C1    O1    A    
C23   C32   S    
C28   C30   A    
C24   C31   S    
C37   C39   A    
C38   C40   A    
C8    C11   A    
C17   C19   A    
Cu1   O8    S    
C18   C20   A    
C9    H19   S    
C4    F2    S    
C26   C29   A    
C8    C10   A    
C33   H2    S    
C14   H22   S    
C31   C36   T    
Cu1   O5    S    
C34   H1    S    
C23   O7    A    
C37   H11   S    
