data_mof_unit_63207.cif
_audit_creation_date              2013-03-05T15:40:06-0500
_audit_creation_method            fapswitch 2.2
_symmetry_space_group_name_H-M    P1
_symmetry_Int_Tables_number       1
_space_group_crystal_system       triclinic
_cell_length_a                    18.781495
_cell_length_b                    18.962853
_cell_length_c                    18.833085
_cell_angle_alpha                 109.920943
_cell_angle_beta                  109.361964
_cell_angle_gamma                 109.632873
_cell_volume                      5131.03475534

loop_
_atom_site_label
_atom_site_type_symbol
_atom_site_description
_atom_site_fract_x
_atom_site_fract_y
_atom_site_fract_z
_atom_type_partial_charge
O1    O     O_R   0.460610 0.409240 0.550770 -0.606694
O2    O     O_R   0.358470 0.409870 0.449260 -0.621420
C1    C     C_R   0.380337 0.383161 0.501711 0.919570
O3    O     O_R   0.551070 0.590720 0.641790 -0.618755
O4    O     O_R   0.448930 0.591350 0.540280 -0.620383
C2    C     C_R   0.497083 0.616046 0.619940 0.865731
Zn1   Zn    Zn3+2 0.568200 0.499580 0.567780 1.010063
Zn2   Zn    Zn3+2 0.431800 0.500420 0.432220 0.981885
O5    O     O_R   0.641530 0.590130 0.550740 -0.611976
O6    O     O_R   0.539390 0.590760 0.449230 -0.617299
O7    O     O_R   0.551070 0.408650 0.459720 -0.616200
O8    O     O_R   0.448930 0.409280 0.358210 -0.620842
C3    C     C_R   0.619175 0.616893 0.497831 0.937578
C4    C     C_R   0.497517 0.377863 0.379763 0.943193
H1    H     H_    0.486683 0.750600 0.619898 0.167274
C5    C     C_R   0.500832 0.602778 0.772309 -0.263328
H2    H     H_    0.486572 0.544987 0.718506 0.183377
C6    C     C_R   0.515033 0.603688 0.850766 0.364131
C7    C     C_R   0.529519 0.676173 0.920019 -0.204062
H3    H     H_    0.542057 0.679425 0.981782 0.188041
C8    C     C_R   0.527927 0.745407 0.910608 -0.231451
H4    H     H_    0.540633 0.800216 0.966610 0.170156
C9    C     C_R   0.512157 0.744290 0.831356 0.106674
C10   C     C_R   0.503042 0.674525 0.763150 0.047428
C11   C     C_R   0.495359 0.678676 0.687387 -0.082260
C12   C     C_R   0.492054 0.747435 0.677729 -0.191300
H5    H     H_    0.492586 0.865633 0.733781 0.158355
C13   C     C_R   0.497151 0.813523 0.742900 -0.203946
C14   C     C_R   0.506229 0.811720 0.818511 -0.079077
C15   C     C_2   0.252702 0.259481 0.578257 -0.127851
C16   C     C_2   0.193124 0.182298 0.505650 -0.324811
H6    H     H_    0.250522 0.276108 0.638406 0.182313
H7    H     H_    0.201119 0.161860 0.448807 0.162396
C17   C     C_2   0.324985 0.320781 0.578171 -0.134677
C18   C     C_2   0.311691 0.324077 0.505438 -0.341993
H8    H     H_    0.387783 0.364880 0.638139 0.213653
H9    H     H_    0.246457 0.287128 0.448517 0.170237
C19   C     C_2   0.416083 0.178429 0.167398 0.127278
C20   C     C_2   0.491705 0.184779 0.172626 -0.358032
H10   H     H_    0.552674 0.246695 0.217167 0.156458
C21   C     C_2   0.422482 0.255070 0.231846 -0.166785
C22   C     C_2   0.489450 0.303175 0.314281 -0.364628
H11   H     H_    0.371770 0.271310 0.212629 0.170835
H12   H     H_    0.537185 0.284025 0.336177 0.171872
C23   C     C_2   0.821553 0.742753 0.496190 -0.161584
C24   C     C_2   0.824539 0.818289 0.512046 -0.305893
H13   H     H_    0.865830 0.727198 0.478028 0.173693
H14   H     H_    0.787717 0.838188 0.540095 0.173662
C25   C     C_2   0.760385 0.681633 0.507475 -0.148842
C26   C     C_2   0.683145 0.676426 0.489795 -0.325125
H15   H     H_    0.777059 0.638828 0.526510 0.172404
H16   H     H_    0.662513 0.711926 0.461024 0.170757
O9    O     O_R   0.460650 0.048500 0.906910 -0.613125
O10   O     O_R   0.358520 0.946380 0.906940 -0.626853
C27   C     C_R   0.380348 0.994953 0.876324 0.919970
O11   O     O_R   0.551120 0.956920 0.905770 -0.614032
O12   O     O_R   0.449000 0.854790 0.905800 -0.620997
C28   C     C_R   0.502521 0.877627 0.879924 0.867801
Zn3   Zn    Zn3+2 0.568250 0.065080 0.996810 1.031701
Zn4   Zn    Zn3+2 0.431870 0.928710 0.996840 0.965693
O13   O     O_R   0.641600 0.047410 0.086710 -0.559469
O14   O     O_R   0.539480 0.945290 0.086740 -0.646298
O15   O     O_R   0.551130 0.138990 0.087850 -0.607896
O16   O     O_R   0.449000 0.036870 0.087880 -0.626080
C29   C     C_R   0.620175 0.999909 0.118445 0.856033
C30   C     C_R   0.497267 0.116787 0.113778 0.922383
O17   O     O_R   0.909540 0.051950 0.461490 -0.558056
O18   O     O_R   0.909530 0.949160 0.358700 -0.628170
C31   C     C_R   0.875715 0.994535 0.381316 0.995224
O19   O     O_R   0.090460 0.141840 0.551380 -0.611881
O20   O     O_R   0.090460 0.039050 0.448590 -0.623275
C32   C     C_R   0.121169 0.118768 0.501826 0.937536
Zn5   Zn    Zn3+2 1.000000 0.068630 0.568630 1.046514
Zn6   Zn    Zn3+2 1.000000 0.931370 0.431370 0.987684
O21   O     O_R   0.090470 0.050840 0.641300 -0.628582
O22   O     O_R   0.090460 0.948050 0.538510 -0.622113
O23   O     O_R   0.909540 0.960950 0.551410 -0.595234
O24   O     O_R   0.909540 0.858160 0.448620 -0.622804
C33   C     C_R   0.121261 0.002075 0.618938 0.912202
C34   C     C_R   0.883374 0.881348 0.502702 0.949628
C35   C     C_2   0.252592 0.993385 0.673672 -0.143875
C36   C     C_2   0.193582 0.011075 0.687261 -0.321922
H17   H     H_    0.249748 0.974543 0.611031 0.171541
H18   H     H_    0.202101 0.039469 0.752384 0.159273
C37   C     C_2   0.324820 0.003638 0.745495 -0.139758
C38   C     C_2   0.311726 0.986317 0.804637 -0.334660
H19   H     H_    0.387282 0.021971 0.747822 0.171669
H20   H     H_    0.246754 0.958395 0.796642 0.155957
C39   C     C_2   0.737182 0.995503 0.322758 0.380355
C40   C     C_2   0.799005 0.980012 0.312479 -0.382541
H21   H     H_    0.792183 0.953401 0.247946 0.156644
C41   C     C_2   0.669919 0.988075 0.248087 -0.339748
C42   C     C_2   0.689686 0.016520 0.196878 0.097031
H22   H     H_    0.602686 0.956076 0.233588 0.185564
C43   C     C_3   0.327656 0.097360 0.095606 -0.355012
C44   C     C_3   0.247801 0.105326 0.091411 -0.389434
C45   C     C_3   0.162660 0.020469 0.019527 -0.835608
H23   H     H_    0.157847 0.003269 0.954856 0.258453
H24   H     H_    0.159535 0.966844 0.032420 0.263124
H25   H     H_    0.106134 0.028176 0.017686 0.260097
H26   H     H_    0.250080 0.121374 0.154969 0.235310
H27   H     H_    0.247914 0.157685 0.077283 0.227844
H28   H     H_    0.323590 0.081604 0.031312 0.195337
H29   H     H_    0.323925 0.042389 0.106279 0.225937
N1    N     N_R   0.730837 0.012454 0.400336 0.229538
O25   O     O_R   0.692692 0.055724 0.420414 -0.357001
O26   O     O_R   0.747905 0.971928 0.441293 -0.398798
N2    N     N_R   0.778972 0.073525 0.223570 0.212692
O27   O     O_R   0.804325 0.064584 0.166201 -0.374179
O28   O     O_R   0.831801 0.140263 0.302602 -0.357901
N3    N     N_R   0.515928 0.531836 0.860491 0.208592
O29   O     O_R   0.515900 0.470527 0.801943 -0.411870
O30   O     O_R   0.519708 0.528513 0.929470 -0.379953

loop_
_geom_bond_atom_site_label_1
_geom_bond_atom_site_label_2
_geom_bond_distance
_ccdc_geom_bond_type
C24   C34   1.437459 S    
C44   H27   1.111554 S    
Zn5   O21   2.007954 S    
C21   C22   1.339223 D    
C43   C44   1.536320 S    
O22   C33   1.281333 A    
C33   C36   1.437174 S    
C35   C36   1.336309 D    
O9    Zn3   1.997742 S    
O10   Zn4   2.006713 S    
C23   C24   1.336973 D    
Zn1   O7    2.005028 S    
N1    O26   1.301458 A    
Zn6   O22   1.997211 S    
C9    C14   1.412279 A    
C13   C14   1.390713 A    
C7    C8    1.391894 A    
C17   C18   1.335880 D    
C42   N2    1.444269 S    
C19   C20   1.351179 D    
O7    C4    1.273605 A    
O24   C34   1.282251 A    
C2    C11   1.431830 S    
O18   Zn6   2.007956 S    
N2    O27   1.301302 A    
Zn4   O14   1.997868 S    
C6    C7    1.398626 A    
O5    C3    1.279501 A    
C45   H24   1.110875 S    
N3    O29   1.301201 A    
N2    O28   1.301854 A    
C5    H2    1.079597 S    
C25   H15   1.086344 S    
C19   C43   1.525969 S    
C26   H16   1.086998 S    
C9    C10   1.404810 A    
C16   H7    1.087074 S    
O17   Zn5   1.997209 S    
C1    C18   1.437141 S    
C17   H8    1.084585 S    
C4    C22   1.446158 S    
O9    C27   1.278191 A    
O15   C30   1.273008 A    
C5    C10   1.417464 A    
C8    H4    1.081209 S    
C21   H11   1.085110 S    
C22   H12   1.086921 S    
O3    Zn1   2.015603 S    
C35   H17   1.086463 S    
C43   H28   1.112695 S    
C45   H23   1.111046 S    
C23   H13   1.086378 S    
C24   H14   1.086963 S    
Zn3   O13   2.006714 S    
C15   C17   1.461692 S    
C37   H19   1.086495 S    
C10   C11   1.417949 A    
C19   C21   1.477734 S    
O3    C2    1.270165 A    
C20   H10   1.087153 S    
O18   C31   1.273560 A    
O12   Zn4   2.009763 S    
C11   C12   1.394828 A    
C37   C38   1.336281 D    
O1    C1    1.278755 A    
O16   C30   1.279163 A    
O4    Zn2   2.005027 S    
C23   C25   1.463985 S    
C15   C16   1.336096 D    
Zn2   O8    2.015602 S    
C44   C45   1.526468 S    
O19   Zn5   2.001921 S    
C41   H22   1.086652 S    
N3    O30   1.301649 A    
C6    N3    1.440024 S    
C39   C41   1.469998 S    
Zn2   O6    1.997795 S    
C16   C32   1.437064 S    
O8    C4    1.279424 A    
C36   H18   1.087079 S    
C8    C9    1.413157 A    
C20   C30   1.447425 S    
C40   H21   1.087897 S    
C31   C40   1.443540 S    
C45   H25   1.110399 S    
C43   H29   1.111293 S    
O23   C34   1.272999 A    
Zn1   O5    2.006890 S    
O10   C27   1.270368 A    
O14   C29   1.284488 A    
C18   H9    1.087030 S    
O1    Zn1   1.997797 S    
C12   C13   1.370916 A    
O2    Zn2   2.006889 S    
H1    C12   1.084336 S    
O6    C3    1.269351 A    
O20   Zn6   2.003321 S    
N1    O25   1.301046 A    
Zn3   O15   2.009549 S    
O11   Zn3   2.011059 S    
Zn4   O16   2.011061 S    
C7    H3    1.082599 S    
O2    C1    1.269910 A    
O20   C32   1.273152 A    
C15   H6    1.086441 S    
O12   C28   1.269478 A    
O4    C2    1.274728 A    
C27   C38   1.436786 S    
C29   C42   1.453780 S    
C41   C42   1.347671 D    
O11   C28   1.270950 A    
C38   H20   1.087078 S    
C3    C26   1.437505 S    
O13   C29   1.270131 A    
C14   C28   1.425265 S    
C5    C6    1.404617 A    
C25   C26   1.336459 D    
Zn6   O24   2.001927 S    
C39   N1    1.439900 S    
H5    C13   1.084482 S    
Zn5   O23   2.003324 S    
O19   C32   1.281904 A    
O17   C31   1.283653 A    
C39   C40   1.345911 D    
C44   H26   1.111892 S    
O21   C33   1.273722 A    
C35   C37   1.460999 S    
