data_mof_unit_44293.cif
_audit_creation_date              2012-12-10T17:32:33-0500
_audit_creation_method            fapswitch 2.2
_symmetry_space_group_name_H-M    P1
_symmetry_Int_Tables_number       1
_space_group_crystal_system       triclinic
_cell_length_a                    12.21188
_cell_length_b                    12.779633
_cell_length_c                    14.123373
_cell_angle_alpha                 92.288048
_cell_angle_beta                  87.233389
_cell_angle_gamma                 94.151749
_cell_volume                      2194.32582859

loop_
_atom_site_label
_atom_site_type_symbol
_atom_type_description
_atom_site_fract_x
_atom_site_fract_y
_atom_site_fract_z
_atom_type_partial_charge
C1    C     C_R   0.522452 0.699359 0.493499 0.872374
C2    C     C_R   0.139797 0.463725 0.453087 0.246893
C3    C     C_R   0.977018 0.530764 0.537061 0.013337
C4    C     C_R   0.022982 0.469235 0.462939 0.013336
C5    C     C_R   0.500661 0.500882 0.670363 0.882027
C6    C     C_R   0.499339 0.499116 0.329637 0.882034
C7    C     C_1   0.501725 0.501460 0.771917 -0.194975
C8    C     C_1   0.498274 0.498534 0.228083 -0.194980
C9    C     C_1   0.501601 0.501313 0.857288 -0.003786
C10   C     C_1   0.498397 0.498678 0.142711 -0.003784
C11   C     C_1   0.500562 0.500444 0.957306 0.024926
C12   C     C_R   0.477548 0.300641 0.506503 0.872363
C13   C     C_1   0.499437 0.499546 0.042694 0.024927
C14   C     C_R   0.462803 0.189484 0.517675 -0.081290
C15   C     C_R   0.537197 0.810516 0.482328 -0.081273
C16   C     C_R   0.585150 0.964175 0.390020 -0.010156
C17   C     C_R   0.414844 0.035825 0.609981 -0.010151
C18   C     C_R   0.588567 0.855089 0.400058 0.122621
C19   C     C_R   0.411431 0.144912 0.599944 0.122619
C20   C     C_R   0.483790 0.870322 0.551443 -0.297459
C21   C     C_R   0.516209 0.129678 0.448560 -0.297451
C22   C     C_3   0.365447 0.213467 0.681344 -0.397707
C23   C     C_R   0.474782 0.976495 0.540927 0.064404
C24   C     C_3   0.445600 0.228381 0.761311 -0.852568
C25   C     C_3   0.634540 0.786533 0.318654 -0.397722
C26   C     C_3   0.554356 0.771591 0.238713 -0.852594
C27   C     C_2   0.640808 0.015641 0.306280 0.394306
C28   C     C_2   0.359171 0.984356 0.693712 0.394322
C29   C     C_3   0.188478 0.395547 0.373704 -0.387907
C30   C     C_3   0.194313 0.449915 0.278710 -0.808073
C31   C     C_3   0.811522 0.604453 0.626296 -0.387908
C32   C     C_3   0.805687 0.550085 0.721290 -0.808071
C33   C     C_2   0.231405 0.639804 0.658836 0.450016
C34   C     C_R   0.525216 0.023505 0.459075 0.064410
C35   C     C_2   0.768595 0.360195 0.341164 0.450025
C36   C     C_R   0.950984 0.414428 0.400833 -0.269286
C37   C     C_R   0.049016 0.585572 0.599167 -0.269287
C38   C     C_R   0.837087 0.420543 0.411324 0.085165
C39   C     C_R   0.162913 0.579457 0.588676 0.085169
C40   C     C_R   0.860203 0.536275 0.546913 0.246893
H1    H     H_    0.554668 0.169116 0.387768 0.130369
H2    H     H_    0.475142 0.732820 0.265456 0.256693
H3    H     H_    0.538683 0.847966 0.209166 0.259837
H4    H     H_    0.589608 0.721388 0.180696 0.262576
H5    H     H_    0.715018 0.820814 0.290777 0.258518
H6    H     H_    0.652213 0.707925 0.340889 0.227512
H7    H     H_    0.594199 0.059756 0.260172 0.062533
H8    H     H_    0.405767 0.940229 0.739821 0.062528
H9    H     H_    0.111150 0.459251 0.253484 0.259981
H10   H     H_    0.237735 0.529043 0.285246 0.273658
H11   H     H_    0.239494 0.402218 0.224490 0.249914
H12   H     H_    0.445331 0.830884 0.612235 0.130360
H13   H     H_    0.270148 0.373538 0.389097 0.262246
H14   H     H_    0.141951 0.317936 0.367804 0.180210
H15   H     H_    0.762265 0.470957 0.714754 0.273659
H16   H     H_    0.888850 0.540749 0.746516 0.259981
H17   H     H_    0.760505 0.597782 0.775510 0.249914
H18   H     H_    0.858049 0.682064 0.632196 0.180211
H19   H     H_    0.729852 0.626462 0.610903 0.262246
H20   H     H_    0.315464 0.665568 0.642724 0.114259
H21   H     H_    0.684536 0.334432 0.357276 0.114260
H22   H     H_    0.981415 0.365111 0.343241 0.206207
H23   H     H_    0.018585 0.634889 0.656759 0.206208
H24   H     H_    0.461232 0.151999 0.790866 0.259839
H25   H     H_    0.524837 0.267130 0.734591 0.256690
H26   H     H_    0.410342 0.278597 0.819315 0.262572
H27   H     H_    0.347807 0.292085 0.659114 0.227504
H28   H     H_    0.284951 0.179200 0.709194 0.258520
N1    N     N_R   0.207800 0.519340 0.515940 -0.155052
N2    N     N_R   0.792200 0.480660 0.484060 -0.155053
O1    O     O_R   0.421690 0.658830 0.504250 -0.628855
O2    O     O_2   0.260387 0.988086 0.709684 -0.541102
O3    O     O_2   0.192994 0.663487 0.737607 -0.574944
O4    O     O_2   0.807006 0.336511 0.262393 -0.574939
O5    O     O_R   0.578310 0.341170 0.495750 -0.628853
O6    O     O_R   0.609320 0.646410 0.494030 -0.644148
O7    O     O_R   0.390680 0.353590 0.505970 -0.644150
O8    O     O_R   0.406170 0.506210 0.631400 -0.622888
O9    O     O_R   0.593830 0.493790 0.368600 -0.622881
O10   O     O_R   0.593790 0.493790 0.621170 -0.601226
O11   O     O_R   0.406210 0.506210 0.378830 -0.601229
O12   O     O_2   0.739592 0.011925 0.290304 -0.541099
Zn1   Zn    Zn3+2 0.374720 0.508290 0.506830 0.910835
Zn2   Zn    Zn3+2 0.625280 0.491710 0.493170 0.910839

loop_
_geom_bond_atom_site_label_1
_geom_bond_atom_site_label_2
_ccdc_geom_bond_type
C15   C18   A    
C30   H11   S    
C4    C36   A    
C35   O4    D    
O10   Zn2   S    
O6    Zn2   S    
C38   N2    A    
C26   H4    S    
C26   H2    S    
C17   C23   A    
C40   N2    A    
C2    C29   S    
C31   H18   S    
O9    Zn2   S    
O5    Zn2   S    
C29   H14   S    
O7    Zn1   S    
C31   C40   S    
C31   H19   S    
C37   H23   S    
O8    Zn1   S    
C1    C15   S    
C2    N1    A    
N2    Zn2   S    
C32   H15   S    
C24   H26   S    
C16   C34   A    
C16   C27   S    
C30   H10   S    
C24   H24   S    
C6    O11   A    
C17   C28   S    
C28   O2    D    
C18   C25   S    
C32   H17   S    
C36   H22   S    
O11   Zn1   S    
C26   H3    S    
O1    Zn1   S    
C15   C20   A    
C37   C39   A    
C19   C22   S    
C5    C7    S    
C6    C8    S    
C21   C34   A    
C25   C26   S    
C2    C4    A    
C29   C30   S    
N1    Zn1   S    
C31   C32   S    
C20   C23   A    
C23   C34   A    
C12   O7    A    
C35   C38   S    
C39   N1    A    
C35   H21   S    
C16   C18   A    
C33   C39   S    
C5    O10   A    
C9    C11   S    
C22   H28   S    
C24   H25   S    
C21   H1    S    
C33   O3    D    
C30   H9    S    
C12   C14   S    
C3    C40   A    
C33   H20   S    
C22   C24   S    
C3    C4    A    
C25   H5    S    
C14   C21   A    
C27   H7    S    
C7    C9    T    
C28   H8    S    
C1    O6    A    
C14   C19   A    
C27   O12   D    
C10   C13   S    
C36   C38   A    
C20   H12   S    
C11   C13   T    
C6    O9    A    
C29   H13   S    
C1    O1    A    
C17   C19   A    
C22   H27   S    
C3    C37   A    
C8    C10   T    
C12   O5    A    
C5    O8    A    
C25   H6    S    
C32   H16   S    
