data_mof_unit_9607.cif
_audit_creation_date              2012-10-26T19:02:36-0400
_audit_creation_method            fapswitch 2.2
_symmetry_space_group_name_H-M    P1
_symmetry_Int_Tables_number       1
_space_group_crystal_system       triclinic
_cell_length_a                    17.133997
_cell_length_b                    8.769856
_cell_length_c                    7.513791
_cell_angle_alpha                 103.207808
_cell_angle_beta                  89.838041
_cell_angle_gamma                 93.96938
_cell_volume                      1096.44193695

loop_
_atom_site_label
_atom_site_type_symbol
_atom_type_description
_atom_site_fract_x
_atom_site_fract_y
_atom_site_fract_z
_atom_type_partial_charge
C1    C     C_R   0.496542 0.200642 0.454600 0.511424
C2    C     C_R   0.777597 0.624632 0.569610 -0.080715
C3    C     C_R   0.141571 0.363675 0.442354 -0.063048
C4    C     C_R   0.858447 0.636173 0.557724 -0.063221
C5    C     C_R   0.104253 0.476494 0.569063 0.006901
C6    C     C_R   0.895749 0.523434 0.430879 0.006831
C7    C     C_R   0.147694 0.597840 0.688848 -0.043368
C8    C     C_R   0.852294 0.402177 0.311007 -0.043329
C9    C     C_R   0.229468 0.611664 0.678244 0.032979
C10   C     C_R   0.770521 0.388362 0.321643 0.032960
C11   C     C_2   0.018964 0.474527 0.566550 -0.000669
C12   C     C_R   0.503455 0.799357 0.545400 0.511424
C13   C     C_2   0.981039 0.525363 0.433336 -0.000654
C14   C     C_2   0.726039 0.251022 0.203361 0.284543
C15   C     C_2   0.273940 0.749059 0.796451 0.284502
C16   C     C_2   0.020578 0.588697 0.285189 0.215617
C17   C     C_2   0.979413 0.411175 0.714661 0.215628
C18   C     C_1   0.438762 0.949412 0.278213 0.227362
C19   C     C_1   0.561228 0.050589 0.721795 0.227397
C20   C     C_2   0.408942 0.379106 0.953175 0.480297
C21   C     C_2   0.591057 0.620896 0.046826 0.480281
C22   C     C_2   0.486263 0.033990 0.434795 -0.081543
C23   C     C_2   0.513732 0.966009 0.565207 -0.081540
C24   C     C_R   0.351340 0.503499 0.526891 0.508639
C25   C     C_R   0.648661 0.496493 0.473107 0.508656
C26   C     C_R   0.266716 0.498564 0.546438 0.006563
C27   C     C_R   0.733286 0.501398 0.453555 0.006522
C28   C     C_R   0.222421 0.375240 0.430484 -0.080691
Cu1   Cu    Cu3+1 0.508700 0.517250 0.683000 1.036316
Cu2   Cu    Cu3+1 0.491300 0.482750 0.317000 1.036310
H1    H     H_    0.250637 0.287721 0.330261 0.155235
H2    H     H_    0.014344 0.394110 0.827982 0.116910
H3    H     H_    0.411175 0.273691 0.846167 0.089902
H4    H     H_    0.588823 0.726315 0.153829 0.089907
H5    H     H_    0.749394 0.712101 0.669921 0.155302
H6    H     H_    0.117194 0.684873 0.784591 0.161900
H7    H     H_    0.882782 0.315193 0.215171 0.161957
H8    H     H_    0.892211 0.730071 0.650666 0.136726
H9    H     H_    0.107818 0.269705 0.349487 0.136803
H10   H     H_    0.664532 0.225347 0.226108 0.135492
H11   H     H_    0.335451 0.774715 0.773718 0.135450
H12   H     H_    0.985602 0.606112 0.172097 0.116823
N1    N     N_2   0.478180 0.456750 0.041980 -0.170980
N2    N     N_2   0.521820 0.543250 0.958020 -0.170970
N3    N     N_1   0.401068 0.882521 0.153496 -0.223377
N4    N     N_1   0.598918 0.117481 0.846519 -0.223372
O1    O     O_R   0.505650 0.286040 0.618880 -0.529778
O2    O     O_2   0.241950 0.837209 0.920372 -0.474213
O3    O     O_2   0.090574 0.626362 0.288588 -0.472773
O4    O     O_2   0.909464 0.373059 0.710945 -0.472728
O5    O     O_2   0.345359 0.426813 0.002237 -0.479588
O6    O     O_2   0.654641 0.573187 0.997768 -0.479669
O7    O     O_R   0.494350 0.713960 0.381120 -0.529777
O8    O     O_R   0.490960 0.256910 0.309800 -0.509988
O9    O     O_R   0.509040 0.743090 0.690200 -0.509979
O10   O     O_R   0.394600 0.516230 0.672450 -0.525275
O11   O     O_R   0.605400 0.483770 0.327550 -0.525293
O12   O     O_R   0.379910 0.487100 0.363380 -0.451424
O13   O     O_R   0.620090 0.512900 0.636620 -0.451435
O14   O     O_2   0.758020 0.162931 0.079368 -0.474160

loop_
_geom_bond_atom_site_label_1
_geom_bond_atom_site_label_2
_ccdc_geom_bond_type
C2    H5    S    
C10   C27   A    
C17   O4    D    
C2    C4    A    
C1    O8    A    
Cu2   O11   S    
C2    C27   A    
Cu1   O10   S    
C24   O10   A    
C21   N2    S    
C14   O14   D    
C7    H6    S    
C19   C23   S    
C12   O7    A    
N1    N2    D    
C25   O13   A    
C9    C15   S    
C19   N4    T    
C3    H9    S    
C1    C22   S    
C6    C13   S    
Cu2   O8    S    
C12   C23   S    
Cu1   Cu2   S    
C25   O11   A    
C15   O2    D    
Cu1   O1    S    
C20   H3    S    
Cu2   O12   S    
C8    C10   A    
C3    C28   A    
C4    H8    S    
C9    C26   A    
C5    C11   S    
C20   O5    D    
C7    C9    A    
C21   O6    D    
Cu1   N2    S    
Cu2   O7    S    
Cu2   N1    S    
C12   O9    A    
C25   C27   S    
C8    H7    S    
C14   H10   S    
C18   N3    T    
C16   H12   S    
C11   C13   D    
C20   N1    S    
C16   O3    D    
C15   H11   S    
C24   O12   A    
C4    C6    A    
C10   C14   S    
C13   C16   S    
C5    C7    A    
C17   H2    S    
C22   C23   D    
C11   C17   S    
C6    C8    A    
C21   H4    S    
Cu1   O9    S    
C18   C22   S    
C26   C28   A    
C28   H1    S    
C1    O1    A    
Cu1   O13   S    
C24   C26   S    
C3    C5    A    
