data_mof_unit_46006.cif
_audit_creation_date              2012-12-10T20:31:00-0500
_audit_creation_method            fapswitch 2.2
_symmetry_space_group_name_H-M    P1
_symmetry_Int_Tables_number       1
_space_group_crystal_system       triclinic
_cell_length_a                    14.904682
_cell_length_b                    10.740104
_cell_length_c                    9.963188
_cell_angle_alpha                 91.061529
_cell_angle_beta                  90.775432
_cell_angle_gamma                 91.713557
_cell_volume                      1593.74039037

loop_
_atom_site_label
_atom_site_type_symbol
_atom_type_description
_atom_site_fract_x
_atom_site_fract_y
_atom_site_fract_z
_atom_type_partial_charge
C1    C     C_R   0.496323 0.260443 0.499035 0.857327
C2    C     C_R   0.906832 0.602530 0.456843 0.078428
C3    C     C_R   0.954227 0.279566 0.562169 -0.223602
C4    C     C_R   0.047054 0.281428 0.559151 0.157096
C5    C     C_R   0.093973 0.391206 0.523488 0.089093
C6    C     C_R   0.047491 0.499434 0.488436 -0.040104
C7    C     C_R   0.094753 0.611277 0.451444 0.094865
C8    C     C_R   0.045068 0.711732 0.399636 0.184344
C9    C     C_R   0.951923 0.707738 0.409477 -0.167011
C10   C     C_R   0.186478 0.395039 0.521804 -0.288113
C11   C     C_R   0.232462 0.505558 0.497017 -0.062506
C12   C     C_R   0.327605 0.501283 0.499202 0.878367
C13   C     C_R   0.189112 0.616629 0.469129 0.131404
C14   C     C_R   0.491331 0.067113 0.620178 0.064768
C15   C     C_R   0.484125 0.128555 0.499128 -0.076470
C16   C     C_R   0.463995 0.060757 0.380637 -0.193843
C17   C     C_R   0.465982 0.931769 0.381926 -0.165546
C18   C     C_R   0.489044 0.871749 0.501416 -0.108316
C19   C     C_R   0.495527 0.940311 0.621397 0.082524
C20   C     C_3   0.565249 0.945927 0.731688 0.282498
C21   C     C_3   0.559176 0.086025 0.730446 -0.487922
C22   C     C_R   0.428242 0.452272 0.068050 0.166339
C23   C     C_R   0.499184 0.739926 0.500794 0.899260
C24   C     C_R   0.564563 0.565015 0.075039 0.225803
C25   C     C_R   0.567961 0.557596 0.931406 0.140927
C26   C     C_R   0.426931 0.455892 0.926670 0.150202
C27   C     C_3   0.383943 0.329158 0.914247 -0.466230
C28   C     C_3   0.389412 0.322357 0.067060 -0.086112
C29   C     C_R   0.672635 0.499473 0.500744 0.916310
C30   C     C_R   0.814548 0.601688 0.464857 -0.245844
C31   C     C_R   0.768005 0.494315 0.501586 -0.054448
C32   C     C_R   0.811807 0.383706 0.531335 0.129910
C33   C     C_R   0.906203 0.385455 0.529097 0.083824
C34   C     C_R   0.953568 0.495703 0.491345 0.022029
H1    H     H_    0.778194 0.684636 0.440723 0.183262
H2    H     H_    0.454221 0.880268 0.288511 0.197717
H3    H     H_    0.530795 0.125998 0.823162 0.204245
H4    H     H_    0.621093 0.135336 0.697707 0.212466
H5    H     H_    0.314578 0.332643 0.872109 0.224257
H6    H     H_    0.426670 0.262012 0.862044 0.198136
H7    H     H_    0.437974 0.253305 0.102880 0.179768
H8    H     H_    0.920608 0.194037 0.591756 0.196568
H9    H     H_    0.224521 0.313241 0.543171 0.174355
H10   H     H_    0.913753 0.785885 0.375231 0.171562
H11   H     H_    0.451857 0.106672 0.286631 0.169358
N1    N     N_R   0.499390 0.499140 0.142800 -0.162834
N2    N     N_R   0.499390 0.499180 0.857150 -0.121420
O1    O     O_R   0.500010 0.316790 0.614690 -0.620113
O2    O     O_R   0.500000 0.316760 0.385350 -0.626105
O3    O     O_R   0.367850 0.499990 0.614680 -0.607283
O4    O     O_R   0.367840 0.499950 0.385340 -0.616688
O5    O     O_R   0.500000 0.683240 0.614650 -0.610765
O6    O     O_R   0.499990 0.683210 0.385310 -0.595424
O7    O     O_R   0.632160 0.500050 0.614660 -0.634084
O8    O     O_R   0.632150 0.500010 0.385320 -0.584249
Zn1   Zn    Zn3+2 0.500010 0.500020 0.653130 0.960257
Zn2   Zn    Zn3+2 0.499990 0.499980 0.346870 0.983064
I1    I     I_    0.513894 0.873408 0.914976 -0.378669
I2    I     I_    0.697381 0.890514 0.674350 -0.415976
I3    I     I_    0.655501 0.691369 0.181742 -0.311852
C35   C     C_3   0.648523 0.609652 0.860885 -0.686035
H12   H     H_    0.693436 0.532777 0.834300 0.236781
H13   H     H_    0.625677 0.660122 0.772662 0.291880
H14   H     H_    0.689714 0.678986 0.918682 0.247380
C36   C     C_3   0.297781 0.311609 0.133843 -0.788534
H15   H     H_    0.306823 0.310746 0.244474 0.251229
H16   H     H_    0.254672 0.390226 0.106516 0.248431
H17   H     H_    0.263419 0.222638 0.101743 0.248450
C37   C     C_3   0.759030 0.264545 0.560697 -0.886577
H18   H     H_    0.778259 0.189296 0.489758 0.257811
H19   H     H_    0.772942 0.236277 0.665380 0.252710
H20   H     H_    0.685743 0.273306 0.548487 0.230855
I4    I     I_    0.109871 0.113478 0.613583 -0.429806
C38   C     C_3   0.242584 0.739218 0.479462 -0.854948
H21   H     H_    0.203965 0.810195 0.534155 0.266728
H22   H     H_    0.304818 0.731567 0.540507 0.228229
H23   H     H_    0.262544 0.771406 0.378804 0.241837
C39   C     C_3   0.085650 0.815306 0.317067 -0.850532
H24   H     H_    0.114573 0.891425 0.382033 0.266810
H25   H     H_    0.136459 0.777949 0.247955 0.245092
H26   H     H_    0.034208 0.857783 0.251960 0.243404

loop_
_geom_bond_atom_site_label_1
_geom_bond_atom_site_label_2
_ccdc_geom_bond_type
C3    H8    S    
C35   H14   S    
C19   C20   S    
C7    C8    A    
C26   C27   S    
C38   H22   S    
C30   H1    S    
C14   C21   S    
C5    C6    A    
C39   H25   S    
C29   O7    A    
C3    C33   A    
C15   C16   A    
C28   H7    S    
O2    Zn2   S    
C35   H13   S    
C18   C19   A    
C37   H19   S    
C21   H4    S    
C27   H5    S    
C16   C17   A    
C36   H16   S    
C38   H23   S    
C23   O6    A    
C1    C15   S    
C17   H2    S    
C25   N2    A    
C2    C34   A    
C22   C28   S    
C8    C39   S    
C37   H18   S    
C33   C34   A    
O7    Zn1   S    
C38   H21   S    
C18   C23   S    
C24   C25   A    
O6    Zn2   S    
C39   H24   S    
C8    C9    A    
C29   O8    A    
O3    Zn1   S    
C6    C34   A    
C37   H20   S    
C31   C32   A    
C27   H6    S    
C24   I3    S    
C36   H17   S    
C17   C18   A    
C25   C35   S    
C13   C38   S    
C20   I2    S    
C4    I4    S    
C6    C7    A    
C26   N2    A    
O4    Zn2   S    
C22   N1    A    
O8    Zn2   S    
N1    Zn2   S    
C20   I1    S    
C3    C4    A    
C12   O4    A    
O1    Zn1   S    
C9    H10   S    
C10   H9    S    
C14   C19   A    
C4    C5    A    
C16   H11   S    
C12   O3    A    
C11   C12   S    
C1    O1    A    
C32   C37   S    
C2    C30   A    
C24   N1    A    
C32   C33   A    
C28   C36   S    
C5    C10   A    
C29   C31   S    
C11   C13   A    
C39   H26   S    
C23   O5    A    
C30   C31   A    
C35   H12   S    
C10   C11   A    
C7    C13   A    
C21   H3    S    
C20   C21   S    
C36   H15   S    
C22   C26   A    
C27   C28   S    
C14   C15   A    
C2    C9    A    
C1    O2    A    
O5    Zn1   S    
N2    Zn1   S    
