data_mof_unit_44528.cif
_audit_creation_date              2012-12-10T16:55:48-0500
_audit_creation_method            fapswitch 2.2
_symmetry_space_group_name_H-M    P1
_symmetry_Int_Tables_number       1
_space_group_crystal_system       triclinic
_cell_length_a                    7.842797
_cell_length_b                    8.559878
_cell_length_c                    10.464943
_cell_angle_alpha                 91.879097
_cell_angle_beta                  85.267643
_cell_angle_gamma                 93.441807
_cell_volume                      698.615473563

loop_
_atom_site_label
_atom_site_type_symbol
_atom_type_description
_atom_site_fract_x
_atom_site_fract_y
_atom_site_fract_z
_atom_type_partial_charge
C1    C     C_R   0.545329 0.794363 0.496834 0.963601
C2    C     C_3   0.503141 0.499970 0.877285 0.032520
C3    C     C_3   0.337799 0.514613 0.049883 -0.131932
C4    C     C_3   0.662201 0.485387 0.950116 -0.131932
C5    C     C_2   0.569179 0.957876 0.494980 -0.378310
C6    C     C_2   0.430821 0.042124 0.505020 -0.378310
C7    C     C_1   0.026150 0.351193 0.379847 0.390855
C8    C     C_1   0.973850 0.648807 0.620153 0.390855
C9    C     C_R   0.454671 0.205637 0.503166 0.963602
C10   C     C_R   0.501282 0.500314 0.742271 0.864112
C11   C     C_R   0.498718 0.499686 0.257729 0.864112
C12   C     C_3   0.442422 0.635528 0.964456 -0.180271
C13   C     C_3   0.557578 0.364472 0.035544 -0.180271
C14   C     C_3   0.601323 0.620958 0.040037 -0.176342
C15   C     C_3   0.398677 0.379042 0.959963 -0.176342
C16   C     C_3   0.496859 0.500030 0.122715 0.032520
H1    H     H_    0.683253 0.719388 0.077675 0.138352
H2    H     H_    0.316746 0.280612 0.922325 0.138352
H3    H     H_    0.396118 0.745731 0.930434 0.138322
H4    H     H_    0.603882 0.254269 0.069566 0.138322
H5    H     H_    0.205659 0.526419 0.094652 0.148510
H6    H     H_    0.794341 0.473581 0.905348 0.148510
H7    H     H_    0.700092 0.008375 0.485353 0.184151
H8    H     H_    0.299908 0.991624 0.514647 0.184151
N1    N     N_2   0.950320 0.457950 0.465730 -0.154048
N2    N     N_2   0.049680 0.542050 0.534270 -0.154048
N3    N     N_1   0.087520 0.261408 0.307598 -0.264913
N4    N     N_1   0.912480 0.738592 0.692402 -0.264913
O1    O     O_R   0.389250 0.738570 0.508410 -0.622662
O2    O     O_R   0.610750 0.261430 0.491590 -0.622662
O3    O     O_R   0.678390 0.711620 0.486450 -0.629690
O4    O     O_R   0.321610 0.288380 0.513550 -0.629690
O5    O     O_R   0.355460 0.513510 0.697030 -0.631337
O6    O     O_R   0.644540 0.486490 0.302970 -0.631337
O7    O     O_R   0.644600 0.486560 0.675070 -0.633182
O8    O     O_R   0.355400 0.513440 0.324930 -0.633182
Zn1   Zn    Zn3+2 0.306940 0.517990 0.514670 0.942264
Zn2   Zn    Zn3+2 0.693060 0.482010 0.485330 0.942264

loop_
_geom_bond_atom_site_label_1
_geom_bond_atom_site_label_2
_ccdc_geom_bond_type
C15   H2    S    
C2    C4    S    
N2    Zn1   S    
C10   O7    A    
N1    Zn2   S    
C4    H6    S    
C11   C16   S    
C5    H7    S    
O3    Zn2   S    
C2    C12   S    
C6    C9    S    
C1    O1    A    
C6    H8    S    
O4    Zn1   S    
C2    C15   S    
C14   H1    S    
C9    O2    A    
C1    C5    S    
C12   H3    S    
C11   O8    A    
C12   C14   S    
C10   O5    A    
C13   C15   S    
C4    C14   S    
C5    C6    D    
C8    N4    T    
C14   C16   S    
C3    H5    S    
C8    N2    S    
C2    C10   S    
C1    O3    A    
O7    Zn2   S    
C7    N3    T    
O2    Zn2   S    
C13   C16   S    
O1    Zn1   S    
C4    C13   S    
O8    Zn1   S    
C3    C15   S    
C3    C12   S    
C9    O4    A    
N1    N2    D    
O6    Zn2   S    
C13   H4    S    
C11   O6    A    
O5    Zn1   S    
C3    C16   S    
C7    N1    S    
