data_mof_unit_36251.cif
_audit_creation_date              2013-03-05T16:17:26-0500
_audit_creation_method            fapswitch 2.2
_symmetry_space_group_name_H-M    P1
_symmetry_Int_Tables_number       1
_space_group_crystal_system       triclinic
_cell_length_a                    30.125464
_cell_length_b                    34.338916
_cell_length_c                    8.666738
_cell_angle_alpha                 89.900389
_cell_angle_beta                  90.258001
_cell_angle_gamma                 89.903442
_cell_volume                      8965.41323834

loop_
_atom_site_label
_atom_site_type_symbol
_atom_site_description
_atom_site_fract_x
_atom_site_fract_y
_atom_site_fract_z
_atom_type_partial_charge
P1    P     P_3+3 0.909970 0.458430 0.077330 0.490113
P2    P     P_3+3 0.909970 0.541570 0.577330 0.486987
P3    P     P_3+3 0.409970 0.958430 0.077330 0.487458
P4    P     P_3+3 0.409970 0.041570 0.577330 0.487748
O1    O     O_2   0.914200 0.445720 0.903420 -0.353305
O2    O     O_2   0.914200 0.554280 0.403420 -0.360342
O3    O     O_2   0.414200 0.945720 0.903420 -0.355907
O4    O     O_2   0.414200 0.054280 0.403420 -0.358736
O5    O     O_3   0.950020 0.480960 0.143730 -0.397931
O6    O     O_3   0.950020 0.519040 0.643730 -0.391521
O7    O     O_3   0.450020 0.980960 0.143730 -0.396740
O8    O     O_3   0.450020 0.019040 0.643730 -0.393049
O9    O     O_3   0.985090 0.412220 0.642040 -0.409704
O10   O     O_3   0.985090 0.587780 0.142040 -0.408154
O11   O     O_3   0.485090 0.912220 0.642040 -0.408515
O12   O     O_3   0.485090 0.087780 0.142040 -0.409444
O13   O     O_2   0.911391 0.382022 0.766214 -0.377574
O14   O     O_2   0.911264 0.618652 0.260272 -0.375673
O15   O     O_2   0.411270 0.881474 0.760873 -0.375206
O16   O     O_2   0.412177 0.119924 0.261096 -0.379010
O17   O     O_3   0.862952 0.488357 0.080728 -0.549252
O18   O     O_3   0.862796 0.511997 0.581857 -0.552053
O19   O     O_3   0.363041 0.988467 0.080176 -0.550824
O20   O     O_3   0.363127 0.011568 0.580646 -0.551012
O21   O     O_3   0.964558 0.330645 0.647365 -0.549173
O22   O     O_3   0.966755 0.669665 0.150390 -0.551175
O23   O     O_3   0.466765 0.830315 0.651966 -0.551924
O24   O     O_3   0.468145 0.169832 0.144089 -0.559745
H1    H     H_    0.017959 0.351113 0.773236 0.177060
H2    H     H_    0.022336 0.647637 0.260344 0.176534
H3    H     H_    0.522046 0.852263 0.763123 0.177104
H4    H     H_    0.521144 0.146983 0.265914 0.176400
C1    C     C_3   0.030814 0.292713 0.695235 -0.501632
C2    C     C_3   0.034708 0.706232 0.183427 -0.502566
C3    C     C_3   0.534653 0.793599 0.687748 -0.503677
C4    C     C_3   0.536272 0.205161 0.190497 -0.551677
H5    H     H_    0.067343 0.295583 0.709739 0.204614
H6    H     H_    0.071345 0.702559 0.188481 0.202165
H7    H     H_    0.571290 0.797149 0.692931 0.202272
H8    H     H_    0.572132 0.200580 0.215511 0.218352
H9    H     H_    0.017659 0.279596 0.802646 0.237649
H10   H     H_    0.024331 0.719048 0.294833 0.239114
H11   H     H_    0.524196 0.780945 0.799473 0.239356
H12   H     H_    0.521513 0.219694 0.292315 0.249842
P5    P     P_3+3 0.089830 0.458070 0.612460 0.533387
P6    P     P_3+3 0.089830 0.541930 0.112460 0.519587
P7    P     P_3+3 0.589830 0.958070 0.612460 0.533871
P8    P     P_3+3 0.589830 0.041930 0.112460 0.509363
P9    P     P_3+3 0.053072 0.374527 0.078822 0.497965
P10   P     P_3+3 0.054059 0.624763 0.575630 0.505286
P11   P     P_3+3 0.553791 0.874953 0.077248 0.499888
P12   P     P_3+3 0.552224 0.125890 0.577091 0.526320
O25   O     O_2   0.085560 0.445380 0.786390 -0.302977
O26   O     O_2   0.085560 0.554620 0.286390 -0.319150
O27   O     O_2   0.585560 0.945380 0.786390 -0.301424
O28   O     O_2   0.585560 0.054620 0.286390 -0.315924
O29   O     O_3   0.014550 0.412170 0.047860 -0.343705
O30   O     O_3   0.014550 0.587830 0.547860 -0.344079
O31   O     O_3   0.514550 0.912170 0.047860 -0.344086
O32   O     O_3   0.514550 0.087830 0.547860 -0.348342
O33   O     O_2   0.083287 0.375917 0.934906 -0.353943
O34   O     O_2   0.084399 0.622066 0.432522 -0.348285
O35   O     O_2   0.584254 0.877342 0.934287 -0.349490
O36   O     O_2   0.584156 0.123267 0.437942 -0.284968
O37   O     O_3   0.144953 0.476168 0.597998 -0.614635
O38   O     O_3   0.143936 0.521558 0.100623 -0.616678
O39   O     O_3   0.644840 0.976451 0.598524 -0.613243
O40   O     O_3   0.643830 0.021278 0.101862 -0.639703
O41   O     O_3   0.026830 0.329096 0.058874 -0.544559
O42   O     O_3   0.029227 0.670650 0.549839 -0.546544
O43   O     O_3   0.528942 0.829125 0.053046 -0.544434
O44   O     O_3   0.525903 0.170852 0.545271 -0.550938
C5    C     C_3   0.983699 0.330157 0.121227 0.489347
C6    C     C_3   0.985822 0.670929 0.609468 0.485120
C7    C     C_3   0.485565 0.829070 0.112805 0.486767
C8    C     C_3   0.483267 0.171063 0.611034 0.465234
H13   H     H_    0.965748 0.357486 0.091604 0.096844
H14   H     H_    0.966955 0.644200 0.578597 0.101496
H15   H     H_    0.466865 0.856034 0.082842 0.100025
H16   H     H_    0.465314 0.143191 0.592131 0.098500
C9    C     C_3   0.956551 0.296946 0.051096 -0.909431
C10   C     C_3   0.960531 0.705078 0.537477 -0.886402
C11   C     C_3   0.459997 0.795331 0.040023 -0.887186
C12   C     C_3   0.455778 0.202718 0.531441 -0.870882
H17   H     H_    0.952343 0.301615 0.925402 0.274178
H18   H     H_    0.926018 0.705750 0.580462 0.251782
H19   H     H_    0.458080 0.799035 0.913532 0.272809
H20   H     H_    0.454167 0.197354 0.405910 0.275950
H21   H     H_    0.973378 0.268577 0.071459 0.272682
H22   H     H_    0.958467 0.701635 0.410934 0.272456
H23   H     H_    0.476318 0.767108 0.067467 0.270173
H24   H     H_    0.470473 0.231889 0.552480 0.264752
C13   C     C_3   0.151655 0.484127 0.162412 0.694482
C14   C     C_3   0.156347 0.513214 0.656424 0.700567
C15   C     C_3   0.651361 0.984021 0.164751 0.703806
C16   C     C_3   0.656062 0.013454 0.657729 0.701732
C17   C     C_3   0.202294 0.477652 0.168490 -0.871807
C18   C     C_3   0.206277 0.519118 0.625337 -0.876577
C19   C     C_3   0.701957 0.977619 0.173783 -0.888029
C20   C     C_3   0.705745 0.019908 0.623784 -0.895219
H25   H     H_    0.218598 0.501626 0.233056 0.235967
H26   H     H_    0.225874 0.494541 0.674284 0.242305
H27   H     H_    0.717960 0.001778 0.238077 0.231042
H28   H     H_    0.725857 0.995236 0.669324 0.245881
H29   H     H_    0.210230 0.449692 0.227396 0.247286
H30   H     H_    0.218155 0.546562 0.679285 0.247330
H31   H     H_    0.709669 0.949805 0.234107 0.251574
H32   H     H_    0.717655 0.047159 0.679173 0.240866
H33   H     H_    0.216817 0.477063 0.051143 0.249480
H34   H     H_    0.212912 0.520425 0.499714 0.246560
H35   H     H_    0.716954 0.976774 0.057173 0.250429
H36   H     H_    0.711648 0.021968 0.497923 0.247471
Ba1   Ba    Ba6+2 0.999930 0.472870 0.844940 1.602322
Ba2   Ba    Ba6+2 0.999930 0.527130 0.344940 1.604648
Ba3   Ba    Ba6+2 0.499930 0.972870 0.844940 1.599885
Ba4   Ba    Ba6+2 0.499930 0.027130 0.344940 1.611652
C21   C     C_3   0.872078 0.523668 0.007557 0.398337
C22   C     C_3   0.870816 0.477451 0.502433 0.402444
C23   C     C_3   0.372257 0.023754 0.007045 0.397564
C24   C     C_3   0.372298 0.976423 0.506666 0.397830
H37   H     H_    0.883333 0.518462 0.887816 0.109606
H38   H     H_    0.882788 0.483658 0.384232 0.111903
H39   H     H_    0.383553 0.018515 0.887389 0.108593
H40   H     H_    0.383422 0.981877 0.386900 0.108297
H41   H     H_    0.897570 0.540138 0.073531 0.111857
H42   H     H_    0.895330 0.459508 0.567187 0.105996
H43   H     H_    0.397738 0.040205 0.073153 0.112728
H44   H     H_    0.397895 0.959811 0.572085 0.112979
C25   C     C_3   0.829438 0.547464 0.001994 -0.884488
C26   C     C_3   0.827271 0.455249 0.490143 -0.889715
C27   C     C_3   0.329626 0.047564 0.001294 -0.883527
C28   C     C_3   0.329698 0.952695 0.501167 -0.882575
H45   H     H_    0.803057 0.530850 0.941176 0.278585
H46   H     H_    0.801484 0.473962 0.435602 0.277418
H47   H     H_    0.303279 0.030980 0.940167 0.278246
H48   H     H_    0.303195 0.969508 0.441290 0.277720
H49   H     H_    0.834749 0.575152 0.939425 0.223315
H50   H     H_    0.831422 0.428942 0.418172 0.221941
H51   H     H_    0.334963 0.075278 0.938991 0.223216
H52   H     H_    0.334944 0.925170 0.437727 0.223094
H53   H     H_    0.818271 0.554135 0.121039 0.260969
H54   H     H_    0.815975 0.446353 0.606802 0.264257
H55   H     H_    0.318382 0.054189 0.120290 0.261798
H56   H     H_    0.318715 0.945720 0.620213 0.262174
O45   O     O_3   0.049930 0.518940 0.045960 -0.348109
O46   O     O_3   0.049930 0.481060 0.545960 -0.348546
O47   O     O_3   0.549930 0.018940 0.045960 -0.345058
O48   O     O_3   0.549930 0.981060 0.545960 -0.349305
P13   P     P_3+3 0.943484 0.623339 0.123010 0.432009
P14   P     P_3+3 0.942389 0.377651 0.625654 0.435929
P15   P     P_3+3 0.443946 0.123670 0.121980 0.425644
P16   P     P_3+3 0.443492 0.876696 0.623685 0.431487
C29   C     C_3   0.010695 0.333287 0.669986 0.289633
C30   C     C_3   0.013207 0.666180 0.160571 0.284761
C31   C     C_3   0.513183 0.833696 0.663482 0.283854
C32   C     C_3   0.514244 0.165479 0.164060 0.345249
H57   H     H_    0.026991 0.346757 0.568882 0.061075
H58   H     H_    0.027054 0.653056 0.054696 0.056933
H59   H     H_    0.527273 0.846740 0.557755 0.060070
H60   H     H_    0.529492 0.151740 0.061874 0.047469
H61   H     H_    0.922867 0.295999 0.102669 0.230164
H62   H     H_    0.977167 0.733069 0.565205 0.270265
H63   H     H_    0.425442 0.794970 0.082615 0.251474
H64   H     H_    0.421261 0.202177 0.574279 0.247307
H65   H     H_    0.734232 0.338960 0.857569 0.205978
H66   H     H_    0.700409 0.650386 0.546901 0.209538
H67   H     H_    0.200207 0.849718 0.047366 0.210220
H68   H     H_    0.199605 0.150148 0.552260 0.210405
C33   C     C_R   0.924020 0.411402 0.330102 -0.553891
C34   C     C_R   0.924898 0.590070 0.825859 -0.550974
C35   C     C_R   0.424741 0.909814 0.326134 -0.552056
C36   C     C_R   0.424916 0.090159 0.825613 -0.552945
C37   C     C_R   0.237400 0.699477 0.105642 -0.035303
C38   C     C_R   0.236355 0.300390 0.607631 -0.033915
C39   C     C_R   0.715192 0.211318 0.190967 -0.022621
C40   C     C_R   0.736879 0.800571 0.606792 -0.035002
C41   C     C_R   0.205579 0.671153 0.062939 0.546455
C42   C     C_R   0.204342 0.328695 0.565487 0.545705
C43   C     C_R   0.680418 0.185264 0.154424 0.524254
C44   C     C_R   0.704885 0.828905 0.564758 0.546945
O49   O     O_2   0.214782 0.636625 0.076189 -0.571277
O50   O     O_2   0.213385 0.363230 0.578232 -0.572186
O51   O     O_2   0.668037 0.162575 0.253682 -0.551133
O52   O     O_2   0.713848 0.863429 0.578590 -0.571618
N1    N     N_R   0.164653 0.682061 0.003080 -0.167719
N2    N     N_R   0.163387 0.317755 0.506657 -0.168050
N3    N     N_R   0.660446 0.185630 0.008694 -0.166217
N4    N     N_R   0.664046 0.818009 0.504821 -0.168292
C45   C     C_R   0.154776 0.721339 0.984116 0.560546
C46   C     C_R   0.153564 0.278504 0.488596 0.563114
C47   C     C_R   0.672058 0.215799 0.907747 0.594937
C48   C     C_R   0.654349 0.778775 0.485318 0.560121
O53   O     O_2   0.119482 0.730573 0.925094 -0.555646
O54   O     O_2   0.118183 0.269307 0.430498 -0.555361
O55   O     O_2   0.662291 0.213881 0.771395 -0.536265
O56   O     O_2   0.619101 0.769619 0.426133 -0.555406
C49   C     C_R   0.185363 0.750870 0.030950 -0.217973
C50   C     C_R   0.184331 0.248982 0.535086 -0.218956
C51   C     C_R   0.697966 0.247945 0.958388 -0.222702
C52   C     C_R   0.685078 0.749223 0.531694 -0.217745
C53   C     C_R   0.227428 0.739458 0.088874 -0.035226
C54   C     C_R   0.226496 0.260410 0.591533 -0.035690
C55   C     C_R   0.722722 0.243682 0.095293 -0.033905
C56   C     C_R   0.727101 0.760608 0.589531 -0.035588
C57   C     C_R   0.279301 0.688543 0.163988 -0.112791
C58   C     C_R   0.278332 0.311340 0.664644 -0.113924
C59   C     C_R   0.742590 0.205777 0.321364 -0.073563
C60   C     C_R   0.778760 0.811477 0.664810 -0.112226
C61   C     C_R   0.778068 0.230974 0.351182 -0.099079
C62   C     C_R   0.810505 0.783470 0.704162 -0.110121
C63   C     C_R   0.310853 0.716531 0.204200 -0.110342
C64   C     C_R   0.310093 0.283362 0.704122 -0.112510
C65   C     C_R   0.784810 0.264282 0.259216 -0.021156
C66   C     C_R   0.801533 0.743502 0.687177 -0.029068
C67   C     C_R   0.301701 0.756524 0.187628 -0.028726
C68   C     C_R   0.301066 0.243378 0.688099 -0.026675
C69   C     C_R   0.755600 0.271541 0.135939 -0.002651
C70   C     C_R   0.759720 0.732026 0.629896 -0.010112
C71   C     C_R   0.259886 0.768029 0.129903 -0.009812
C72   C     C_R   0.259166 0.231855 0.631771 -0.010193
C73   C     C_R   0.175924 0.791485 0.019094 0.391523
C74   C     C_R   0.174990 0.208375 0.524174 0.391135
C75   C     C_R   0.702404 0.283098 0.872221 0.387309
C76   C     C_R   0.675837 0.708629 0.519309 0.392278
C77   C     C_R   0.732188 0.312010 0.922362 -0.199461
C78   C     C_R   0.708535 0.680995 0.557734 -0.194498
C79   C     C_R   0.208488 0.819101 0.057888 -0.193108
C80   C     C_R   0.207785 0.180768 0.562050 -0.192966
C81   C     C_R   0.759482 0.306342 0.052569 -0.100173
C82   C     C_R   0.750508 0.692105 0.613311 -0.113495
C83   C     C_R   0.250506 0.807967 0.113600 -0.114297
C84   C     C_R   0.249912 0.191920 0.616100 -0.114665
C85   C     C_R   0.789672 0.335217 0.103826 0.581516
C86   C     C_R   0.783101 0.664016 0.655353 0.573416
C87   C     C_R   0.282967 0.836044 0.156031 0.573947
C88   C     C_R   0.282607 0.163862 0.657646 0.574340
N5    N     N_R   0.821959 0.326733 0.215310 -0.162789
N6    N     N_R   0.824527 0.675395 0.710060 -0.164812
N7    N     N_R   0.324415 0.824648 0.211187 -0.164842
N8    N     N_R   0.324126 0.175283 0.711385 -0.164862
C89   C     C_R   0.820599 0.290053 0.285806 0.518457
C90   C     C_R   0.833586 0.714914 0.726571 0.507102
C91   C     C_R   0.333580 0.785099 0.227833 0.506598
C92   C     C_R   0.333153 0.214826 0.727561 0.503927
C93   C     C_2   0.113726 0.651502 0.806405 -0.246425
C94   C     C_2   0.113019 0.348563 0.308758 -0.230406
C95   C     C_2   0.602459 0.156373 0.826015 -0.274874
C96   C     C_2   0.613693 0.848926 0.307218 -0.227224
C97   C     C_3   0.089499 0.617857 0.755052 0.359849
C98   C     C_3   0.088841 0.382257 0.256437 0.343339
C99   C     C_3   0.585610 0.121052 0.761418 0.352890
C100  C     C_3   0.589286 0.882540 0.255588 0.342722
C101  C     C_1   0.092260 0.589591 0.012852 0.295976
C102  C     C_1   0.091108 0.410271 0.514434 0.302980
C103  C     C_1   0.593659 0.088413 0.006595 0.261640
C104  C     C_1   0.591357 0.910316 0.513957 0.300875
C105  C     C_2   0.119977 0.619339 0.063798 -0.232754
C106  C     C_2   0.118231 0.380186 0.566845 -0.223249
C107  C     C_2   0.626419 0.115348 0.045978 -0.174191
C108  C     C_2   0.618700 0.880314 0.565827 -0.228108
C109  C     C_2   0.132654 0.652015 0.956600 0.113406
C110  C     C_2   0.131324 0.347758 0.459723 0.108641
C111  C     C_2   0.629995 0.153837 0.960006 0.073109
C112  C     C_2   0.631978 0.848037 0.458182 0.107395
C113  C     C_R   0.873470 0.356296 0.404540 -0.209985
C114  C     C_R   0.877907 0.648306 0.894730 -0.224607
C115  C     C_R   0.377807 0.851664 0.395758 -0.224247
C116  C     C_R   0.377922 0.148346 0.894975 -0.224623
C117  C     C_R   0.910727 0.382307 0.444128 0.217880
C118  C     C_R   0.913101 0.620306 0.937959 0.219211
C119  C     C_R   0.412991 0.879628 0.438644 0.219708
C120  C     C_R   0.413228 0.120413 0.937711 0.222053
C121  C     C_R   0.903124 0.413326 0.193793 0.287666
C122  C     C_R   0.902300 0.586893 0.692743 0.292575
C123  C     C_R   0.402069 0.913123 0.193229 0.290587
C124  C     C_R   0.402043 0.086824 0.693099 0.290178
C125  C     C_R   0.872154 0.384230 0.151793 -0.226753
C126  C     C_R   0.869566 0.615046 0.653470 -0.215224
C127  C     C_R   0.369308 0.885059 0.154295 -0.215056
C128  C     C_R   0.369131 0.114887 0.654329 -0.215839
C129  C     C_R   0.856400 0.355559 0.258754 0.093373
C130  C     C_R   0.857943 0.646206 0.754543 0.115319
C131  C     C_R   0.357762 0.853833 0.255575 0.115438
C132  C     C_R   0.357655 0.146123 0.755345 0.112863
O57   O     O_2   0.786171 0.368062 0.051167 -0.579256
O58   O     O_2   0.774165 0.629407 0.645773 -0.571453
O59   O     O_2   0.273887 0.870656 0.146353 -0.570322
O60   O     O_2   0.273676 0.129244 0.648538 -0.570577
O61   O     O_2   0.850977 0.279162 0.369137 -0.596409
O62   O     O_2   0.869730 0.725384 0.775470 -0.610777
O63   O     O_2   0.369672 0.774574 0.277511 -0.610780
O64   O     O_2   0.369302 0.225359 0.776215 -0.611285
C133  C     C_2   0.068581 0.596809 0.878640 -0.468450
C134  C     C_2   0.067680 0.403280 0.379584 -0.501802
C135  C     C_2   0.567350 0.096546 0.878985 -0.453947
C136  C     C_2   0.567937 0.903274 0.379083 -0.504390
H69   H     H_    0.799517 0.224860 0.448941 0.169644
H70   H     H_    0.842278 0.793324 0.748022 0.178042
H71   H     H_    0.342632 0.706637 0.248338 0.177781
H72   H     H_    0.341936 0.293254 0.747222 0.176517
H73   H     H_    0.860506 0.338221 0.495825 0.199025
H74   H     H_    0.868685 0.670688 0.976370 0.182257
H75   H     H_    0.368679 0.829257 0.477605 0.182464
H76   H     H_    0.368827 0.170763 0.976637 0.182869
H77   H     H_    0.287979 0.658125 0.178500 0.176702
H78   H     H_    0.286908 0.341759 0.678611 0.175987
H79   H     H_    0.737838 0.181003 0.397034 0.176161
H80   H     H_    0.787278 0.841882 0.679628 0.176790
H81   H     H_    0.133207 0.618711 0.180311 0.209052
H82   H     H_    0.131236 0.380655 0.683645 0.209093
H83   H     H_    0.653735 0.105211 0.117277 0.200115
H84   H     H_    0.631678 0.880709 0.682656 0.209352
H85   H     H_    0.122764 0.673747 0.723209 0.182395
H86   H     H_    0.122639 0.326505 0.225746 0.178758
H87   H     H_    0.594359 0.183738 0.770467 0.211961
H88   H     H_    0.623405 0.826993 0.223824 0.179159
H89   H     H_    0.860109 0.384990 0.034511 0.209821
H90   H     H_    0.852621 0.612348 0.543666 0.183158
H91   H     H_    0.352342 0.887842 0.044510 0.183308
H92   H     H_    0.352005 0.112103 0.544898 0.182769
H93   H     H_    0.948216 0.433142 0.362966 0.176970
H94   H     H_    0.949695 0.568674 0.857842 0.176484
H95   H     H_    0.449590 0.931103 0.357680 0.175154
H96   H     H_    0.449878 0.068871 0.857135 0.176305
H97   H     H_    0.034363 0.587294 0.868898 0.154494
H98   H     H_    0.033630 0.413271 0.368527 0.159362
H99   H     H_    0.533764 0.085383 0.870351 0.159520
H100  H     H_    0.533665 0.912699 0.368792 0.157976
N9    N     N_3   0.021638 0.266568 0.566162 -0.115974
H101  H     H_    0.987315 0.263059 0.554520 0.194772
H102  H     H_    0.033469 0.279225 0.464743 0.205222
N10   N     N_3   0.023466 0.733283 0.058865 -0.115062
H103  H     H_    0.989021 0.736918 0.054020 0.192679
H104  H     H_    0.033759 0.721357 0.954179 0.204168
N11   N     N_3   0.523463 0.766441 0.563984 -0.115410
H105  H     H_    0.489034 0.762766 0.559560 0.192589
H106  H     H_    0.533604 0.778297 0.458892 0.205388
N12   N     N_3   0.531816 0.230770 0.056497 -0.164015
H107  H     H_    0.498138 0.234598 0.030879 0.199253
H108  H     H_    0.546841 0.217495 0.961728 0.151557
N13   N     N_R   0.132986 0.805658 0.973928 0.268338
O65   O     O_R   0.098860 0.798569 0.061022 -0.327377
O66   O     O_R   0.129730 0.832320 0.867611 -0.348887
N14   N     N_R   0.131937 0.194206 0.481148 0.268357
O67   O     O_R   0.098046 0.201593 0.568996 -0.327019
O68   O     O_R   0.128406 0.167275 0.376419 -0.348450
N15   N     N_R   0.674854 0.291348 0.740404 0.266516
O69   O     O_R   0.631981 0.287487 0.749911 -0.333159
O70   O     O_R   0.691513 0.309019 0.621053 -0.373394
N16   N     N_R   0.632988 0.694492 0.473812 0.268124
O71   O     O_R   0.598827 0.701269 0.561161 -0.328584
O72   O     O_R   0.629882 0.668158 0.366553 -0.350626
N17   N     N_3   0.986409 0.325245 0.288167 -0.196634
H109  H     H_    0.955066 0.318474 0.331617 0.137524
H110  H     H_    0.994779 0.352224 0.334621 0.048094
N18   N     N_3   0.987892 0.675657 0.776549 -0.199148
H111  H     H_    0.994329 0.648279 0.823616 0.040406
H112  H     H_    0.956864 0.684128 0.818096 0.144796
N19   N     N_3   0.487711 0.823883 0.279696 -0.197978
H113  H     H_    0.456660 0.815556 0.321290 0.144875
H114  H     H_    0.494402 0.851087 0.327346 0.043425
N20   N     N_3   0.486954 0.179484 0.775591 -0.200767
H115  H     H_    0.496037 0.153611 0.830330 0.038805
H116  H     H_    0.455766 0.186862 0.818954 0.154204
N21   N     N_3   0.135585 0.482265 0.316361 -0.190169
H117  H     H_    0.145556 0.508554 0.363074 0.173001
H118  H     H_    0.100996 0.482343 0.315335 0.146238
N22   N     N_3   0.150321 0.513810 0.819219 -0.189206
H119  H     H_    0.166952 0.489304 0.860571 0.156532
H120  H     H_    0.116594 0.510020 0.840041 0.160690
N23   N     N_3   0.634444 0.982301 0.317609 -0.189069
H121  H     H_    0.643801 0.008744 0.364707 0.172045
H122  H     H_    0.599863 0.982048 0.314338 0.145620
N24   N     N_3   0.650961 0.013463 0.820968 -0.197225
H123  H     H_    0.668354 0.989181 0.860913 0.156831
H124  H     H_    0.617443 0.008986 0.843334 0.166287
N25   N     N_R   0.130224 0.453990 0.071296 0.198839
O73   O     O_R   0.087342 0.452687 0.071089 -0.361997
O74   O     O_R   0.152682 0.425461 0.010458 -0.413514
N26   N     N_R   0.130608 0.544694 0.586346 0.196800
O75   O     O_R   0.087923 0.545180 0.602564 -0.377661
O76   O     O_R   0.150138 0.574034 0.519756 -0.410227
N27   N     N_R   0.630443 0.953894 0.072579 0.199610
O77   O     O_R   0.587568 0.952751 0.069464 -0.361090
O78   O     O_R   0.653220 0.925539 0.011915 -0.413171
N28   N     N_R   0.629597 0.044976 0.590778 0.197829
O79   O     O_R   0.587102 0.045599 0.612341 -0.382892
O80   O     O_R   0.648582 0.074686 0.524913 -0.386543

loop_
_geom_bond_atom_site_label_1
_geom_bond_atom_site_label_2
_geom_bond_distance
_ccdc_geom_bond_type
C28   H56   1.110765 S    
C19   H27   1.109786 S    
C113  H73   1.079622 S    
C115  H75   1.082299 S    
C2    H10   1.107866 S    
C39   C59   1.408885 A    
C108  C112  1.504743 S    
C113  C129  1.362275 D    
C46   C50   1.428706 A    
C105  C109  1.506329 S    
O5    Ba2   2.794508 S    
C30   H58   1.106041 S    
C107  C111  1.520346 S    
C3    H7    1.111353 S    
C15   C19   1.541254 S    
C57   C63   1.396370 A    
N8    C92   1.392448 Am   
C37   C53   1.412001 A    
C14   N22   1.423517 S    
C34   H94   1.081810 S    
C85   N5    1.397869 Am   
O17   C21   1.395725 S    
C124  C128  1.420302 A    
O42   C6    1.408210 S    
C127  C131  1.428954 A    
P4    O8    1.540932 S    
P11   O35   1.547317 D    
O8    Ba3   2.788187 S    
C17   H29   1.111753 S    
C128  H92   1.082069 S    
P9    O41   1.758533 S    
C26   H46   1.110774 S    
P11   O43   1.756299 S    
C5    C9    1.529693 S    
N22   H119  1.040929 S    
N17   H110  1.041691 S    
O25   Ba1   2.794347 S    
Ba4   O48   2.786672 S    
C91   O63   1.221507 D    
C95   H87   1.082116 S    
O20   C24   1.395367 S    
O40   C15   1.407381 S    
C55   C69   1.421780 A    
C15   N27   1.451215 S    
C53   C71   1.430528 A    
C106  H82   1.083953 S    
C15   N23   1.422733 S    
N11   H106  1.044161 S    
P6    Ba2   3.420946 S    
C18   H26   1.111559 S    
Ba3   O48   3.015993 S    
C61   C65   1.408474 A    
C52   C76   1.426052 A    
Ba1   O46   3.015993 S    
N2    C46   1.389369 Am   
N28   O80   1.302548 A    
N6    C130  1.469152 S    
P2    C122  1.866101 S    
C75   N15   1.436591 S    
C17   H25   1.110246 S    
O28   Ba4   2.796693 S    
C42   O50   1.222330 D    
O6    Ba1   2.788187 S    
N1    C45   1.390023 Am   
C25   H45   1.110718 S    
P9    C98   1.894366 S    
C96   C100  1.437199 A    
C59   H79   1.083327 S    
C4    H12   1.108943 S    
N27   O77   1.292448 A    
C26   H50   1.105905 S    
C27   H55   1.110766 S    
C45   C49   1.429472 A    
O18   C22   1.393845 S    
O1    Ba1   2.795434 S    
O22   P13   1.755543 S    
C12   H20   1.104607 S    
C4    N12   1.461053 S    
Ba4   O47   3.016361 S    
C23   H39   1.107793 S    
C11   H23   1.110896 S    
C73   C79   1.405713 A    
C18   H30   1.111734 S    
O16   P15   1.548046 D    
C66   C90   1.416102 A    
C40   C60   1.407636 A    
P10   O42   1.756618 S    
C99   C135  1.432675 A    
P7    C104  1.850649 S    
C62   C66   1.407100 A    
P2    O18   1.748620 S    
P2    Ba2   3.419794 S    
O26   Ba2   2.796693 S    
O10   P13   1.755412 S    
C82   C86   1.421095 A    
O12   P15   1.754295 S    
C48   C52   1.428424 A    
N16   O71   1.301195 A    
C35   C123  1.341046 D    
O4    Ba4   2.793112 S    
C89   O61   1.221020 D    
N11   H105  1.045591 S    
C42   N2    1.385597 Am   
C58   C64   1.395870 A    
H2    C30   1.106432 S    
C25   H53   1.110773 S    
C2    N10   1.461209 S    
N19   H113  1.044190 S    
C38   C58   1.407581 A    
C5    H13   1.111449 S    
N7    C91   1.392520 Am   
N21   H117  1.034509 S    
C7    H15   1.112731 S    
C95   C111  1.426512 A    
C44   O52   1.222316 D    
N26   O75   1.294255 A    
C96   C112  1.417573 A    
C79   C83   1.404921 A    
O23   P16   1.755432 S    
C133  H97   1.084848 S    
C20   H28   1.111566 S    
C93   C109  1.418913 A    
C94   H86   1.085495 S    
N2    C110  1.466833 S    
N20   H116  1.044444 S    
O30   Ba2   2.764110 S    
C3    C31   1.534023 S    
P13   C118  1.846205 S    
C11   H63   1.106134 S    
O19   C23   1.395408 S    
C1    C29   1.533397 S    
N20   H115  1.042040 S    
Ba3   Ba4   4.713984 S    
C84   C88   1.421435 A    
P9    O29   1.755150 S    
C16   N28   1.461087 S    
C22   H38   1.108047 S    
C54   C72   1.429734 A    
C3    N11   1.461208 S    
N24   H123  1.041868 S    
O2    Ba2   2.793112 S    
P12   O32   1.750412 S    
H4    C32   1.105346 S    
C116  C120  1.476593 S    
C122  C126  1.419693 A    
C50   C54   1.415479 A    
C23   C27   1.521874 S    
C3    H11   1.107871 S    
P6    C101  1.850740 S    
C28   H48   1.110726 S    
P8    Ba4   3.420946 S    
C114  C130  1.355330 D    
P5    O25   1.574280 D    
C108  H84   1.083858 S    
N9    H102  1.044306 S    
C106  C110  1.504282 S    
H65   C77   1.083637 S    
N13   O66   1.301102 A    
C20   H32   1.111736 S    
C31   H59   1.105955 S    
C32   H60   1.105575 S    
P3    O7    1.543973 S    
N10   H103  1.045592 S    
C66   C70   1.408960 A    
O29   Ba1   2.758374 S    
C10   H62   1.110903 S    
C78   C82   1.404715 A    
C56   C70   1.429616 A    
C14   N26   1.459213 S    
C34   C118  1.467495 S    
C17   H33   1.109152 S    
C52   C56   1.415402 A    
C19   H35   1.109275 S    
N18   H112  1.044256 S    
C25   H49   1.105968 S    
P8    C103  1.843750 S    
C5    N17   1.458239 S    
P11   C100  1.894112 S    
O38   C13   1.410119 S    
C16   N24   1.423755 S    
C13   N25   1.453224 S    
N12   H108  1.044607 S    
P5    O37   1.778952 S    
C101  C133  1.383560 A    
O32   Ba4   2.764110 S    
C13   C17   1.541905 S    
C93   C97   1.437799 A    
C87   N7    1.390340 Am   
C8    H16   1.112153 S    
Ba2   O45   3.016361 S    
C71   C83   1.406526 A    
N4    C112  1.466818 S    
H68   C80   1.083736 S    
C6    N18   1.458466 S    
C75   C77   1.407314 A    
P3    C123  1.866571 S    
C95   C99   1.429686 A    
C97   C133  1.439338 A    
N5    C89   1.399714 Am   
N4    C48   1.389486 Am   
C7    N19   1.458149 S    
O39   C16   1.412184 S    
C41   O49   1.222248 D    
C16   C20   1.542937 S    
C81   C85   1.417259 A    
C26   H54   1.110729 S    
C47   O55   1.218432 D    
N25   O74   1.303168 A    
C27   H51   1.105690 S    
C101  C105  1.391688 A    
C40   C44   1.414468 A    
N14   O67   1.301223 A    
O24   P15   1.756278 S    
N8    C132  1.469650 S    
C59   C61   1.399720 A    
C135  H99   1.084904 S    
C83   C87   1.422061 A    
C12   H24   1.110893 S    
C21   H41   1.111387 S    
C9    H17   1.107502 S    
C23   H43   1.111425 S    
C68   C92   1.416090 A    
C11   H19   1.104645 S    
C18   H34   1.108668 S    
C40   C56   1.412113 A    
O13   P14   1.545633 D    
C36   C120  1.467114 S    
C8    C12   1.527215 S    
N22   H120  1.041079 S    
N17   H109  1.044528 S    
P7    Ba3   3.420631 S    
C49   C73   1.426329 A    
P1    Ba1   3.420103 S    
P1    O1    1.575532 D    
C48   O56   1.219134 D    
C1    N9    1.461283 S    
O9    P14   1.757306 S    
P6    O38   1.776122 S    
P3    O3    1.575532 D    
P4    O20   1.748915 S    
P15   C120  1.845796 S    
C90   O62   1.221556 D    
C43   N3    1.396565 Am   
C14   C18   1.542957 S    
P16   C119  1.847203 S    
N23   H121  1.035218 S    
P8    O47   1.548793 S    
Ba3   O47   2.792984 S    
C38   C54   1.412142 A    
C41   N1    1.386175 Am   
C35   H95   1.081781 S    
C86   N6    1.389938 Am   
Ba1   O45   2.792984 S    
O31   Ba3   2.758374 S    
C113  C117  1.475194 S    
C70   C82   1.406575 A    
C44   N4    1.385626 Am   
C115  C119  1.478127 S    
C85   O57   1.220192 D    
O41   C5    1.409914 S    
C38   C42   1.414441 A    
C74   N14   1.434016 S    
C94   C110  1.417752 A    
C116  H76   1.082324 S    
P5    C102  1.849929 S    
C9    H21   1.110872 S    
P7    O27   1.574280 D    
C24   C28   1.521933 S    
C51   C55   1.405883 A    
C6    C10   1.528088 S    
O12   Ba4   2.758008 S    
O11   P16   1.757203 S    
C36   C124  1.341821 D    
C2    C30   1.533975 S    
O23   C31   1.406471 S    
P9    O33   1.548120 D    
O21   C29   1.405866 S    
P10   O30   1.756876 S    
C68   C72   1.408883 A    
P1    O5    1.543973 S    
C103  C135  1.385488 A    
P12   O36   1.548673 D    
N15   O69   1.301530 A    
C104  C136  1.384464 A    
P3    O19   1.748902 S    
C10   H18   1.106262 S    
P1    C121  1.859494 S    
C121  C125  1.415115 A    
C76   C78   1.405145 A    
C123  C127  1.420526 A    
C62   H70   1.083269 S    
C22   C26   1.521800 S    
C67   C71   1.408953 A    
H67   C79   1.083731 S    
C115  C131  1.356160 D    
P6    O26   1.575609 D    
C33   C121  1.337586 D    
P8    O40   1.776375 S    
N16   O72   1.301150 A    
O7    Ba4   2.794508 S    
C20   H36   1.108150 S    
C76   N16   1.433772 S    
C51   C75   1.425147 A    
C80   C84   1.404826 A    
C4    C32   1.533760 S    
N26   O76   1.302818 A    
Ba1   Ba2   4.713984 S    
C125  C129  1.433954 A    
C136  H100  1.084725 S    
C9    H61   1.111169 S    
P4    Ba4   3.419794 S    
N10   H104  1.044231 S    
C64   H72   1.083273 S    
H3    C31   1.106319 S    
C24   H44   1.111292 S    
C28   H52   1.105759 S    
C19   H31   1.111751 S    
C67   C91   1.417002 A    
C10   H22   1.104756 S    
C1    H9    1.108597 S    
C65   C89   1.414328 A    
N28   O79   1.294721 A    
C39   C55   1.404795 A    
P3    Ba3   3.420103 S    
C7    C11   1.527942 S    
O27   Ba3   2.794347 S    
C96   H88   1.085486 S    
C29   H57   1.107256 S    
N24   H124  1.040661 S    
C36   H96   1.081729 S    
P5    Ba1   3.420631 S    
C6    H14   1.112794 S    
C37   C57   1.407844 A    
C63   C67   1.407244 A    
C134  H98   1.084867 S    
P1    O17   1.748952 S    
C98   C134  1.440075 A    
N9    H101  1.045627 S    
C35   C119  1.466770 S    
P4    O4    1.574200 D    
N13   O65   1.301205 A    
C116  C132  1.355307 D    
P12   O44   1.755261 S    
C60   H80   1.083297 S    
C50   C74   1.426205 A    
C47   C51   1.421907 A    
C27   H47   1.110726 S    
N21   H118  1.041988 S    
P6    O45   1.548793 S    
C126  H90   1.082074 S    
C102  C106  1.390459 A    
C104  C108  1.390752 A    
O3    Ba3   2.795434 S    
C21   H37   1.107914 S    
C105  H81   1.084085 S    
C69   C81   1.400744 A    
C107  H83   1.083457 S    
C92   O64   1.221615 D    
C64   C68   1.407114 A    
N23   H122  1.042093 S    
C8    N20   1.459464 S    
C49   C53   1.415387 A    
C88   O60   1.221849 D    
C74   C80   1.405463 A    
O14   P13   1.547114 D    
N5    C129  1.483015 S    
C125  H89   1.077990 S    
C61   H69   1.083253 S    
C12   H64   1.105882 S    
C127  H91   1.082052 S    
O10   Ba2   2.758008 S    
C58   H78   1.083294 S    
P2    O2    1.574200 D    
P14   C117  1.842702 S    
P7    O39   1.778873 S    
C43   O51   1.219722 D    
C103  C107  1.395367 A    
C72   C84   1.406543 A    
C73   N13   1.433847 S    
P5    O46   1.545706 S    
P4    C124  1.866778 S    
C4    H8    1.111753 S    
Ba2   O46   2.786672 S    
C114  C118  1.476710 S    
C65   C69   1.402799 A    
C39   C43   1.413956 A    
C86   O58   1.221877 D    
N7    C131  1.470669 S    
C88   N8    1.390052 Am   
C13   N21   1.422766 S    
O21   P14   1.755298 S    
N27   O78   1.303121 A    
C114  H74   1.082343 S    
C45   O53   1.219053 D    
N15   O70   1.301364 A    
C87   O59   1.221828 D    
C37   C41   1.415329 A    
H66   C78   1.083741 S    
O15   P16   1.547056 D    
O44   C8    1.407558 S    
N19   H114  1.041660 S    
N25   O73   1.292693 A    
P10   C97   1.896582 S    
C60   C62   1.395935 A    
O37   C14   1.412307 S    
N14   O68   1.301063 A    
C33   C117  1.461731 S    
P10   O34   1.546801 D    
O22   C30   1.406662 S    
P11   O31   1.756905 S    
P2    O6    1.540932 S    
C21   C25   1.521789 S    
H1    C29   1.106302 S    
C94   C98   1.437794 A    
P8    O28   1.575609 D    
P7    O48   1.545706 S    
C33   H93   1.081881 S    
C2    H6    1.111329 S    
N3    C47   1.400663 Am   
C128  C132  1.428709 A    
C102  C134  1.384113 A    
C63   H71   1.083261 S    
N6    C90   1.392135 Am   
C93   H85   1.085376 S    
O43   C7    1.407808 S    
N1    C109  1.468780 S    
C34   C122  1.341618 D    
N3    C111  1.487596 S    
N18   H111  1.041731 S    
C1    H5    1.111623 S    
O11   Ba3   2.763757 S    
P12   C99   1.890836 S    
O9    Ba1   2.763757 S    
C46   O54   1.219078 D    
C77   C81   1.406316 A    
N12   H107  1.045634 S    
C126  C130  1.428157 A    
O24   C32   1.406420 S    
C22   H42   1.110629 S    
C57   H77   1.083281 S    
C24   H40   1.107906 S    
C100  C136  1.439942 A    
