data_mof_unit_19851.cif
_audit_creation_date              2012-12-10T20:36:40-0500
_audit_creation_method            fapswitch 2.2
_symmetry_space_group_name_H-M    P1
_symmetry_Int_Tables_number       1
_space_group_crystal_system       triclinic
_cell_length_a                    10.494942
_cell_length_b                    10.71565
_cell_length_c                    9.901071
_cell_angle_alpha                 90.183688
_cell_angle_beta                  89.598316
_cell_angle_gamma                 90.687487
_cell_volume                      1113.36274192

loop_
_atom_site_label
_atom_site_type_symbol
_atom_type_description
_atom_site_fract_x
_atom_site_fract_y
_atom_site_fract_z
_atom_type_partial_charge
C1    C     C_R   0.497937 0.260522 0.499862 0.894018
C2    C     C_R   0.552604 0.935984 0.599480 0.083088
C3    C     C_3   0.539802 0.927263 0.750048 -0.469718
C4    C     C_R   0.257360 0.499954 0.500513 0.867249
C5    C     C_3   0.536806 0.068994 0.752734 -0.216708
C6    C     C_R   0.414069 0.428418 0.071418 0.203295
C7    C     C_R   0.592087 0.560825 0.072971 -0.089888
C8    C     C_R   0.592567 0.562471 0.929193 0.011153
C9    C     C_R   0.413901 0.428675 0.929187 0.171625
C10   C     C_3   0.272640 0.440198 0.925509 -0.484955
C11   C     C_3   0.272731 0.438582 0.078679 -0.480706
C12   C     C_3   0.960932 0.501174 0.370364 -0.133157
C13   C     C_R   0.493023 0.739335 0.499906 0.849028
C14   C     C_R   0.742557 0.500305 0.499365 0.867181
C15   C     C_3   0.038601 0.499410 0.628561 -0.106389
C16   C     C_3   0.955454 0.397189 0.561862 -0.162887
C17   C     C_3   0.877561 0.500390 0.497742 0.009499
C18   C     C_3   0.958092 0.602620 0.564146 -0.158647
C19   C     C_3   0.044281 0.603385 0.437087 -0.187401
C20   C     C_2   0.411011 0.117916 0.803973 0.519971
C21   C     C_2   0.692010 0.638477 0.860882 0.387558
C22   C     C_2   0.353562 0.874098 0.283383 0.421526
C23   C     C_3   0.041613 0.397966 0.434798 -0.172817
C24   C     C_3   0.122213 0.500170 0.501459 0.009091
C25   C     C_R   0.552374 0.063161 0.601823 0.088540
C26   C     C_R   0.496122 0.128840 0.498046 -0.097982
C27   C     C_R   0.441639 0.066055 0.388364 -0.181435
C28   C     C_R   0.431924 0.936599 0.389202 -0.023515
C29   C     C_R   0.487512 0.871544 0.498314 -0.159662
H1    H     H_    0.914513 0.313367 0.612462 0.144399
H2    H     H_    0.406477 0.160678 0.903229 0.050598
H3    H     H_    0.620874 0.112130 0.803178 0.127918
H4    H     H_    0.678447 0.673758 0.760602 0.128828
H5    H     H_    0.227137 0.353386 0.122030 0.202887
H6    H     H_    0.071889 0.498664 0.734391 0.153775
H7    H     H_    0.919269 0.685797 0.616614 0.154432
H8    H     H_    0.085252 0.687212 0.386543 0.138953
H9    H     H_    0.311862 0.782388 0.300467 0.074889
H10   H     H_    0.449818 0.879818 0.782653 0.232566
H11   H     H_    0.627190 0.890327 0.797254 0.187365
H12   H     H_    0.663258 0.612799 0.129200 0.187471
H13   H     H_    0.242738 0.531316 0.883670 0.219353
H14   H     H_    0.225767 0.356644 0.880123 0.218670
H15   H     H_    0.241057 0.527980 0.124537 0.225097
H16   H     H_    0.925247 0.501945 0.265054 0.163919
H17   H     H_    0.080541 0.314824 0.382353 0.145048
H18   H     H_    0.398056 0.118351 0.307608 0.190649
N1    N     N_R   0.499140 0.499140 0.142800 -0.131017
N2    N     N_R   0.499140 0.499180 0.857150 -0.156513
O1    O     O_R   0.500020 0.316790 0.614690 -0.613212
O2    O     O_2   0.791443 0.665252 0.918073 -0.608371
O3    O     O_2   0.332548 0.925699 0.176124 -0.585925
O4    O     O_R   0.500000 0.316760 0.385350 -0.625137
O5    O     O_R   0.313960 0.499990 0.614650 -0.618778
O6    O     O_R   0.313940 0.499950 0.385310 -0.633254
O7    O     O_R   0.500000 0.683240 0.614650 -0.638937
O8    O     O_R   0.499980 0.683210 0.385310 -0.631194
O9    O     O_R   0.686060 0.500050 0.614690 -0.646750
O10   O     O_R   0.686040 0.500010 0.385350 -0.621745
O11   O     O_2   0.313477 0.105948 0.738323 -0.573260
Zn1   Zn    Zn3+2 0.500010 0.500020 0.653130 0.936768
Zn2   Zn    Zn3+2 0.499990 0.499980 0.346870 0.943550

loop_
_geom_bond_atom_site_label_1
_geom_bond_atom_site_label_2
_ccdc_geom_bond_type
C12   C17   S    
C15   C18   S    
C23   C24   S    
O5    Zn1   S    
C10   H13   S    
C9    C10   S    
N2    Zn1   S    
N1    Zn2   S    
C1    O1    A    
C12   C23   S    
C21   O2    D    
C3    C5    S    
C13   O7    A    
C7    N1    A    
C5    H3    S    
C6    C9    A    
C2    C3    S    
C25   C26   A    
C3    H10   S    
C7    C8    A    
C5    C20   S    
C22   C28   S    
C14   O10   A    
C14   C17   S    
C26   C27   A    
C19   C24   S    
C6    N1    A    
O9    Zn1   S    
C2    C29   A    
C5    C25   S    
C12   C19   S    
C13   C29   S    
C28   C29   A    
C3    H11   S    
C17   C18   S    
C2    C25   A    
C7    H12   S    
C4    O6    A    
C21   H4    S    
C1    C26   S    
C4    C24   S    
C16   C17   S    
C15   H6    S    
C20   O11   D    
C10   C11   S    
C16   H1    S    
C15   C16   S    
C22   H9    S    
O6    Zn2   S    
C11   H15   S    
O8    Zn2   S    
C13   O8    A    
C9    N2    A    
C16   C23   S    
C22   O3    D    
C18   C19   S    
O4    Zn2   S    
C27   H18   S    
C6    C11   S    
C23   H17   S    
O1    Zn1   S    
C1    O4    A    
O7    Zn1   S    
C15   C24   S    
O10   Zn2   S    
C19   H8    S    
C4    O5    A    
C10   H14   S    
C18   H7    S    
C8    N2    A    
C11   H5    S    
C14   O9    A    
C12   H16   S    
C27   C28   A    
C20   H2    S    
C8    C21   S    
