data_mof_unit_15127.cif
_audit_creation_date              2012-12-10T20:32:47-0500
_audit_creation_method            fapswitch 2.2
_symmetry_space_group_name_H-M    P1
_symmetry_Int_Tables_number       1
_space_group_crystal_system       triclinic
_cell_length_a                    11.536448
_cell_length_b                    10.693026
_cell_length_c                    9.895767
_cell_angle_alpha                 89.771919
_cell_angle_beta                  89.435844
_cell_angle_gamma                 90.238071
_cell_volume                      1220.65766376

loop_
_atom_site_label
_atom_site_type_symbol
_atom_type_description
_atom_site_fract_x
_atom_site_fract_y
_atom_site_fract_z
_atom_type_partial_charge
C1    C     C_R   0.506499 0.260083 0.499899 0.872846
C2    C     C_R   0.596716 0.533161 0.069712 0.146134
C3    C     C_R   0.596554 0.531508 0.925964 -0.199386
C4    C     C_R   0.281990 0.499976 0.500543 0.899190
C5    C     C_R   0.399054 0.484561 0.930165 0.182396
C6    C     C_3   0.316966 0.376914 0.923099 0.278272
C7    C     C_3   0.318889 0.373601 0.078287 -0.215777
C8    C     C_R   0.504393 0.739653 0.499686 0.890582
C9    C     C_R   0.718038 0.499990 0.499459 0.894062
C10   C     C_1   0.161544 0.499899 0.501365 -0.151514
C11   C     C_1   0.059364 0.499794 0.500690 -0.005929
C12   C     C_R   0.529497 0.128834 0.499669 -0.109612
C13   C     C_1   0.940719 0.499750 0.499271 -0.015276
C14   C     C_1   0.838522 0.499831 0.498609 -0.186901
C15   C     C_R   0.525168 0.063014 0.621392 0.010340
C16   C     C_3   0.270139 0.912368 0.607010 -0.259031
C17   C     C_3   0.150821 0.311324 0.816352 -0.300365
C18   C     C_R   0.558002 0.063933 0.379203 0.094582
C19   C     C_R   0.554916 0.933690 0.380426 -0.279640
C20   C     C_R   0.523705 0.870562 0.499647 -0.113782
C21   C     C_R   0.518228 0.935913 0.620069 -0.041327
C22   C     C_3   0.441142 0.930147 0.743472 0.370785
C23   C     C_3   0.449959 0.073180 0.745830 -0.187141
C24   C     C_R   0.399316 0.483378 0.072317 0.101490
H1    H     H_    0.358366 0.295440 0.873498 0.090658
H2    H     H_    0.174916 0.487724 0.105622 0.240560
H3    H     H_    0.284470 0.836882 0.532295 0.163761
H4    H     H_    0.296052 0.003718 0.562363 0.129306
H5    H     H_    0.175481 0.916698 0.626963 0.177222
H6    H     H_    0.592581 0.071104 0.872301 0.182440
H7    H     H_    0.465130 0.103992 0.948110 0.161863
H8    H     H_    0.766911 0.512766 0.107140 0.173174
H9    H     H_    0.720026 0.662364 0.105492 0.154619
H10   H     H_    0.140902 0.235626 0.893216 0.146971
H11   H     H_    0.196030 0.275438 0.724691 0.154596
H12   H     H_    0.359700 0.288401 0.121349 0.147657
H13   H     H_    0.062758 0.340959 0.786038 0.194378
H14   H     H_    0.570169 0.883468 0.287029 0.169845
H15   H     H_    0.485845 0.883864 0.829139 0.092627
H16   H     H_    0.367613 0.124183 0.729532 0.162613
H17   H     H_    0.674783 0.555451 0.870411 0.161852
H18   H     H_    0.523432 0.100750 0.183504 0.168093
H19   H     H_    0.665964 0.099378 0.221512 0.177235
H20   H     H_    0.149450 0.332797 0.124937 0.195799
N1    N     N_R   0.499240 0.499140 0.142800 -0.106130
N2    N     N_R   0.499240 0.499180 0.857150 -0.133267
N3    N     N_3   0.584223 0.128286 0.255225 -0.423995
N4    N     N_3   0.208626 0.404528 0.144712 -0.399997
N5    N     N_3   0.515145 0.120642 0.861222 -0.454028
N6    N     N_3   0.699391 0.571586 0.137465 -0.390798
O1    O     O_R   0.500010 0.316790 0.614690 -0.612722
O2    O     O_3   0.210004 0.415739 0.868666 -0.569582
O3    O     O_R   0.500000 0.316760 0.385350 -0.592880
O4    O     O_R   0.334450 0.500030 0.614670 -0.570388
O5    O     O_R   0.334440 0.500000 0.385330 -0.600795
O6    O     O_R   0.500000 0.683240 0.614650 -0.599312
O7    O     O_R   0.499990 0.683210 0.385310 -0.623698
O8    O     O_R   0.665560 0.500000 0.614670 -0.627876
O9    O     O_R   0.665550 0.499970 0.385330 -0.586113
O10   O     O_3   0.326029 0.882256 0.729729 -0.583173
Zn1   Zn    Zn3+2 0.500010 0.500020 0.653130 0.979923
Zn2   Zn    Zn3+2 0.499990 0.499980 0.346870 0.974565

loop_
_geom_bond_atom_site_label_1
_geom_bond_atom_site_label_2
_ccdc_geom_bond_type
C16   H4    S    
C9    C14   S    
C6    C7    S    
O6    Zn1   S    
O4    Zn1   S    
C8    O7    A    
C1    O1    A    
C7    H12   S    
C3    N2    A    
C19   C20   A    
O1    Zn1   S    
C12   C15   A    
H2    N4    S    
C6    O2    S    
C18   N3    S    
C8    O6    A    
O8    Zn1   S    
C15   C23   S    
C2    C3    A    
C16   H5    S    
C9    O9    A    
O7    Zn2   S    
C4    O5    A    
C17   H13   S    
C13   C14   T    
C7    N4    S    
C11   C13   S    
H8    N6    S    
C8    C20   S    
C1    C12   S    
H7    N5    S    
C16   O10   S    
C24   N1    A    
C17   O2    S    
C16   H3    S    
C19   H14   S    
H6    N5    S    
C18   C19   A    
H18   N3    S    
C2    N1    A    
C22   O10   S    
C5    C6    S    
C23   N5    S    
C6    H1    S    
C17   H10   S    
C22   H15   S    
N2    Zn1   S    
C4    C10   S    
C23   H16   S    
O5    Zn2   S    
H20   N4    S    
N1    Zn2   S    
C15   C21   A    
C20   C21   A    
O3    Zn2   S    
C9    O8    A    
C10   C11   T    
C12   C18   A    
C2    N6    S    
C1    O3    A    
C22   C23   S    
C5    C24   A    
O9    Zn2   S    
C17   H11   S    
C4    O4    A    
H9    N6    S    
C21   C22   S    
H19   N3    S    
C3    H17   S    
C7    C24   S    
C5    N2    A    
