data_mof_unit_53756.cif
_audit_creation_date              2012-12-10T17:05:11-0500
_audit_creation_method            fapswitch 2.2
_symmetry_space_group_name_H-M    P1
_symmetry_Int_Tables_number       1
_space_group_crystal_system       triclinic
_cell_length_a                    30.145329
_cell_length_b                    31.004124
_cell_length_c                    21.200496
_cell_angle_alpha                 90.000397
_cell_angle_beta                  134.164658
_cell_angle_gamma                 89.99941
_cell_volume                      14213.8219184

loop_
_atom_site_label
_atom_site_type_symbol
_atom_type_description
_atom_site_fract_x
_atom_site_fract_y
_atom_site_fract_z
_atom_type_partial_charge
C1    C     C_R   0.310134 0.809493 0.119993 0.872178
C2    C     C_R   0.479588 0.663928 0.003724 -0.100411
C3    C     C_R   0.311379 0.188956 0.274328 -0.105992
C4    C     C_R   0.193575 0.677494 0.665829 -0.027564
C5    C     C_R   0.816611 0.682376 0.346617 -0.011856
C6    C     C_R   0.683387 0.182369 0.653379 -0.011815
C7    C     C_R   0.306355 0.177464 0.334093 -0.027786
C8    C     C_R   0.151777 0.647644 0.599093 -0.023641
C9    C     C_R   0.859064 0.652463 0.413006 -0.026480
C10   C     C_R   0.640925 0.152462 0.586982 -0.026499
C11   C     C_R   0.348158 0.147620 0.400840 -0.023603
C12   C     C_R   0.107164 0.630127 0.594148 -0.234553
C13   C     C_R   0.020346 0.163927 0.996130 -0.100241
C14   C     C_R   0.898957 0.632007 0.410993 -0.239397
C15   C     C_R   0.601035 0.132007 0.589002 -0.239400
C16   C     C_R   0.392792 0.130116 0.405818 -0.234486
C17   C     C_R   0.115907 0.629738 0.668714 0.086599
C18   C     C_R   0.886126 0.630324 0.333081 0.095751
C19   C     C_R   0.613873 0.130323 0.666919 0.095751
C20   C     C_R   0.384072 0.129733 0.331270 0.086447
C21   C     C_R   0.154992 0.661114 0.734813 -0.014699
C22   C     C_R   0.846429 0.661558 0.266921 -0.005083
C23   C     C_R   0.653577 0.161553 0.733084 -0.005038
C24   C     C_R   0.965874 0.165018 0.977956 -0.077686
C25   C     C_R   0.344987 0.161109 0.265170 -0.014772
C26   C     C_R   0.161711 0.659824 0.808790 -0.153132
C27   C     C_R   0.837839 0.659477 0.191123 -0.162536
C28   C     C_R   0.662165 0.159474 0.808880 -0.162525
C29   C     C_R   0.338284 0.159825 0.191208 -0.152833
C30   C     C_R   0.133034 0.628194 0.816549 -0.153979
C31   C     C_R   0.864405 0.626750 0.181443 -0.153484
C32   C     C_R   0.635595 0.126750 0.818559 -0.153440
C33   C     C_R   0.366973 0.128199 0.183460 -0.153912
C34   C     C_R   0.096885 0.596611 0.753753 -0.021066
C35   C     C_R   0.474671 0.822024 0.995390 -0.212959
C36   C     C_R   0.899349 0.594563 0.243198 -0.030475
C37   C     C_R   0.600649 0.094563 0.756803 -0.030450
C38   C     C_R   0.403126 0.096619 0.246262 -0.021077
C39   C     C_R   0.162129 0.748777 0.997663 0.900672
C40   C     C_R   0.838565 0.747927 0.004157 0.902716
C41   C     C_R   0.661434 0.247926 0.995840 0.902729
C42   C     C_R   0.337871 0.248777 0.002336 0.900653
C43   C     C_R   0.088668 0.597014 0.679587 -0.194309
C44   C     C_R   0.910221 0.596309 0.319373 -0.191668
C45   C     C_R   0.589778 0.096309 0.680628 -0.191658
C46   C     C_R   0.524125 0.822321 0.003057 -0.213256
C47   C     C_R   0.411331 0.097017 0.320417 -0.194385
C48   C     C_R   0.940509 0.560338 0.380322 0.829555
C49   C     C_R   0.059342 0.560483 0.619626 0.844522
C50   C     C_R   0.440659 0.060486 0.380378 0.844561
C51   C     C_R   0.559491 0.060338 0.619679 0.829561
C52   C     C_R   0.441812 0.937826 0.383184 0.831791
C53   C     C_R   0.557314 0.937253 0.615429 0.830683
C54   C     C_R   0.942687 0.437253 0.384571 0.830678
C55   C     C_R   0.058188 0.437826 0.616815 0.831788
C56   C     C_R   0.597430 0.784301 0.011829 -0.244784
C57   C     C_R   0.975775 0.322323 0.996737 -0.213289
C58   C     C_R   0.402354 0.783514 0.987777 -0.236652
C59   C     C_R   0.097566 0.283523 0.012055 -0.237017
C60   C     C_R   0.902536 0.284301 0.988101 -0.244726
C61   C     C_R   0.618531 0.746128 0.006235 -0.047360
C62   C     C_R   0.380999 0.745403 0.992778 -0.043356
C63   C     C_R   0.118980 0.245409 0.007176 -0.042963
C64   C     C_R   0.881474 0.246131 0.993774 -0.047392
C65   C     C_R   0.595950 0.705586 0.004445 -0.005268
C66   C     C_R   0.404975 0.704816 0.997718 -0.045661
C67   C     C_R   0.095032 0.204819 0.002281 -0.045868
C68   C     C_R   0.025215 0.322028 0.004372 -0.212970
C69   C     C_R   0.904073 0.205589 0.995593 -0.005133
C70   C     C_R   0.553440 0.704253 0.013082 0.052609
C71   C     C_R   0.452580 0.703220 0.998698 0.029237
C72   C     C_R   0.047370 0.203220 0.001186 0.028357
C73   C     C_R   0.946548 0.204255 0.986893 0.052419
C74   C     C_R   0.526705 0.743431 0.007179 0.020204
C75   C     C_R   0.476887 0.743006 0.000319 0.031852
C76   C     C_R   0.023047 0.243008 0.999538 0.032133
C77   C     C_R   0.973248 0.243432 0.992718 0.020205
C78   C     C_R   0.479256 0.908331 0.288411 0.160419
C79   C     C_R   0.260400 0.845897 0.184352 -0.244684
C80   C     C_R   0.472687 0.950604 0.259028 -0.084402
C81   C     C_R   0.516860 0.967934 0.261711 -0.146374
C82   C     C_R   0.567010 0.942924 0.291728 -0.151263
C83   C     C_R   0.572573 0.900289 0.317692 -0.068214
C84   C     C_R   0.528413 0.882823 0.314756 -0.072416
C85   C     C_R   0.518523 0.905113 0.707271 0.155258
C86   C     C_R   0.527788 0.944820 0.746591 -0.106553
C87   C     C_R   0.482223 0.961832 0.741095 -0.142802
C88   C     C_R   0.428122 0.938464 0.699070 -0.143132
C89   C     C_R   0.420025 0.897807 0.663760 -0.047452
C90   C     C_R   0.739714 0.851881 0.811319 -0.262731
C91   C     C_R   0.465411 0.880922 0.668694 -0.093630
C92   C     C_R   0.981480 0.405110 0.292734 0.155256
C93   C     C_R   0.972217 0.444817 0.253415 -0.106537
C94   C     C_R   0.017783 0.461827 0.258914 -0.142808
C95   C     C_R   0.071884 0.438458 0.300940 -0.143128
C96   C     C_R   0.079979 0.397801 0.336248 -0.047433
C97   C     C_R   0.034592 0.380917 0.331312 -0.093642
C98   C     C_R   0.020740 0.408326 0.711581 0.160452
C99   C     C_R   0.027313 0.450597 0.740976 -0.084443
C100  C     C_R   0.983140 0.467926 0.738295 -0.146388
C101  C     C_R   0.760284 0.351884 0.188675 -0.262734
C102  C     C_R   0.932988 0.442917 0.708269 -0.151248
C103  C     C_R   0.927422 0.400285 0.682296 -0.068209
C104  C     C_R   0.971581 0.382819 0.685229 -0.072432
C105  C     C_R   0.965265 0.719272 0.161913 0.090321
C106  C     C_R   0.988564 0.676980 0.182457 -0.148183
C107  C     C_R   0.005087 0.655351 0.254154 -0.100727
C108  C     C_R   0.998868 0.675735 0.306388 -0.109665
C109  C     C_R   0.975317 0.717577 0.286280 -0.130725
C110  C     C_R   0.958323 0.739239 0.214261 -0.089429
C111  C     C_R   0.033089 0.732438 0.835272 0.103221
C112  C     C_R   0.692720 0.809601 0.879881 0.876185
C113  C     C_R   0.239601 0.345896 0.815648 -0.244678
C114  C     C_R   0.014936 0.689080 0.812644 -0.173290
C115  C     C_R   0.002984 0.670683 0.741902 -0.125729
C116  C     C_R   0.008193 0.695464 0.692301 -0.111673
C117  C     C_R   0.025635 0.738708 0.713654 -0.125871
C118  C     C_R   0.038497 0.757089 0.785159 -0.056550
C119  C     C_R   0.466911 0.232449 0.164730 0.103234
C120  C     C_R   0.485061 0.189090 0.187364 -0.173314
C121  C     C_R   0.497011 0.170699 0.258107 -0.125764
C122  C     C_R   0.491801 0.195485 0.307703 -0.111697
C123  C     C_R   0.474364 0.238730 0.286345 -0.125871
C124  C     C_R   0.237459 0.862723 0.218157 -0.037172
C125  C     C_R   0.461504 0.257105 0.214838 -0.056530
C126  C     C_R   0.534735 0.219265 0.838085 0.090312
C127  C     C_R   0.511429 0.176974 0.817535 -0.148143
C128  C     C_R   0.494898 0.155346 0.745831 -0.100749
C129  C     C_R   0.501117 0.175729 0.693598 -0.109691
C130  C     C_R   0.524677 0.217569 0.713712 -0.130699
C131  C     C_R   0.541677 0.239230 0.785737 -0.089453
C132  C     C_R   0.085511 0.762720 0.253937 0.158124
C133  C     C_R   0.140233 0.743707 0.330851 -0.160274
C134  C     C_R   0.166851 0.757632 0.413683 -0.141884
C135  C     C_R   0.755997 0.867588 0.767487 -0.033166
C136  C     C_R   0.139197 0.790650 0.421010 -0.102190
C137  C     C_R   0.085131 0.810026 0.345443 -0.134764
C138  C     C_R   0.058805 0.796534 0.262501 -0.170403
C139  C     C_R   0.918860 0.780037 0.756251 0.155015
C140  C     C_R   0.866807 0.760674 0.677041 -0.159189
C141  C     C_R   0.843295 0.776095 0.596732 -0.124476
C142  C     C_R   0.870729 0.811581 0.594524 -0.094918
C143  C     C_R   0.921277 0.832003 0.672777 -0.156243
C144  C     C_R   0.944945 0.816545 0.753310 -0.181052
C145  C     C_R   0.581139 0.280043 0.243743 0.155015
C146  C     C_R   0.743999 0.367593 0.232503 -0.033169
C147  C     C_R   0.633190 0.260678 0.322953 -0.159187
C148  C     C_R   0.656703 0.276100 0.403262 -0.124471
C149  C     C_R   0.629273 0.311589 0.405471 -0.094903
C150  C     C_R   0.578727 0.332013 0.327218 -0.156244
C151  C     C_R   0.555058 0.316555 0.246685 -0.181054
C152  C     C_R   0.414482 0.262698 0.746053 0.158125
C153  C     C_R   0.359766 0.243675 0.669148 -0.160251
C154  C     C_R   0.333142 0.257594 0.586309 -0.141908
C155  C     C_R   0.360784 0.290614 0.578967 -0.102202
C156  C     C_R   0.414845 0.309998 0.654524 -0.134742
C157  C     C_R   0.262541 0.362719 0.781841 -0.037173
C158  C     C_R   0.441176 0.296514 0.737473 -0.170385
C159  C     C_2   0.213314 0.731542 0.768341 0.374517
C160  C     C_2   0.781053 0.729116 0.225020 0.356214
C161  C     C_2   0.719000 0.229086 0.775033 0.356111
C162  C     C_2   0.286669 0.231537 0.231650 0.374632
C163  C     C_R   0.244081 0.694960 0.676069 0.160486
C164  C     C_R   0.238923 0.735822 0.643022 -0.117098
C165  C     C_R   0.288810 0.753249 0.659053 -0.129290
C166  C     C_R   0.343883 0.729939 0.707825 -0.120276
C167  C     C_R   0.349081 0.689084 0.740348 -0.105049
C168  C     C_R   0.280301 0.879501 0.304827 -0.028710
C169  C     C_R   0.299262 0.671558 0.724309 -0.093784
C170  C     C_R   0.771849 0.703833 0.345333 0.156000
C171  C     C_R   0.777820 0.747829 0.366007 -0.148092
C172  C     C_R   0.732793 0.768384 0.357970 -0.131633
C173  C     C_R   0.682236 0.745067 0.330800 -0.112627
C174  C     C_R   0.676556 0.701147 0.311485 -0.124854
C175  C     C_R   0.721198 0.680548 0.318737 -0.042256
C176  C     C_R   0.728144 0.203827 0.654652 0.156038
C177  C     C_R   0.722180 0.247825 0.634002 -0.148206
C178  C     C_R   0.767202 0.268381 0.642030 -0.131641
C179  C     C_R   0.708268 0.876028 0.676154 -0.016946
C180  C     C_R   0.817749 0.245062 0.669170 -0.112592
C181  C     C_R   0.823424 0.201139 0.688464 -0.124941
C182  C     C_R   0.778786 0.180539 0.681220 -0.042131
C183  C     C_R   0.255831 0.194917 0.323826 0.160663
C184  C     C_R   0.260985 0.235767 0.356910 -0.116875
C185  C     C_R   0.211092 0.253180 0.340882 -0.129298
C186  C     C_R   0.156017 0.229870 0.292073 -0.120259
C187  C     C_R   0.150822 0.189027 0.259515 -0.104973
C188  C     C_R   0.200647 0.171512 0.275554 -0.094529
C189  C     C_R   0.157111 0.630080 0.539577 0.098710
C190  C     C_R   0.791726 0.376033 0.323836 -0.016948
C191  C     C_R   0.152455 0.656749 0.481805 -0.154725
C192  C     C_R   0.156475 0.638918 0.425285 -0.136319
C193  C     C_R   0.164656 0.594569 0.425521 -0.132124
C194  C     C_R   0.169051 0.567790 0.482557 -0.139623
C195  C     C_R   0.165370 0.585411 0.539413 -0.122540
C196  C     C_R   0.858778 0.637848 0.479695 0.090152
C197  C     C_R   0.860058 0.667182 0.531444 -0.154659
C198  C     C_R   0.857408 0.652197 0.591001 -0.125339
C199  C     C_R   0.855045 0.608041 0.601209 -0.136989
C200  C     C_R   0.854740 0.578588 0.551218 -0.158988
C201  C     C_R   0.219699 0.379497 0.695171 -0.028710
C202  C     C_R   0.856219 0.593336 0.490467 -0.128230
C203  C     C_R   0.641202 0.137848 0.520283 0.090142
C204  C     C_R   0.639930 0.167184 0.468543 -0.154670
C205  C     C_R   0.642578 0.152199 0.408984 -0.125329
C206  C     C_R   0.644928 0.108043 0.398759 -0.137003
C207  C     C_R   0.645222 0.078590 0.448738 -0.159034
C208  C     C_R   0.643747 0.093336 0.509495 -0.128235
C209  C     C_R   0.342816 0.130054 0.460344 0.098812
C210  C     C_R   0.347505 0.156718 0.518151 -0.154716
C211  C     C_R   0.343491 0.138883 0.574675 -0.136352
C212  C     C_R   0.343605 0.883210 0.349870 -0.038717
C213  C     C_R   0.335282 0.094536 0.574405 -0.132080
C214  C     C_R   0.330853 0.067763 0.517332 -0.139574
C215  C     C_R   0.334531 0.085387 0.460474 -0.122537
C216  C     C_R   0.609448 0.665882 0.980604 0.127063
C217  C     C_R   0.668269 0.646655 0.040209 -0.009466
C218  C     C_R   0.679860 0.609138 0.017099 -0.119805
C219  C     C_R   0.632999 0.590727 0.934162 -0.130480
C220  C     C_R   0.574393 0.609704 0.874352 -0.143240
C221  C     C_R   0.562549 0.647127 0.897374 -0.175964
C222  C     C_R   0.382909 0.665311 0.008616 0.138643
C223  C     C_R   0.807281 0.309602 0.120119 0.876197
C224  C     C_R   0.646385 0.878328 0.636689 -0.039173
C225  C     C_R   0.326834 0.645971 0.935572 -0.072163
C226  C     C_R   0.306059 0.608955 0.946087 -0.105656
C227  C     C_R   0.340753 0.591399 0.029787 -0.092977
C228  C     C_R   0.396538 0.610626 0.102989 -0.155698
C229  C     C_R   0.417716 0.647453 0.092607 -0.152712
C230  C     C_R   0.117279 0.165307 0.991708 0.137880
C231  C     C_R   0.173228 0.145954 0.065002 -0.073346
C232  C     C_R   0.194189 0.108934 0.054810 -0.106090
C233  C     C_R   0.159805 0.091382 0.971190 -0.092409
C234  C     C_R   0.104140 0.110616 0.897741 -0.155537
C235  C     C_R   0.853611 0.378331 0.363305 -0.039169
C236  C     C_R   0.082773 0.147447 0.907797 -0.152275
C237  C     C_R   0.890624 0.165888 0.019508 0.126940
C238  C     C_R   0.831805 0.146653 0.959975 -0.009154
C239  C     C_R   0.820260 0.109140 0.983153 -0.119886
C240  C     C_R   0.867167 0.090736 0.066083 -0.130627
C241  C     C_R   0.925772 0.109718 0.125819 -0.143077
C242  C     C_R   0.937568 0.147140 0.102730 -0.175936
C243  C     C_2   0.070000 0.563482 0.769935 0.315244
C244  C     C_2   0.921516 0.558705 0.224209 0.348727
C245  C     C_2   0.578480 0.058708 0.775790 0.348709
C246  C     C_R   0.156396 0.383208 0.650128 -0.038716
C247  C     C_2   0.430028 0.063498 0.230095 0.315262
C248  C     C_2   0.573093 0.625505 0.059100 0.374397
C249  C     C_2   0.451582 0.620962 0.986744 0.364278
C250  C     C_2   0.048249 0.120949 0.012857 0.363866
C251  C     C_2   0.926863 0.125512 0.940846 0.374407
C252  C     C_R   0.168945 0.862489 0.159628 0.101020
C253  C     C_R   0.130003 0.872508 0.069662 -0.136299
C254  C     C_R   0.065855 0.870940 0.012431 -0.137556
C255  C     C_R   0.039506 0.861055 0.044524 -0.103265
C256  C     C_R   0.077256 0.852911 0.133638 -0.121877
C257  C     C_R   0.360117 0.879579 0.301266 -0.032352
C258  C     C_R   0.141450 0.851814 0.190494 -0.167906
C259  C     C_R   0.820304 0.882685 0.819859 0.099133
C260  C     C_R   0.845435 0.913656 0.885997 -0.139960
C261  C     C_R   0.899154 0.936096 0.923005 -0.138589
C262  C     C_R   0.927945 0.928185 0.893793 -0.131010
C263  C     C_R   0.904998 0.896164 0.831064 -0.154422
C264  C     C_R   0.852380 0.872673 0.795813 -0.166704
C265  C     C_R   0.679691 0.382690 0.180127 0.099133
C266  C     C_R   0.654560 0.413659 0.113986 -0.139934
C267  C     C_R   0.600839 0.436099 0.076972 -0.138618
C268  C     C_R   0.635165 0.877167 0.691464 -0.022601
C269  C     C_R   0.572047 0.428190 0.106183 -0.131023
C270  C     C_R   0.594995 0.396171 0.168916 -0.154390
C271  C     C_R   0.647614 0.372680 0.204173 -0.166716
C272  C     C_R   0.331055 0.362485 0.840369 0.101022
C273  C     C_R   0.369997 0.372508 0.930333 -0.136324
C274  C     C_R   0.434145 0.370940 0.987562 -0.137584
C275  C     C_R   0.460494 0.361050 0.955471 -0.103275
C276  C     C_R   0.422743 0.352899 0.866359 -0.121908
C277  C     C_R   0.358549 0.351804 0.809503 -0.167910
C278  C     C_2   0.258580 0.895105 0.345470 0.434796
C279  C     C_R   0.864834 0.377169 0.308534 -0.022599
C280  C     C_2   0.723387 0.885002 0.624280 0.453006
C281  C     C_2   0.776605 0.385010 0.375707 0.452998
C282  C     C_2   0.241421 0.395096 0.654525 0.434805
C283  C     C_2   0.392978 0.884631 0.447382 0.515107
C284  C     C_2   0.593159 0.879711 0.539836 0.502065
C285  C     C_2   0.906834 0.379715 0.460159 0.502060
C286  C     C_2   0.107023 0.384632 0.552616 0.515111
C287  C     C_R   0.139883 0.379578 0.698732 -0.032345
C288  C     C_R   0.320900 0.854992 0.224247 0.077758
C289  C     C_R   0.678324 0.855694 0.771979 0.074096
C290  C     C_R   0.821675 0.355696 0.228018 0.074096
C291  C     C_R   0.189867 0.309493 0.880007 0.872161
C292  C     C_R   0.179101 0.354991 0.775752 0.077756
C293  C     C_R   0.342314 0.841335 0.186717 -0.063557
C294  C     C_R   0.659360 0.841731 0.812965 -0.073897
C295  C     C_R   0.840641 0.341731 0.187035 -0.073903
C296  C     C_R   0.157686 0.341335 0.813282 -0.063544
C297  C     C_R   0.335572 0.748879 0.997773 0.900231
C298  C     C_R   0.663824 0.749411 0.001064 0.898934
C299  C     C_R   0.836180 0.249414 0.998944 0.898876
C300  C     C_R   0.164428 0.248880 0.002224 0.900469
C301  C     C_R   0.396473 0.856581 0.214608 -0.273095
C302  C     C_R   0.549764 0.783440 0.007987 0.131722
C303  C     C_R   0.604005 0.855217 0.784198 -0.258063
C304  C     C_R   0.895997 0.355215 0.215804 -0.258067
C305  C     C_R   0.103525 0.356579 0.785387 -0.273103
C306  C     C_R   0.429680 0.888328 0.277980 0.002900
C307  C     C_R   0.568694 0.886024 0.718800 -0.007521
C308  C     C_R   0.931307 0.386023 0.281203 -0.007522
C309  C     C_R   0.070317 0.388325 0.722012 0.002890
C310  C     C_R   0.411939 0.900670 0.322943 -0.179193
C311  C     C_R   0.585124 0.898730 0.672591 -0.186544
C312  C     C_R   0.914876 0.398730 0.327410 -0.186548
C313  C     C_R   0.450951 0.782863 0.993837 0.131039
C314  C     C_R   0.088060 0.400668 0.677053 -0.179197
C315  C     C_R   0.871287 0.755918 0.928692 -0.266370
C316  C     C_R   0.130533 0.749248 0.075987 -0.257906
C317  C     C_R   0.369466 0.249242 0.924011 -0.257905
C318  C     C_R   0.628710 0.255920 0.071301 -0.266363
C319  C     C_R   0.887778 0.747584 0.007023 -0.099289
C320  C     C_R   0.113209 0.748768 0.995820 -0.108807
C321  C     C_R   0.386790 0.248768 0.004178 -0.108802
C322  C     C_R   0.612220 0.247583 0.992972 -0.099292
C323  C     C_R   0.950334 0.742021 0.086865 -0.075042
C324  C     C_R   0.048959 0.282867 0.005973 0.131138
C325  C     C_R   0.050276 0.749966 0.915438 -0.070873
C326  C     C_R   0.449723 0.249970 0.084559 -0.070873
C327  C     C_R   0.549665 0.242014 0.913131 -0.075047
C328  C     C_R   0.997058 0.749110 0.087223 0.012429
C329  C     C_R   0.004758 0.756502 0.917634 0.020605
C330  C     C_R   0.495241 0.256504 0.082362 0.020609
C331  C     C_R   0.502939 0.249103 0.912772 0.012432
C332  C     C_R   0.978818 0.753502 0.004845 0.029379
C333  C     C_R   0.023181 0.753517 0.000322 0.042824
C334  C     C_R   0.476817 0.253514 0.999674 0.042831
C335  C     C_R   0.950176 0.283441 0.991887 0.131755
C336  C     C_R   0.521179 0.253499 0.995150 0.029380
C337  C     C_R   0.915998 0.757395 0.926517 0.119584
C338  C     C_R   0.086015 0.749946 0.078711 0.137467
C339  C     C_R   0.413983 0.249940 0.921286 0.137469
C340  C     C_R   0.583999 0.257397 0.073477 0.119577
C341  C     C_R   0.061256 0.751264 0.166069 -0.018774
C342  C     C_R   0.941483 0.765021 0.840952 -0.012987
C343  C     C_R   0.558515 0.265026 0.159042 -0.012989
C344  C     C_R   0.438741 0.251251 0.833926 -0.018786
C345  C     C_R   0.195550 0.690921 0.879198 0.881795
C346  C     C_R   0.534097 0.665017 0.021994 -0.078444
C347  C     C_R   0.804660 0.690849 0.120893 0.864300
C348  C     C_R   0.695340 0.190848 0.879108 0.864218
C349  C     C_R   0.304445 0.190922 0.120800 0.882149
C350  C     C_R   0.104502 0.749602 0.159904 -0.256421
C351  C     C_R   0.898079 0.764152 0.846583 -0.267400
C352  C     C_R   0.601919 0.264157 0.153410 -0.267401
C353  C     C_R   0.395496 0.249590 0.840092 -0.256426
C354  C     C_R   0.188580 0.688970 0.725632 -0.105838
C355  C     C_R   0.815125 0.690420 0.278915 -0.077720
C356  C     C_R   0.684888 0.190409 0.721096 -0.077568
H1    H     H_    0.615355 0.814982 0.012982 0.146294
H2    H     H_    0.849675 0.769997 0.788130 0.151127
H3    H     H_    0.391828 0.671138 0.778465 0.145342
H4    H     H_    0.303817 0.640073 0.750396 0.167097
H5    H     H_    0.816708 0.766215 0.386836 0.105717
H6    H     H_    0.737184 0.802372 0.373064 0.129295
H7    H     H_    0.647492 0.761029 0.324762 0.131216
H8    H     H_    0.637345 0.683129 0.290320 0.131032
H9    H     H_    0.716097 0.646607 0.302854 0.163928
H10   H     H_    0.683300 0.266213 0.613197 0.105719
H11   H     H_    0.762816 0.302371 0.626954 0.129292
H12   H     H_    0.852490 0.261024 0.675202 0.131215
H13   H     H_    0.650321 0.270005 0.211862 0.151130
H14   H     H_    0.862626 0.183119 0.709606 0.130995
H15   H     H_    0.783884 0.146597 0.697088 0.163872
H16   H     H_    0.303100 0.254282 0.393366 0.103828
H17   H     H_    0.215005 0.284843 0.365881 0.128883
H18   H     H_    0.117335 0.243487 0.279310 0.125624
H19   H     H_    0.108073 0.171080 0.221370 0.145471
H20   H     H_    0.196088 0.140034 0.249436 0.166626
H21   H     H_    0.144314 0.690954 0.479200 0.138364
H22   H     H_    0.152061 0.659171 0.379901 0.136807
H23   H     H_    0.167218 0.580950 0.381127 0.128799
H24   H     H_    0.346479 0.251018 0.780948 0.147158
H25   H     H_    0.175223 0.533387 0.482661 0.138381
H26   H     H_    0.169138 0.564229 0.583580 0.152587
H27   H     H_    0.863922 0.701467 0.526713 0.136957
H28   H     H_    0.858659 0.674660 0.630937 0.136510
H29   H     H_    0.853810 0.596669 0.648235 0.130292
H30   H     H_    0.852971 0.544322 0.559106 0.133140
H31   H     H_    0.854581 0.569946 0.450986 0.159848
H32   H     H_    0.636076 0.201469 0.473286 0.136962
H33   H     H_    0.641335 0.174663 0.369057 0.136509
H34   H     H_    0.646160 0.096672 0.351730 0.130296
H35   H     H_    0.138135 0.628651 0.872573 0.200060
H36   H     H_    0.646981 0.044324 0.440838 0.133142
H37   H     H_    0.645380 0.069945 0.548968 0.159870
H38   H     H_    0.355668 0.190920 0.520780 0.138341
H39   H     H_    0.347933 0.159132 0.620088 0.136801
H40   H     H_    0.332724 0.080914 0.618801 0.128790
H41   H     H_    0.324661 0.033361 0.517203 0.138386
H42   H     H_    0.330744 0.064210 0.416284 0.152498
H43   H     H_    0.704577 0.660195 0.104892 0.149284
H44   H     H_    0.725157 0.594319 0.063558 0.138940
H45   H     H_    0.642054 0.561704 0.916314 0.129461
H46   H     H_    0.857344 0.626241 0.123754 0.206028
H47   H     H_    0.538096 0.595370 0.810183 0.133596
H48   H     H_    0.516909 0.661494 0.850590 0.122797
H49   H     H_    0.300340 0.658932 0.870641 0.151348
H50   H     H_    0.263107 0.593875 0.889362 0.141444
H51   H     H_    0.324505 0.562831 0.037889 0.130944
H52   H     H_    0.423405 0.596959 0.167755 0.126313
H53   H     H_    0.460992 0.662129 0.149648 0.120654
H54   H     H_    0.199473 0.158911 0.129861 0.151733
H55   H     H_    0.237044 0.093847 0.111724 0.141503
H56   H     H_    0.176200 0.062812 0.963340 0.131002
H57   H     H_    0.642655 0.126243 0.876247 0.206019
H58   H     H_    0.077512 0.096952 0.833038 0.126150
H59   H     H_    0.039592 0.162129 0.850568 0.120659
H60   H     H_    0.795459 0.160188 0.895296 0.149226
H61   H     H_    0.774963 0.094318 0.936752 0.138956
H62   H     H_    0.858149 0.061715 0.083983 0.129488
H63   H     H_    0.962104 0.095390 0.189981 0.133644
H64   H     H_    0.983207 0.161511 0.149458 0.122826
H65   H     H_    0.027742 0.546788 0.716733 0.107681
H66   H     H_    0.940646 0.529753 0.263263 0.094825
H67   H     H_    0.559343 0.029757 0.736731 0.094837
H68   H     H_    0.361882 0.128659 0.127444 0.199992
H69   H     H_    0.472317 0.046834 0.283309 0.107668
H70   H     H_    0.553053 0.594441 0.027490 0.069126
H71   H     H_    0.473116 0.598405 0.040477 0.066044
H72   H     H_    0.026968 0.098619 0.958871 0.066368
H73   H     H_    0.946908 0.094437 0.972393 0.069773
H74   H     H_    0.149181 0.881366 0.043291 0.130745
H75   H     H_    0.036809 0.877725 0.943424 0.116043
H76   H     H_    0.989911 0.859137 0.000700 0.158888
H77   H     H_    0.056420 0.846270 0.157936 0.135360
H78   H     H_    0.168868 0.841658 0.257586 0.158796
H79   H     H_    0.069880 0.612555 0.534988 0.168171
H80   H     H_    0.821593 0.922185 0.905551 0.135052
H81   H     H_    0.917344 0.960568 0.972353 0.135644
H82   H     H_    0.968599 0.946391 0.920734 0.136306
H83   H     H_    0.927409 0.890182 0.808629 0.134506
H84   H     H_    0.834813 0.848528 0.746199 0.150465
H85   H     H_    0.678403 0.422186 0.094433 0.135039
H86   H     H_    0.582648 0.460568 0.027620 0.135575
H87   H     H_    0.531391 0.446396 0.079237 0.136237
H88   H     H_    0.572584 0.390192 0.191352 0.134493
H89   H     H_    0.665181 0.348538 0.253790 0.150465
H90   H     H_    0.936527 0.613721 0.468650 0.164397
H91   H     H_    0.350820 0.381370 0.956702 0.130749
H92   H     H_    0.463191 0.377729 0.056569 0.116045
H93   H     H_    0.510088 0.359131 0.999294 0.158894
H94   H     H_    0.443579 0.346254 0.842062 0.135355
H95   H     H_    0.331130 0.341644 0.742414 0.158791
H96   H     H_    0.223820 0.920300 0.313262 0.052360
H97   H     H_    0.752452 0.912303 0.640996 0.057145
H98   H     H_    0.747539 0.412312 0.358987 0.057146
H99   H     H_    0.276184 0.420288 0.686735 0.052333
H100  H     H_    0.436548 0.868230 0.482047 -0.012513
H101  H     H_    0.563460 0.113723 0.531345 0.164383
H102  H     H_    0.549127 0.865849 0.510158 -0.008771
H103  H     H_    0.950866 0.365849 0.489840 -0.008773
H104  H     H_    0.063453 0.368230 0.517949 -0.012516
H105  H     H_    0.383145 0.814132 0.984080 0.148496
H106  H     H_    0.430077 0.112550 0.464987 0.168187
H107  H     H_    0.455057 0.852515 0.991014 0.147776
H108  H     H_    0.541770 0.852990 0.003824 0.147007
H109  H     H_    0.958117 0.352992 0.995943 0.147007
H110  H     H_    0.044806 0.352521 0.008702 0.147796
H111  H     H_    0.410490 0.845687 0.181897 0.132429
H112  H     H_    0.590627 0.843906 0.817508 0.137343
H113  H     H_    0.909377 0.343902 0.182497 0.137344
H114  H     H_    0.089507 0.345684 0.818095 0.132421
H115  H     H_    0.229010 0.828599 0.122507 0.143394
H116  H     H_    0.116753 0.314141 0.015709 0.148463
H117  H     H_    0.775805 0.841375 0.879064 0.146365
H118  H     H_    0.724194 0.341378 0.120930 0.146369
H119  H     H_    0.270992 0.328600 0.877494 0.143398
H120  H     H_    0.433134 0.969818 0.233591 0.139842
H121  H     H_    0.511974 0.000561 0.239535 0.154571
H122  H     H_    0.601075 0.956396 0.293683 0.129354
H123  H     H_    0.610873 0.880674 0.339580 0.141504
H124  H     H_    0.532809 0.849519 0.333912 0.130271
H125  H     H_    0.570883 0.961918 0.782792 0.122864
H126  H     H_    0.489218 0.992800 0.770469 0.165591
H127  H     H_    0.884598 0.314982 0.986922 0.146293
H128  H     H_    0.392949 0.951550 0.695093 0.129231
H129  H     H_    0.378639 0.879365 0.632616 0.148723
H130  H     H_    0.458998 0.849218 0.641887 0.122331
H131  H     H_    0.929122 0.461915 0.217213 0.122859
H132  H     H_    0.010789 0.492795 0.229541 0.165588
H133  H     H_    0.107058 0.451543 0.304919 0.129235
H134  H     H_    0.121365 0.379358 0.367393 0.148730
H135  H     H_    0.041004 0.349213 0.358117 0.122328
H136  H     H_    0.066870 0.469809 0.766423 0.139794
H137  H     H_    0.988029 0.500552 0.760479 0.154575
H138  H     H_    0.822950 0.760661 0.868684 0.152988
H139  H     H_    0.898923 0.456389 0.706316 0.129350
H140  H     H_    0.889120 0.380670 0.660401 0.141506
H141  H     H_    0.967183 0.349516 0.666066 0.130259
H142  H     H_    0.994248 0.660871 0.143128 0.143237
H143  H     H_    0.022928 0.622785 0.269423 0.165730
H144  H     H_    0.011940 0.658993 0.362120 0.138432
H145  H     H_    0.970554 0.733357 0.326836 0.123763
H146  H     H_    0.942497 0.772205 0.202180 0.143844
H147  H     H_    0.011186 0.669324 0.850892 0.143622
H148  H     H_    0.989883 0.637086 0.725699 0.154351
H149  H     H_    0.179219 0.748656 0.136735 0.153955
H150  H     H_    0.998966 0.681073 0.637592 0.135618
H151  H     H_    0.029813 0.757893 0.675365 0.113451
H152  H     H_    0.052483 0.790562 0.801145 0.130680
H153  H     H_    0.488810 0.169331 0.149120 0.143617
H154  H     H_    0.510109 0.137102 0.274314 0.154333
H155  H     H_    0.501027 0.181098 0.362413 0.135617
H156  H     H_    0.470185 0.257919 0.324630 0.113448
H157  H     H_    0.447519 0.290579 0.198846 0.130669
H158  H     H_    0.505744 0.160866 0.856864 0.143231
H159  H     H_    0.477050 0.122783 0.730557 0.165699
H160  H     H_    0.320780 0.248647 0.863263 0.153959
H161  H     H_    0.488038 0.158988 0.637860 0.138410
H162  H     H_    0.529439 0.233348 0.673155 0.123768
H163  H     H_    0.557506 0.272195 0.797820 0.143851
H164  H     H_    0.163038 0.718545 0.326821 0.113136
H165  H     H_    0.209161 0.742874 0.472136 0.139581
H166  H     H_    0.159903 0.801548 0.485132 0.113399
H167  H     H_    0.063843 0.835799 0.351069 0.121885
H168  H     H_    0.017275 0.812450 0.204963 0.115535
H169  H     H_    0.844030 0.733945 0.677626 0.117294
H170  H     H_    0.803503 0.760636 0.536370 0.142298
H171  H     H_    0.677046 0.260667 0.131308 0.152986
H172  H     H_    0.852469 0.823496 0.532218 0.113459
H173  H     H_    0.942178 0.859782 0.671112 0.122976
H174  H     H_    0.984106 0.832632 0.813430 0.114713
H175  H     H_    0.655964 0.233946 0.322366 0.117293
H176  H     H_    0.696493 0.260639 0.463624 0.142297
H177  H     H_    0.647534 0.323505 0.467778 0.113460
H178  H     H_    0.557829 0.359794 0.328884 0.122975
H179  H     H_    0.515898 0.332643 0.186566 0.114710
H180  H     H_    0.336971 0.218511 0.673190 0.113139
H181  H     H_    0.290835 0.242828 0.527862 0.139564
H182  H     H_    0.153519 0.751034 0.219049 0.147157
H183  H     H_    0.340072 0.301506 0.514839 0.113403
H184  H     H_    0.436123 0.335773 0.648885 0.121879
H185  H     H_    0.482702 0.312437 0.795003 0.115524
H186  H     H_    0.182766 0.755430 0.758442 0.101236
H187  H     H_    0.805587 0.755956 0.228428 0.106295
H188  H     H_    0.694496 0.255938 0.771658 0.106339
H189  H     H_    0.317229 0.255416 0.241560 0.101246
H190  H     H_    0.196811 0.754338 0.606597 0.103851
H191  H     H_    0.284896 0.784921 0.634085 0.128889
H192  H     H_    0.382560 0.743566 0.720589 0.125647
O1    O     O_R   0.321630 0.769940 0.143350 -0.620563
O2    O     O_R   0.508520 0.954180 0.591620 -0.588132
O3    O     O_R   0.991480 0.454180 0.408380 -0.588134
O4    O     O_R   0.008520 0.454180 0.591620 -0.585495
O5    O     O_R   0.416890 0.954190 0.408420 -0.602566
O6    O     O_R   0.583110 0.954190 0.591580 -0.602945
O7    O     O_R   0.916890 0.454190 0.408420 -0.602940
O8    O     O_R   0.083110 0.454190 0.591580 -0.602557
O9    O     O_R   0.269950 0.821660 0.039930 -0.628223
O10   O     O_R   0.730050 0.821660 0.960070 -0.626886
O11   O     O_R   0.769950 0.321660 0.039930 -0.626885
O12   O     O_R   0.678370 0.769940 0.856650 -0.615575
O13   O     O_R   0.230050 0.321660 0.960070 -0.628219
O14   O     O_R   0.341900 0.724110 0.051720 -0.633866
O15   O     O_R   0.658100 0.724110 0.948280 -0.632702
O16   O     O_R   0.841900 0.224110 0.051720 -0.632712
O17   O     O_R   0.158100 0.224110 0.948280 -0.633917
O18   O     O_R   0.290220 0.775830 0.948290 -0.601837
O19   O     O_R   0.709780 0.775830 0.051710 -0.610396
O20   O     O_R   0.790220 0.275830 0.948290 -0.610482
O21   O     O_R   0.209780 0.275830 0.051710 -0.601851
O22   O     O_R   0.230030 0.678320 0.960120 -0.608617
O23   O     O_R   0.821630 0.269940 0.143350 -0.615568
O24   O     O_R   0.769970 0.678320 0.039880 -0.618390
O25   O     O_R   0.730030 0.178320 0.960120 -0.618439
O26   O     O_R   0.269970 0.178320 0.039880 -0.608483
O27   O     O_R   0.178350 0.730040 0.856700 -0.648039
O28   O     O_R   0.821650 0.730040 0.143300 -0.652126
O29   O     O_R   0.678350 0.230040 0.856700 -0.652116
O30   O     O_R   0.321650 0.230040 0.143300 -0.648143
O31   O     O_R   0.209770 0.724150 0.051760 -0.617259
O32   O     O_R   0.790230 0.724150 0.948240 -0.614163
O33   O     O_R   0.709770 0.224150 0.051760 -0.614155
O34   O     O_R   0.178370 0.269940 0.856650 -0.620601
O35   O     O_R   0.290230 0.224150 0.948240 -0.617285
O36   O     O_R   0.158090 0.775870 0.948330 -0.640935
O37   O     O_R   0.841910 0.775870 0.051670 -0.645453
O38   O     O_R   0.658090 0.275870 0.948330 -0.645448
O39   O     O_R   0.341910 0.275870 0.051670 -0.640929
O40   O     O_R   0.991500 0.545800 0.408400 -0.643089
O41   O     O_R   0.008500 0.545800 0.591600 -0.656894
O42   O     O_R   0.491500 0.045800 0.408400 -0.656894
O43   O     O_R   0.508500 0.045800 0.591600 -0.643093
O44   O     O_2   0.266126 0.741881 0.807492 -0.580615
O45   O     O_R   0.916920 0.545810 0.408440 -0.622465
O46   O     O_2   0.726699 0.733410 0.184812 -0.572957
O47   O     O_2   0.773357 0.233351 0.815236 -0.572908
O48   O     O_2   0.233865 0.241895 0.192515 -0.580711
O49   O     O_2   0.094622 0.555048 0.844710 -0.592317
O50   O     O_2   0.918033 0.560924 0.163334 -0.603729
O51   O     O_2   0.581968 0.060927 0.836670 -0.603726
O52   O     O_2   0.405386 0.055039 0.155320 -0.592322
O53   O     O_2   0.627539 0.627301 0.127934 -0.587403
O54   O     O_2   0.405923 0.609976 0.911772 -0.594406
O55   O     O_2   0.093531 0.109706 0.087850 -0.594137
O56   O     O_R   0.083080 0.545810 0.591560 -0.621333
O57   O     O_2   0.872398 0.127326 0.872066 -0.587474
O58   O     O_2   0.276361 0.878206 0.411840 -0.560389
O59   O     O_2   0.705146 0.861028 0.564480 -0.564761
O60   O     O_2   0.794845 0.361038 0.435508 -0.564767
O61   O     O_2   0.223635 0.378197 0.588153 -0.560397
O62   O     O_2   0.387332 0.906647 0.489069 -0.531950
O63   O     O_2   0.596782 0.898676 0.493266 -0.543429
O64   O     O_2   0.903211 0.398685 0.506724 -0.543423
O65   O     O_2   0.112669 0.406650 0.510933 -0.531948
O66   O     O_R   0.416920 0.045810 0.408440 -0.621341
O67   O     O_R   0.583080 0.045810 0.591560 -0.622463
O68   O     O_R   0.491480 0.954180 0.408380 -0.585492
Zn1   Zn    Zn3+2 0.284500 0.715460 0.069080 0.966834
Zn2   Zn    Zn3+2 0.450210 0.999990 0.500010 0.992394
Zn3   Zn    Zn3+2 0.049790 0.499990 0.499990 0.992384
Zn4   Zn    Zn3+2 0.950210 0.499990 0.500010 0.973868
Zn5   Zn    Zn3+2 0.715500 0.715460 0.930920 0.968906
Zn6   Zn    Zn3+2 0.784500 0.215460 0.069080 0.968884
Zn7   Zn    Zn3+2 0.215500 0.215460 0.930920 0.966733
Zn8   Zn    Zn3+2 0.215490 0.784530 0.930970 0.924973
Zn9   Zn    Zn3+2 0.784510 0.784530 0.069030 0.915145
Zn10  Zn    Zn3+2 0.715490 0.284530 0.930970 0.915101
Zn11  Zn    Zn3+2 0.284510 0.284530 0.069030 0.924995
Zn12  Zn    Zn3+2 0.549790 0.999990 0.499990 0.973858

loop_
_geom_bond_atom_site_label_1
_geom_bond_atom_site_label_2
_ccdc_geom_bond_type
C21   C26   A    
C150  H178  S    
C126  C127  A    
C285  H103  S    
C267  H86   S    
C48   O40   A    
C160  C355  S    
C66   C222  S    
C161  C356  S    
O36   Zn8   S    
C114  C115  A    
C168  C278  S    
C279  C312  A    
O21   Zn11  S    
C202  H31   S    
C140  H169  S    
C176  C182  A    
C63   C300  S    
C301  H111  S    
C162  O48   D    
C55   O4    A    
C111  C118  A    
C192  H22   S    
C287  C314  A    
C35   H107  S    
C120  H153  S    
C252  C258  A    
C212  C283  S    
C106  C107  A    
C143  C144  A    
O38   Zn10  S    
C29   C33   A    
C212  C257  A    
C37   C245  S    
C48   O45   A    
C274  C275  A    
C225  H49   S    
C281  H98   S    
C234  H58   S    
C334  C339  A    
C275  C276  A    
C222  C229  A    
C272  C273  A    
C223  C295  S    
C165  H191  S    
C70   C74   A    
C194  H25   S    
C325  C329  A    
C41   C322  S    
C132  C341  S    
C349  O30   A    
C193  C194  A    
C328  C332  A    
C318  H171  S    
C85   C307  S    
C160  H187  S    
C87   H126  S    
O45   Zn4   S    
C199  C200  A    
O15   Zn5   S    
C303  H112  S    
C164  H190  S    
C99   H136  S    
C278  H96   S    
C88   H128  S    
C234  C236  A    
C276  H94   S    
C101  C290  A    
C249  H71   S    
C250  H72   S    
C155  H183  S    
C319  C323  A    
C297  O18   A    
O5    Zn2   S    
C180  H12   S    
C27   C31   A    
C191  C192  A    
C14   H90   S    
C5    C355  A    
C55   O8    A    
C28   C32   A    
C315  H138  S    
C140  C141  A    
C248  C346  S    
C317  C339  A    
C62   C66   A    
C206  C207  A    
O31   Zn1   S    
C76   C324  A    
C141  H170  S    
C157  C272  S    
C82   C83   A    
C17   C21   A    
C35   C313  A    
C115  H148  S    
C174  H8    S    
C19   C23   A    
C183  C184  A    
C17   C43   A    
C200  H30   S    
C18   C44   A    
C240  H62   S    
C227  C228  A    
C16   C20   A    
C343  C352  A    
C117  H151  S    
O18   Zn8   S    
C306  C310  A    
C111  C325  S    
C58   C313  A    
C39   C320  S    
C248  H70   S    
C154  C155  A    
C40   C319  S    
C245  H67   S    
C237  C242  A    
O6    Zn12  S    
O13   Zn11  S    
C280  H97   S    
O40   Zn3   S    
C16   H106  S    
C22   C27   A    
C226  H50   S    
C159  C354  S    
C37   C45   A    
C2    C71   A    
C125  H157  S    
C233  H56   S    
C286  H104  S    
C164  C165  A    
C34   C243  S    
C300  O17   A    
C24   C251  S    
C218  H44   S    
C315  C337  A    
C196  C197  A    
C112  O10   A    
C139  C140  A    
C148  H176  S    
C13   C72   A    
O19   Zn9   S    
C59   C63   A    
C33   C38   A    
C7    C183  S    
C60   C64   A    
C284  H102  S    
C110  H146  S    
C211  H39   S    
O67   Zn12  S    
C345  O27   A    
C235  C279  A    
C68   C324  A    
C236  H59   S    
C78   C306  S    
C183  C188  A    
C327  C331  A    
C276  C277  A    
C224  C284  S    
C53   O6    A    
C106  H142  S    
C156  C158  A    
C52   C310  S    
C130  C131  A    
O32   Zn5   S    
C53   C311  S    
C184  H16   S    
C329  C342  A    
C20   C47   A    
C250  O55   D    
C208  H37   S    
C61   C65   A    
C159  O44   D    
C88   C89   A    
C200  C202  A    
C98   C99   A    
C339  C353  A    
C155  C156  A    
C73   C77   A    
C31   C36   A    
C190  C235  A    
C113  C157  A    
C186  C187  A    
C145  C343  S    
C148  C149  A    
C44   C48   S    
C252  C253  A    
C52   O5    A    
O11   Zn10  S    
C338  C350  A    
C59   C324  A    
C146  C265  S    
C95   C96   A    
C152  C344  S    
C147  C148  A    
C300  O21   A    
C1    O9    A    
C128  C129  A    
O9    Zn8   S    
O37   Zn9   S    
C100  H137  S    
C60   C335  A    
C70   C346  A    
C85   C86   A    
C108  C109  A    
O3    Zn3   S    
C42   O39   A    
C209  C215  A    
C205  H33   S    
C301  C306  A    
C251  H73   S    
C32   H57   S    
C353  H24   S    
C303  C307  A    
C261  C262  A    
C337  C351  A    
C78   C80   A    
C170  C171  A    
C90   C289  A    
C115  C116  A    
C53   O2    A    
O23   Zn6   S    
C184  C185  A    
C243  O49   D    
C241  C242  A    
C249  O54   D    
C189  C191  A    
C174  C175  A    
C92   C93   A    
O24   Zn5   S    
C3    C162  S    
C217  H43   S    
C316  C338  A    
C173  H7    S    
O35   Zn7   S    
C126  C327  S    
C204  C205  A    
C5    C170  S    
C89   C91   A    
C81   H121  S    
C233  C234  A    
C131  H163  S    
C344  C353  A    
C229  H53   S    
C60   H127  S    
C264  H84   S    
O12   Zn5   S    
C247  O52   D    
C124  C168  A    
C237  C238  A    
C29   C349  S    
C21   C354  A    
C161  O47   D    
C230  C231  A    
C116  H150  S    
C50   O42   A    
C220  C221  A    
C112  O12   A    
C92   C97   A    
C225  C226  A    
C47   C50   S    
C57   H109  S    
C43   C49   S    
C30   C34   A    
C268  C311  A    
C292  C296  A    
C332  C333  A    
C281  O60   D    
C244  O50   D    
C30   H35   S    
O34   Zn7   S    
C55   C314  S    
C96   H134  S    
C177  H10   S    
C95   H133  S    
C222  C225  A    
C217  C218  A    
C64   C69   A    
C54   O7    A    
C257  C288  A    
O43   Zn2   S    
C133  H164  S    
C257  C310  A    
C283  O62   D    
C5    C9    A    
C4    C354  A    
C341  C350  A    
C57   C335  A    
C83   C84   A    
C8    C12   A    
C209  C210  A    
C4    C163  S    
C121  H154  S    
C56   C61   A    
C32   C37   A    
C230  C236  A    
C282  H99   S    
C75   C313  A    
C179  C280  S    
C50   O66   A    
C246  C286  S    
C157  C201  A    
C57   C68   A    
C293  C301  A    
C122  H155  S    
C120  C121  A    
C136  H166  S    
C129  C130  A    
O8    Zn3   S    
C2    C346  A    
C151  H179  S    
C304  H113  S    
C52   O68   A    
O28   Zn9   S    
C175  H9    S    
C31   H46   S    
O42   Zn12  S    
C283  H100  S    
C331  C336  A    
C136  C137  A    
C201  C282  S    
C291  O13   A    
C19   C45   A    
C26   C30   A    
C262  C263  A    
C119  C326  S    
C79   C124  A    
C135  C259  S    
C239  H61   S    
C190  C281  S    
C263  H83   S    
C179  C224  A    
O22   Zn1   S    
C112  C294  S    
C182  H15   S    
C93   H131  S    
C134  H165  S    
C79   H115  S    
C124  C252  S    
C117  C118  A    
C207  H36   S    
C166  C167  A    
C305  C309  A    
C240  C241  A    
C275  H93   S    
O66   Zn2   S    
C77   C335  A    
C102  C103  A    
C352  H13   S    
C54   C312  S    
C128  H159  S    
C331  C344  A    
C304  C308  A    
C348  O25   A    
C226  C227  A    
C142  C143  A    
C62   C297  S    
C329  C333  A    
C287  C292  A    
C152  C153  A    
C317  H160  S    
C268  C289  A    
C308  C312  A    
O33   Zn6   S    
C58   C62   A    
C87   C88   A    
C269  H87   S    
C172  H6    S    
C206  H34   S    
C239  C240  A    
C169  H4    S    
C203  C204  A    
C108  H144  S    
C328  C341  A    
C127  H158  S    
C263  C264  A    
C213  C214  A    
C273  H91   S    
C220  H47   S    
C15   C19   A    
C274  H92   S    
C130  H162  S    
C138  H168  S    
C262  H82   S    
C284  O63   D    
C178  H11   S    
C105  C110  A    
C188  H20   S    
C3    C7    A    
C260  H80   S    
C298  O19   A    
C24   C73   A    
C123  C125  A    
C33   H68   S    
C20   C25   A    
C132  C138  A    
C296  C305  A    
C266  H85   S    
C197  H27   S    
C223  O11   A    
C216  C221  A    
C228  C229  A    
C227  H51   S    
C114  H147  S    
C56   C302  A    
C248  O53   D    
C12   C17   A    
C326  C330  A    
C39   O36   A    
C69   C73   A    
C256  H77   S    
C330  C343  A    
C241  H63   S    
C10   C203  S    
C242  H64   S    
C351  H2    S    
C4    C8    A    
O4    Zn4   S    
C194  C195  A    
C271  H89   S    
C18   C22   A    
C269  C270  A    
C25   C29   A    
C137  H167  S    
C145  C147  A    
C152  C158  A    
C170  C175  A    
O41   Zn4   S    
C142  H172  S    
O30   Zn11  S    
C318  C322  A    
C282  O61   D    
C207  C208  A    
C36   C244  S    
C322  C327  A    
C299  O20   A    
C3    C25   A    
C12   H79   S    
C28   C348  S    
C259  C264  A    
C255  H76   S    
C86   C87   A    
C260  C261  A    
C92   C308  S    
C89   H129  S    
C205  C206  A    
C113  H119  S    
C147  H175  S    
C332  C337  A    
C9    C14   A    
C224  C268  A    
C254  C255  A    
C347  O28   A    
C189  C195  A    
C66   C71   A    
C219  H45   S    
C8    C189  S    
C279  C290  A    
C68   H110  S    
C98   C309  S    
C94   H132  S    
C272  C277  A    
C320  C325  A    
C121  C122  A    
C119  C125  A    
C191  H21   S    
C56   H1    S    
C232  H55   S    
C133  C134  A    
O39   Zn11  S    
C127  C128  A    
C97   H135  S    
C219  C220  A    
C180  C181  A    
C144  H174  S    
C203  C208  A    
C195  H26   S    
C245  O51   D    
C318  C340  A    
C238  C239  A    
C90   H117  S    
C201  C246  A    
C39   O31   A    
C14   C18   A    
C214  H41   S    
C103  H140  S    
C6    C10   A    
O68   Zn12  S    
C178  C180  A    
C309  C314  A    
C27   C347  S    
C149  H177  S    
C105  C106  A    
C54   O3    A    
C315  C319  A    
C289  C294  A    
C161  H188  S    
C316  C320  A    
C83   H123  S    
C166  H192  S    
C291  C296  S    
C265  C271  A    
C109  H145  S    
C187  C188  A    
C149  C150  A    
C228  H52   S    
C267  C269  A    
C107  H143  S    
C185  C186  A    
C253  C254  A    
C333  C338  A    
C129  H161  S    
C232  C233  A    
C49   O41   A    
C74   C302  A    
C111  C114  A    
C307  C311  A    
O7    Zn4   S    
C94   C95   A    
C163  C169  A    
C51   O43   A    
C159  H186  S    
C342  C351  A    
C91   H130  S    
C317  C321  A    
C185  H17   S    
C177  C178  A    
C223  O23   A    
C280  O59   D    
C198  H28   S    
C103  C104  A    
C105  C323  S    
C270  C271  A    
C187  H19   S    
C1    C293  S    
C35   C46   A    
C65   C70   A    
C171  C172  A    
C167  H3    S    
C165  C166  A    
C90   C135  A    
C243  H65   S    
O29   Zn10  S    
C168  C212  A    
C163  C164  A    
C104  H141  S    
C336  C340  A    
C81   C82   A    
C85   C91   A    
C9    C196  S    
C173  C174  A    
C40   O37   A    
C113  C292  A    
C7    C11   A    
C13   C250  S    
C251  O57   D    
C244  H66   S    
C123  H156  S    
C253  H74   S    
C67   C72   A    
C10   C15   A    
C193  H23   S    
C340  C352  A    
C334  C336  A    
C45   C51   S    
C51   O67   A    
C181  C182  A    
C297  O14   A    
C160  O46   D    
C116  C117  A    
C323  C328  A    
C11   C16   A    
C330  C334  A    
O27   Zn8   S    
C15   H101  S    
C41   O38   A    
O26   Zn7   S    
C67   C230  S    
C132  C133  A    
O14   Zn1   S    
C216  C217  A    
C198  C199  A    
C22   C355  A    
O16   Zn6   S    
C199  H29   S    
C265  C266  A    
C231  H54   S    
C285  O64   D    
C350  H182  S    
C349  O26   A    
C167  C169  A    
C213  H40   S    
C246  C287  A    
C197  C198  A    
C64   C299  S    
C247  H69   S    
O25   Zn6   S    
C286  O65   D    
C261  H81   S    
C63   C67   A    
C101  C146  A    
C74   C75   A    
C139  C342  S    
C290  C295  A    
C186  H18   S    
C238  H60   S    
C76   C77   A    
C65   C216  S    
C171  H5    S    
C143  H173  S    
C86   H125  S    
C214  C215  A    
C181  H14   S    
C154  H181  S    
C134  C136  A    
C294  C303  A    
C288  C293  A    
C305  H114  S    
C13   C24   A    
C256  C258  A    
C26   C345  S    
O2    Zn2   S    
C158  H185  S    
C46   C302  A    
O1    Zn1   S    
C255  C256  A    
C270  H88   S    
C139  C144  A    
O56   Zn3   S    
C99   C100  A    
C107  C108  A    
C162  H189  S    
C96   C97   A    
C100  C102  A    
C273  C274  A    
C102  H139  S    
C72   C76   A    
C210  H38   S    
C93   C94   A    
C277  H95   S    
C119  C120  A    
C46   H108  S    
C204  H32   S    
C38   C47   A    
C145  C151  A    
C153  H180  S    
C82   H122  S    
C176  C177  A    
C211  C213  A    
C215  H42   S    
C40   O32   A    
C316  H149  S    
C299  O16   A    
C23   C28   A    
C49   O56   A    
C196  C202  A    
C259  C260  A    
C172  C173  A    
C41   O33   A    
C348  O29   A    
C345  O22   A    
C79   C288  A    
C61   C298  S    
O10   Zn9   S    
C150  C151  A    
C101  H118  S    
C2    C249  S    
C254  H75   S    
C291  O34   A    
C80   C81   A    
C42   C321  S    
C347  O24   A    
C80   H120  S    
C1    O1    A    
C137  C138  A    
C58   H105  S    
C298  O15   A    
C192  C193  A    
C23   C356  A    
C122  C123  A    
C135  C179  A    
C141  C142  A    
C11   C209  S    
C71   C75   A    
C278  O58   D    
O17   Zn7   S    
C218  C219  A    
C6    C176  S    
C126  C131  A    
C98   C104  A    
C38   C247  S    
C42   O35   A    
C235  C285  S    
C321  C326  A    
C36   C44   A    
C266  C267  A    
C78   C84   A    
C221  H48   S    
C210  C211  A    
C84   H124  S    
C109  C110  A    
C231  C232  A    
C156  H184  S    
O20   Zn10  S    
C59   H116  S    
C146  C190  A    
C118  H152  S    
C258  H78   S    
C153  C154  A    
C34   C43   A    
C69   C237  S    
C295  C304  A    
C6    C356  A    
