data_mof_unit_51220.cif
_audit_creation_date              2012-12-10T16:50:57-0500
_audit_creation_method            fapswitch 2.2
_symmetry_space_group_name_H-M    P1
_symmetry_Int_Tables_number       1
_space_group_crystal_system       triclinic
_cell_length_a                    8.072351
_cell_length_b                    8.575602
_cell_length_c                    10.576008
_cell_angle_alpha                 91.981091
_cell_angle_beta                  87.569284
_cell_angle_gamma                 92.434927
_cell_volume                      730.413962657

loop_
_atom_site_label
_atom_site_type_symbol
_atom_type_description
_atom_site_fract_x
_atom_site_fract_y
_atom_site_fract_z
_atom_type_partial_charge
C1    C     C_R   0.543880 0.793047 0.498442 0.924716
C2    C     C_R   0.931969 0.524946 0.077117 -0.073597
C3    C     C_R   0.069961 0.609991 0.031268 -0.164053
C4    C     C_R   0.928572 0.414791 0.974575 -0.151848
C5    C     C_R   0.208455 0.618258 0.106805 -0.222172
C6    C     C_R   0.790759 0.401242 0.898844 -0.170044
C7    C     C_R   0.350495 0.543033 0.064348 0.101809
C8    C     C_R   0.647529 0.475763 0.939026 0.091014
C9    C     C_R   0.352266 0.465988 0.945720 0.080132
C10   C     C_R   0.644517 0.555596 0.056560 0.086988
C11   C     C_R   0.496753 0.560523 0.127837 -0.233756
C12   C     C_R   0.456432 0.207115 0.502218 0.915045
C13   C     C_R   0.501399 0.454522 0.875387 -0.245822
C14   C     C_3   0.983677 0.257865 0.329974 0.155472
C15   C     C_3   0.012563 0.083523 0.318023 -0.365737
C16   C     C_3   0.981222 0.020182 0.184575 -1.018494
C17   C     C_3   0.017341 0.786003 0.614922 0.167780
C18   C     C_3   0.059424 0.853239 0.745900 -0.395859
C19   C     C_3   0.074535 0.031002 0.749996 -0.954306
C20   C     C_2   0.566775 0.956922 0.502144 -0.370451
C21   C     C_2   0.434632 0.043487 0.499791 -0.388908
C22   C     C_R   0.500955 0.481726 0.738899 0.848421
C23   C     C_R   0.498997 0.521804 0.262095 0.853431
C24   C     C_R   0.202658 0.418060 0.894933 -0.211209
C25   C     C_R   0.792236 0.608117 0.107661 -0.214022
C26   C     C_R   0.064230 0.502012 0.927467 -0.064834
H1    H     H_    0.956769 0.296839 0.999596 0.150758
H2    H     H_    0.309588 0.994502 0.494376 0.163381
H3    H     H_    0.083091 0.316758 0.271039 0.136182
H4    H     H_    0.857721 0.278620 0.297028 0.165302
H5    H     H_    0.142814 0.062782 0.339379 0.218878
H6    H     H_    0.929730 0.019447 0.386335 0.215397
H7    H     H_    0.851469 0.038903 0.159450 0.271813
H8    H     H_    0.001279 0.893567 0.181070 0.262462
H9    H     H_    0.068819 0.077275 0.114913 0.265922
H10   H     H_    0.910738 0.848798 0.583033 0.146695
H11   H     H_    0.118600 0.809403 0.544381 0.134734
H12   H     H_    0.044629 0.728927 0.008072 0.156801
H13   H     H_    0.957794 0.818133 0.814559 0.227029
H14   H     H_    0.177424 0.805652 0.775043 0.234025
H15   H     H_    0.181408 0.072533 0.689477 0.279711
H16   H     H_    0.094383 0.072623 0.848968 0.252062
H17   H     H_    0.959319 0.081186 0.718152 0.273051
H18   H     H_    0.197507 0.335365 0.815246 0.179990
H19   H     H_    0.792768 0.688357 0.189380 0.160214
H20   H     H_    0.037770 0.557757 0.840451 0.217100
H21   H     H_    0.954409 0.473183 0.165513 0.145408
H22   H     H_    0.210192 0.697068 0.189181 0.157874
H23   H     H_    0.790754 0.318427 0.819012 0.166399
H24   H     H_    0.692049 0.006377 0.508786 0.172715
N1    N     N_2   0.950330 0.457950 0.466250 0.137828
N2    N     N_2   0.049670 0.542050 0.533750 0.158007
O1    O     O_R   0.389250 0.738570 0.508280 -0.640965
O2    O     O_3   0.968564 0.626934 0.624441 -0.554829
O3    O     O_R   0.610750 0.261430 0.491720 -0.602091
O4    O     O_R   0.678390 0.711630 0.486650 -0.628824
O5    O     O_R   0.321610 0.288370 0.513350 -0.586337
O6    O     O_R   0.355430 0.513480 0.694040 -0.615266
O7    O     O_R   0.644570 0.486520 0.305960 -0.646719
O8    O     O_R   0.644570 0.486540 0.672410 -0.565460
O9    O     O_R   0.355430 0.513460 0.327590 -0.631798
O10   O     O_3   0.999500 0.309718 0.455961 -0.540599
Zn1   Zn    Zn3+2 0.306940 0.517990 0.514440 0.984517
Zn2   Zn    Zn3+2 0.693060 0.482010 0.485560 0.998935

loop_
_geom_bond_atom_site_label_1
_geom_bond_atom_site_label_2
_ccdc_geom_bond_type
C22   O6    A    
C4    C26   A    
C18   H13   S    
O4    Zn2   S    
C9    C24   A    
C15   H5    S    
C8    C13   A    
C17   H10   S    
C16   H7    S    
C5    C7    A    
C2    C4    A    
N2    Zn1   S    
C19   H16   S    
O8    Zn2   S    
C15   C16   S    
O3    Zn2   S    
C3    C5    A    
C17   C18   S    
C15   H6    S    
C16   H9    S    
C17   H11   S    
C23   O7    A    
O1    Zn1   S    
C24   C26   A    
O7    Zn2   S    
N1    O10   S    
C14   H4    S    
C24   H18   S    
C12   O5    A    
C6    C8    A    
C10   C25   A    
C4    C6    A    
C21   H2    S    
C19   H17   S    
C13   C22   S    
O5    Zn1   S    
C2    C25   A    
C2    C3    A    
C6    H23   S    
C22   O8    A    
C2    H21   S    
C5    H22   S    
C12   O3    A    
C10   C11   A    
C26   H20   S    
C14   H3    S    
N1    N2    D    
C14   O10   S    
C25   H19   S    
C23   O9    A    
C4    H1    S    
C9    C13   A    
C20   C21   D    
C8    C10   A    
C18   C19   S    
C11   C23   S    
O6    Zn1   S    
O9    Zn1   S    
C18   H14   S    
C1    O1    A    
C14   C15   S    
C7    C11   A    
C20   H24   S    
C16   H8    S    
C12   C21   S    
C1    O4    A    
C3    C26   A    
C17   O2    S    
N1    Zn2   S    
C19   H15   S    
C3    H12   S    
N2    O2    S    
C1    C20   S    
C7    C9    A    
