data_mof_unit_19221.cif
_audit_creation_date              2012-12-10T17:36:19-0500
_audit_creation_method            fapswitch 2.2
_symmetry_space_group_name_H-M    P1
_symmetry_Int_Tables_number       1
_space_group_crystal_system       triclinic
_cell_length_a                    12.361091
_cell_length_b                    13.195718
_cell_length_c                    15.884074
_cell_angle_alpha                 77.594178
_cell_angle_beta                  101.34207
_cell_angle_gamma                 116.610219
_cell_volume                      2247.3589398

loop_
_atom_site_label
_atom_site_type_symbol
_atom_type_description
_atom_site_fract_x
_atom_site_fract_y
_atom_site_fract_z
_atom_type_partial_charge
C1    C     C_R   0.854856 0.286609 0.507365 0.764000
C2    C     C_3   0.034129 0.393893 0.073947 0.039777
C3    C     C_3   0.003865 0.493599 0.084709 0.288351
C4    C     C_3   0.098521 0.609873 0.043954 -0.374068
C5    C     C_3   0.099549 0.608902 0.946891 -0.370752
C6    C     C_1   0.001199 0.496592 0.176067 -0.094324
C7    C     C_1   0.000126 0.496047 0.825388 -0.089496
C8    C     C_1   0.999037 0.498071 0.749352 -0.175257
C9    C     C_R   0.275207 0.022289 0.386727 -0.191543
C10   C     C_R   0.228012 0.834618 0.470248 -0.047755
C11   C     C_R   0.815126 0.084905 0.563080 -0.188880
C12   C     C_R   0.999672 0.499563 0.659562 0.818403
C13   C     C_R   0.736337 0.970186 0.580381 -0.138500
C14   C     C_R   0.613027 0.932800 0.550851 -0.186224
C15   C     C_R   0.566125 0.009640 0.499805 0.077936
C16   C     C_R   0.649410 0.124074 0.474047 0.084154
C17   C     C_R   0.439563 0.976365 0.472522 0.072509
C18   C     C_R   0.399689 0.053977 0.414123 0.166950
C19   C     C_R   0.484552 0.161212 0.381825 -0.242570
C20   C     C_R   0.607548 0.195049 0.410052 -0.200225
C21   C     C_R   0.350990 0.868302 0.501849 -0.250588
C22   C     C_R   0.189704 0.912742 0.414216 -0.196093
C23   C     C_R   0.145037 0.713376 0.487554 0.797015
C24   C     C_R   0.772696 0.163579 0.512134 -0.102079
C25   C     C_R   0.352638 0.332595 0.638381 -0.251738
C26   C     C_R   0.760107 0.645717 0.383493 0.078086
C27   C     C_R   0.663924 0.677555 0.357244 -0.258439
C28   C     C_R   0.560036 0.622583 0.400392 -0.193179
C29   C     C_R   0.551482 0.534844 0.470812 0.002796
C30   C     C_R   0.653018 0.505501 0.495421 0.285421
C31   C     C_R   0.447270 0.475716 0.518332 -0.030936
C32   C     C_R   0.449207 0.390442 0.588974 0.121898
C33   C     C_R   0.548215 0.362997 0.611440 -0.274492
C34   C     C_R   0.000145 0.500041 0.340463 0.822796
C35   C     C_R   0.647826 0.419368 0.565802 -0.168935
C36   C     C_R   0.341077 0.496924 0.499786 0.000460
C37   C     C_R   0.251481 0.357250 0.619236 0.191097
C38   C     C_3   0.031417 0.392291 0.974236 0.019880
C39   C     C_3   0.876985 0.476108 0.936899 -0.444393
C40   C     C_3   0.876843 0.474616 0.034491 -0.449130
C41   C     C_1   0.000044 0.498613 0.251052 -0.187793
C42   C     C_3   0.003202 0.493164 0.918651 0.282825
Cu1   Cu    Cu3+1 0.098280 0.475420 0.519630 0.924537
Cu2   Cu    Cu3+1 0.901720 0.524580 0.480370 0.921643
H1    H     H_    0.959316 0.312060 0.098770 0.121629
H2    H     H_    0.075424 0.680241 0.050016 0.165056
H3    H     H_    0.094712 0.887750 0.388946 0.147118
H4    H     H_    0.455795 0.219303 0.334199 0.146058
H5    H     H_    0.244402 0.081195 0.342038 0.133145
H6    H     H_    0.375047 0.807446 0.548781 0.149484
H7    H     H_    0.909147 0.112406 0.591511 0.153557
H8    H     H_    0.557694 0.842670 0.567532 0.131079
H9    H     H_    0.770441 0.910193 0.619280 0.146740
H10   H     H_    0.953468 0.311092 0.957620 0.125056
H11   H     H_    0.669118 0.276442 0.378865 0.176945
H12   H     H_    0.549277 0.297347 0.665652 0.150850
H13   H     H_    0.356654 0.267801 0.692503 0.181825
H14   H     H_    0.332229 0.559946 0.446603 0.132160
H15   H     H_    0.840252 0.688899 0.349521 0.123888
H16   H     H_    0.488289 0.650556 0.377730 0.135698
H17   H     H_    0.669972 0.745096 0.303281 0.142380
H18   H     H_    0.719303 0.392875 0.588788 0.205338
H19   H     H_    0.854030 0.546439 0.898361 0.189374
H20   H     H_    0.804859 0.394301 0.916522 0.166481
H21   H     H_    0.806313 0.391179 0.061388 0.166064
H22   H     H_    0.851386 0.542752 0.042339 0.186551
H23   H     H_    0.191998 0.625179 0.935094 0.168917
H24   H     H_    0.079679 0.680459 0.907265 0.167522
H25   H     H_    0.191098 0.629244 0.079092 0.167619
N1    N     N_R   0.246300 0.438200 0.549400 -0.221588
N2    N     N_R   0.754300 0.561180 0.451130 -0.207928
O1    O     O_R   0.972520 0.318130 0.524690 -0.608043
O2    O     O_R   0.806530 0.359650 0.491530 -0.602010
O3    O     O_R   0.083030 0.479240 0.637150 -0.596495
O4    O     O_R   0.917040 0.520750 0.603990 -0.588982
O5    O     O_R   0.193470 0.640350 0.508470 -0.584704
O6    O     O_R   0.027480 0.681870 0.475310 -0.585682
O7    O     O_R   0.082960 0.479250 0.396010 -0.575337
O8    O     O_R   0.916970 0.520760 0.362850 -0.587538
C43   C     C_3   0.144137 0.387443 0.949820 -0.821300
H26   H     H_    0.228996 0.464037 0.964097 0.236659
H27   H     H_    0.154093 0.309427 0.985422 0.237035
H28   H     H_    0.133315 0.381227 0.879834 0.250501
C44   C     C_3   0.151349 0.394951 0.131404 -0.864995
H29   H     H_    0.233711 0.471318 0.110868 0.242383
H30   H     H_    0.146143 0.394085 0.200506 0.236247
H31   H     H_    0.162059 0.316562 0.128982 0.231126
C45   C     C_2   0.153501 0.293528 0.677223 0.331039
H32   H     H_    0.064893 0.292518 0.661148 0.133963
O9    O     O_2   0.171102 0.238524 0.746639 -0.588031

loop_
_geom_bond_atom_site_label_1
_geom_bond_atom_site_label_2
_ccdc_geom_bond_type
C5    C42   S    
Cu1   O1    S    
C12   O3    A    
C37   C45   S    
C2    C44   S    
C19   C20   A    
C44   H31   S    
C23   O5    A    
C5    H23   S    
C3    C6    S    
C30   N2    A    
C7    C8    T    
C4    H2    S    
C10   C22   A    
Cu1   O7    S    
C39   H20   S    
C26   C27   A    
C30   C35   A    
Cu2   O6    S    
C44   H30   S    
C38   C42   S    
C36   H14   S    
C20   H11   S    
C9    C22   A    
C15   C16   A    
C11   C24   A    
Cu2   N2    S    
C18   C19   A    
C7    C42   S    
C21   H6    S    
C27   H17   S    
C25   C37   A    
C14   H8    S    
C36   N1    A    
C6    C41   T    
C26   H15   S    
C16   C20   A    
C33   H12   S    
C22   H3    S    
C16   C24   A    
C40   H22   S    
C37   N1    A    
C26   N2    A    
C34   C41   S    
C25   H13   S    
C43   H28   S    
C4    H25   S    
C5    H24   S    
C39   C42   S    
C13   H9    S    
C28   H16   S    
C10   C21   A    
C1    O1    A    
C9    H5    S    
C44   H29   S    
C43   H27   S    
C39   C40   S    
C19   H4    S    
C4    C5    S    
C17   C21   A    
Cu2   O4    S    
Cu1   Cu2   S    
C29   C30   A    
C34   O8    A    
C2    C38   S    
C31   C32   A    
C38   H10   S    
C8    C12   S    
C17   C18   A    
C23   O6    A    
C45   O9    D    
C3    C40   S    
Cu1   N1    S    
C40   H21   S    
C3    C4    S    
Cu1   O5    S    
C15   C17   A    
C28   C29   A    
C31   C36   A    
Cu2   O8    S    
C43   H26   S    
C10   C23   S    
C39   H19   S    
C1    O2    A    
C32   C33   A    
C2    C3    S    
C29   C31   A    
C34   O7    A    
C11   C13   A    
C38   C43   S    
Cu1   O3    S    
C33   C35   A    
C35   H18   S    
Cu2   O2    S    
C11   H7    S    
C2    H1    S    
C9    C18   A    
C45   H32   S    
C1    C24   S    
C12   O4    A    
C27   C28   A    
C14   C15   A    
C13   C14   A    
C25   C32   A    
