data_mof_unit_67792.cif
_audit_creation_date              2013-03-05T15:41:22-0500
_audit_creation_method            fapswitch 2.2
_symmetry_space_group_name_H-M    P1
_symmetry_Int_Tables_number       1
_space_group_crystal_system       triclinic
_cell_length_a                    8.933032
_cell_length_b                    9.267575
_cell_length_c                    11.784841
_cell_angle_alpha                 99.721769
_cell_angle_beta                  84.495672
_cell_angle_gamma                 90.260065
_cell_volume                      957.125585888

loop_
_atom_site_label
_atom_site_type_symbol
_atom_site_description
_atom_site_fract_x
_atom_site_fract_y
_atom_site_fract_z
_atom_type_partial_charge
O1    O     O_R   0.389250 0.738570 0.508370 -0.519265
O2    O     O_R   0.678390 0.711620 0.486510 -0.496099
C1    C     C_R   0.538560 0.788371 0.496062 0.829106
O3    O     O_R   0.355430 0.513500 0.696140 -0.476430
O4    O     O_R   0.644580 0.486550 0.674270 -0.536409
C2    C     C_R   0.499205 0.501883 0.739551 0.928628
Zn1   Zn    Zn3+2 0.306940 0.517990 0.514600 1.240092
Zn2   Zn    Zn3+2 0.693060 0.482010 0.485400 1.248943
O5    O     O_R   0.321610 0.288380 0.513490 -0.502768
O6    O     O_R   0.610750 0.261430 0.491630 -0.516116
O7    O     O_R   0.355420 0.513450 0.325730 -0.564182
O8    O     O_R   0.644570 0.486500 0.303860 -0.514161
C3    C     C_R   0.460191 0.211779 0.502288 0.854067
C4    C     C_R   0.498190 0.496313 0.260699 0.910353
C5    C     C_3   0.366559 0.622701 0.955450 0.534904
C6    C     C_3   0.373956 0.628365 0.099249 -0.385312
C7    C     C_3   0.460945 0.335407 0.906351 -0.337238
C8    C     C_3   0.652589 0.554695 0.931961 -0.011454
C9    C     C_3   0.493591 0.503545 0.878758 -0.327119
C10   C     C_3   0.492159 0.501706 0.122526 -0.281058
C11   C     C_3   0.448340 0.344739 0.046405 -0.273576
C12   C     C_3   0.656011 0.530011 0.068806 -0.037533
H1    H     H_    0.542113 0.276933 0.043283 0.217877
C13   C     C_2   0.553707 0.947041 0.483654 0.115667
C14   C     C_2   0.438513 0.052785 0.509195 0.103056
N1    N     N_2   0.950330 0.457950 0.465890 0.078586
N2    N     N_2   0.049670 0.542050 0.534110 0.088643
S1    S     S_3+6 0.182501 0.562399 0.932606 0.072310
O9    O     O_2   0.084955 0.677551 0.006439 -0.186909
O10   O     O_2   0.136745 0.554514 0.813413 -0.167698
O11   O     O_3   0.138938 0.408069 0.981937 -0.562175
H2    H     H_    0.077560 0.350328 0.927554 0.410085
S2    S     S_3+6 0.781116 0.373030 0.093132 0.091618
O12   O     O_2   0.707513 0.267988 0.165264 -0.168126
O13   O     O_2   0.854108 0.274613 0.989279 -0.283745
O14   O     O_3   0.911147 0.456461 0.169379 -0.442744
H3    H     H_    0.961860 0.512006 0.115419 0.433246
C15   C     C_2   0.577735 0.220652 0.838429 0.937520
O15   O     O_2   0.590335 0.200029 0.732274 -0.580190
O16   O     O_R   0.654825 0.124694 0.892269 -0.669128
H4    H     H_    0.729280 0.059692 0.836139 0.391677
S3    S     S_3+6 0.737870 0.994609 0.434144 0.108853
O17   O     O_2   0.730471 0.086169 0.340800 -0.250784
O18   O     O_2   0.798214 0.077995 0.540407 -0.174694
O19   O     O_3   0.856394 0.856564 0.375462 -0.459587
H5    H     H_    0.915310 0.892262 0.310533 0.405467
S4    S     S_3+6 0.251719 0.011766 0.564273 0.076687
O20   O     O_2   0.181997 0.892893 0.484091 -0.214905
O21   O     O_2   0.270447 0.969246 0.676930 -0.264734
O22   O     O_3   0.123879 0.145423 0.598900 -0.469001
H6    H     H_    0.039036 0.102772 0.642290 0.395581
S5    S     S_3+6 0.026168 0.302651 0.374390 0.221731
O23   O     O_2   0.942872 0.263537 0.271239 -0.123687
O24   O     O_2   0.186823 0.319736 0.337777 -0.280012
O25   O     O_3   0.017905 0.150797 0.427759 -0.406987
H7    H     H_    0.078883 0.079326 0.369664 0.387907
S6    S     S_3+6 0.977377 0.690198 0.624454 0.226434
O26   O     O_2   0.920173 0.802744 0.563192 -0.199024
O27   O     O_2   0.855297 0.636611 0.696444 -0.241055
O28   O     O_3   0.101669 0.767321 0.709386 -0.357922
H8    H     H_    0.050783 0.859774 0.747954 0.399292
S7    S     S_3+6 0.349510 0.803163 0.895266 0.204014
O29   O     O_2   0.194684 0.869605 0.919092 -0.147656
O30   O     O_2   0.443598 0.932122 0.933364 -0.157162
O31   O     O_3   0.384962 0.770046 0.751605 -0.477145
H9    H     H_    0.455875 0.844905 0.729886 0.391741
C16   C     C_2   0.394477 0.782543 0.167351 0.957918
O32   O     O_2   0.381902 0.891676 0.125669 -0.497850
O33   O     O_R   0.384844 0.803091 0.287660 -0.761858
H10   H     H_    0.370330 0.910355 0.320802 0.355705
C17   C     C_2   0.222073 0.600061 0.168277 1.110783
O34   O     O_2   0.187991 0.477011 0.180495 -0.514596
O35   O     O_R   0.123920 0.713439 0.224598 -0.737784
H11   H     H_    0.045219 0.676664 0.280198 0.378603
C18   C     C_2   0.330514 0.253775 0.852567 1.022967
O36   O     O_2   0.283676 0.141552 0.883158 -0.494072
O37   O     O_R   0.273209 0.294094 0.758692 -0.719782
H12   H     H_    0.162358 0.277000 0.762260 0.354807
C19   C     C_2   0.354228 0.238892 0.111846 1.175921
O38   O     O_2   0.410120 0.186314 0.187034 -0.581293
O39   O     O_R   0.206427 0.201555 0.090905 -0.603634
H13   H     H_    0.165035 0.122736 0.134898 0.391510
C20   C     C_2   0.788532 0.474510 0.867776 1.125673
O40   O     O_2   0.899047 0.512140 0.910026 -0.509051
O41   O     O_R   0.804874 0.363698 0.771706 -0.739961
H14   H     H_    0.912953 0.332798 0.745482 0.348275
S8    S     S_3+6 0.704742 0.749043 0.916305 0.091239
O42   O     O_2   0.656814 0.789820 0.808610 -0.302871
O43   O     O_2   0.648767 0.859600 0.019377 -0.252747
O44   O     O_3   0.889568 0.779776 0.904375 -0.374162
H15   H     H_    0.899540 0.887417 0.924548 0.405485
C21   C     C_2   0.721636 0.666870 0.142331 1.037803
O45   O     O_2   0.840960 0.718093 0.112471 -0.495939
O46   O     O_R   0.650180 0.738710 0.243856 -0.793640
H16   H     H_    0.657288 0.847326 0.244103 0.382252

loop_
_geom_bond_atom_site_label_1
_geom_bond_atom_site_label_2
_geom_bond_distance
_ccdc_geom_bond_type
O25   H7    0.991332 S    
C13   S3    1.771263 S    
O35   H11   1.012236 S    
S8    O42   1.484782 D    
O39   H13   1.013779 S    
S6    O26   1.483303 D    
Zn1   N2    2.295709 S    
S4    O21   1.471670 D    
O19   H5    0.989231 S    
C5    C9    1.673792 S    
C2    C9    1.633949 S    
N1    N2    1.400100 D    
O14   H3    0.963213 S    
O41   H14   1.012440 S    
C15   O15   1.227466 D    
O7    C4    1.418575 A    
S6    O27   1.454502 D    
C5    C6    1.694211 S    
S2    O14   1.646803 S    
Zn2   N1    2.295709 S    
C8    C9    1.643019 S    
O5    C3    1.413816 A    
S7    O30   1.489434 D    
S2    O13   1.493406 D    
O11   H2    0.972959 S    
C14   S4    1.794425 S    
S5    O25   1.634217 S    
C6    C10   1.656391 S    
O1    Zn1   2.179826 S    
C3    C14   1.500066 S    
C1    C13   1.506334 S    
O46   H16   1.007855 S    
C6    C17   1.558361 S    
S3    O18   1.501630 D    
O3    Zn1   2.230358 S    
S5    O24   1.474130 D    
C8    C20   1.497081 S    
S4    O22   1.660637 S    
C16   O32   1.206751 D    
S4    O20   1.499856 D    
C4    C10   1.643548 S    
C13   C14   1.400000 D    
O3    C2    1.438323 A    
N2    S6    1.678727 S    
C19   O39   1.397639 S    
S6    O28   1.646160 S    
O22   H6    0.991630 S    
O37   H12   1.000137 S    
C7    C11   1.631133 S    
O28   H8    0.989808 S    
C16   O33   1.392639 S    
S3    O19   1.676006 S    
Zn1   O7    2.219714 S    
C18   O36   1.216739 D    
S7    O29   1.498568 D    
N1    S5    1.742899 S    
C20   O40   1.173326 D    
Zn2   O8    2.230357 S    
C11   C19   1.545131 S    
C21   O46   1.367678 S    
S2    O12   1.506339 D    
C6    C16   1.535550 S    
C18   O37   1.369504 S    
O16   H4    1.013651 S    
C20   O41   1.390956 S    
C10   C12   1.576971 S    
C11   H1    1.043550 S    
S3    O17   1.504721 D    
C5    S1    1.764636 S    
S5    O23   1.478193 D    
C17   O35   1.405193 S    
Zn1   O5    2.130311 S    
C12   S2    1.914347 S    
S1    O9    1.484811 D    
S7    O31   1.668343 S    
C8    C12   1.669789 S    
S1    O11   1.663561 S    
O2    Zn2   2.130310 S    
O8    C4    1.456418 A    
O6    C3    1.420525 A    
O4    Zn2   2.219715 S    
C8    S8    1.892961 S    
S1    O10   1.490214 D    
O2    C1    1.425808 A    
C17   O34   1.207380 D    
C15   O16   1.395573 S    
O44   H15   0.991350 S    
O4    C2    1.439312 A    
C21   O45   1.210474 D    
C7    C9    1.663635 S    
C5    S7    1.935709 S    
C7    C15   1.556457 S    
O33   H10   1.008895 S    
C19   O38   1.226680 D    
C10   C11   1.641825 S    
Zn2   O6    2.179824 S    
O31   H9    0.986391 S    
S8    O44   1.670808 S    
C7    C18   1.517689 S    
S8    O43   1.497692 D    
C12   C21   1.556502 S    
O1    C1    1.411723 A    
