data_mof_unit_17327.cif
_audit_creation_date              2012-12-11T15:26:03-0500
_audit_creation_method            fapswitch 2.2
_symmetry_space_group_name_H-M    P1
_symmetry_Int_Tables_number       1
_space_group_crystal_system       monoclinic
_cell_length_a                    24.850694
_cell_length_b                    17.113675
_cell_length_c                    15.610731
_cell_angle_alpha                 90.0
_cell_angle_beta                  50.384102
_cell_angle_gamma                 90.0
_cell_volume                      5114.29094695

loop_
_atom_site_label
_atom_site_type_symbol
_atom_type_description
_atom_site_fract_x
_atom_site_fract_y
_atom_site_fract_z
_atom_type_partial_charge
C1    C     C_R   0.333367 0.105151 0.804837 -0.094563
C2    C     C_2   0.357941 0.741756 0.853947 0.160704
C3    C     C_3   0.564085 0.367717 0.610972 -0.917545
C4    C     C_3   0.133164 0.126551 0.580356 -0.939937
C5    C     C_3   0.935913 0.867717 0.389035 -0.917544
C6    C     C_3   0.866836 0.126548 0.419640 -0.939943
C7    C     C_3   0.064085 0.867716 0.610973 -0.917543
C8    C     C_3   0.444857 0.668820 0.843258 -0.938670
C9    C     C_3   0.656523 0.156665 0.904889 -0.939993
C10   C     C_3   0.555141 0.668820 0.156745 -0.938669
C11   C     C_3   0.343472 0.156654 0.095118 -0.939984
C12   C     C_3   0.944856 0.168822 0.843262 -0.938668
C13   C     C_2   0.308123 0.153003 0.982529 0.176153
C14   C     C_3   0.156530 0.656645 0.904879 -0.939996
C15   C     C_3   0.055142 0.168820 0.156743 -0.938668
C16   C     C_3   0.843471 0.656650 0.095121 -0.939982
C17   C     C_2   0.642058 0.741755 0.146055 0.160706
C18   C     C_2   0.191877 0.653002 0.017470 0.176149
C19   C     C_2   0.857941 0.241756 0.853947 0.160707
C20   C     C_2   0.808123 0.653003 0.982530 0.176152
C21   C     C_2   0.142058 0.241755 0.146054 0.160706
C22   C     C_2   0.761755 0.146016 0.954091 -0.183341
C23   C     C_2   0.307805 0.701306 0.863124 -0.190895
C24   C     C_2   0.238244 0.146016 0.045910 -0.183333
C25   C     C_R   0.649567 0.858428 0.239748 -0.171650
C26   C     C_2   0.692195 0.701305 0.136876 -0.190896
C27   C     C_2   0.261756 0.646016 0.954090 -0.183321
C28   C     C_2   0.807805 0.201305 0.863124 -0.190893
C29   C     C_2   0.738244 0.646016 0.045909 -0.183332
C30   C     C_2   0.192195 0.201305 0.136876 -0.190895
C31   C     C_R   0.584336 0.145044 0.594948 -0.205803
C32   C     C_R   0.392637 0.881963 0.405514 -0.170954
C33   C     C_R   0.415664 0.145044 0.405052 -0.205805
C34   C     C_R   0.607363 0.881963 0.594486 -0.170950
C35   C     C_R   0.084336 0.645044 0.594948 -0.205803
C36   C     C_R   0.666633 0.105151 0.195163 -0.094563
C37   C     C_R   0.892636 0.381963 0.405514 -0.170952
C38   C     C_R   0.915664 0.645044 0.405052 -0.205804
C39   C     C_R   0.107363 0.381963 0.594486 -0.170949
C40   C     C_R   0.659186 0.146569 0.410321 0.182229
C41   C     C_R   0.316984 0.882930 0.590400 0.177160
C42   C     C_R   0.340814 0.146569 0.589679 0.182229
C43   C     C_R   0.683016 0.882929 0.409599 0.177156
C44   C     C_R   0.159186 0.646569 0.410321 0.182229
C45   C     C_R   0.816984 0.382929 0.590400 0.177159
C46   C     C_R   0.840814 0.646569 0.589679 0.182229
C47   C     C_R   0.350433 0.858428 0.760252 -0.171649
C48   C     C_R   0.183016 0.382929 0.409599 0.177155
C49   C     C_R   0.576463 0.107036 0.197600 -0.135668
C50   C     C_R   0.440286 0.859139 0.760546 -0.107937
C51   C     C_R   0.423536 0.107035 0.802401 -0.135672
C52   C     C_R   0.559714 0.859139 0.239455 -0.107937
C53   C     C_R   0.076464 0.607035 0.197599 -0.135675
C54   C     C_R   0.940286 0.359139 0.760546 -0.107936
C55   C     C_R   0.923536 0.607035 0.802401 -0.135672
C56   C     C_R   0.059714 0.359139 0.239454 -0.107938
C57   C     C_R   0.353583 0.125148 0.866548 0.014461
C58   C     C_R   0.833367 0.605151 0.804837 -0.094562
C59   C     C_R   0.617292 0.816161 0.207674 0.064942
C60   C     C_R   0.646417 0.125149 0.133453 0.014462
C61   C     C_R   0.382708 0.816162 0.792327 0.064943
C62   C     C_R   0.853583 0.625147 0.866548 0.014461
C63   C     C_R   0.117292 0.316161 0.207673 0.064942
C64   C     C_R   0.146417 0.625147 0.133452 0.014459
C65   C     C_R   0.882708 0.316162 0.792327 0.064942
C66   C     C_R   0.634478 0.189543 0.504552 0.060971
C67   C     C_R   0.329409 0.854811 0.497093 -0.037319
C68   C     C_R   0.365522 0.189543 0.495448 0.060972
C69   C     C_R   0.149567 0.358428 0.239748 -0.171650
C70   C     C_R   0.670591 0.854811 0.502907 -0.037316
C71   C     C_R   0.134478 0.689542 0.504552 0.060972
C72   C     C_R   0.829409 0.354811 0.497093 -0.037317
C73   C     C_R   0.865522 0.689543 0.495448 0.060971
C74   C     C_R   0.170591 0.354811 0.502906 -0.037315
C75   C     C_R   0.272087 0.192834 0.489669 -0.265147
C76   C     C_R   0.767160 0.855673 0.503414 -0.297691
C77   C     C_R   0.727915 0.192834 0.510328 -0.265142
C78   C     C_R   0.232838 0.855673 0.496588 -0.297691
C79   C     C_R   0.772086 0.692834 0.489670 -0.265145
C80   C     C_R   0.166633 0.605150 0.195163 -0.094559
C81   C     C_R   0.267160 0.355673 0.503415 -0.297692
C82   C     C_R   0.227916 0.692834 0.510326 -0.265143
C83   C     C_R   0.732839 0.355673 0.496588 -0.297691
C84   C     C_R   0.720058 0.731031 0.498357 0.198251
C85   C     C_R   0.318970 0.316665 0.495597 0.196184
C86   C     C_R   0.279944 0.731031 0.501638 0.198253
C87   C     C_R   0.681029 0.316665 0.504406 0.196184
C88   C     C_R   0.220059 0.231031 0.498356 0.198252
C89   C     C_R   0.818970 0.816665 0.495596 0.196184
C90   C     C_R   0.779943 0.231031 0.501640 0.198252
C91   C     C_R   0.850433 0.358428 0.760252 -0.171650
C92   C     C_R   0.181029 0.816665 0.504406 0.196184
C93   C     C_R   0.718860 0.812902 0.504356 0.017384
C94   C     C_R   0.319824 0.235089 0.490550 0.059570
C95   C     C_R   0.281140 0.812902 0.495643 0.017382
C96   C     C_R   0.680177 0.235088 0.509450 0.059570
C97   C     C_R   0.218861 0.312902 0.504356 0.017385
C98   C     C_R   0.819823 0.735088 0.490550 0.059570
C99   C     C_R   0.781140 0.312902 0.495643 0.017382
C100  C     C_R   0.180177 0.735088 0.509449 0.059569
C101  C     C_3   0.734389 0.240965 0.261349 -0.926326
C102  C     C_2   0.691876 0.153007 0.017472 0.176154
C103  C     C_3   0.225987 0.964210 0.743751 -0.960187
C104  C     C_3   0.265612 0.240963 0.738653 -0.926330
C105  C     C_3   0.774013 0.964209 0.256249 -0.960187
C106  C     C_3   0.234388 0.740964 0.261348 -0.926333
C107  C     C_3   0.725987 0.464209 0.743751 -0.960187
C108  C     C_3   0.765611 0.740964 0.738653 -0.926322
C109  C     C_3   0.274013 0.464210 0.256249 -0.960184
C110  C     C_3   0.633164 0.626550 0.580358 -0.939937
C111  C     C_3   0.435913 0.367718 0.389037 -0.917543
C112  C     C_3   0.366836 0.626547 0.419638 -0.939943
H1    H     H_    0.280278 0.099134 0.836820 0.104731
H2    H     H_    0.412933 0.880315 0.320334 0.116765
H3    H     H_    0.831382 0.078431 0.436206 0.248685
H4    H     H_    0.151277 0.911092 0.460547 0.172055
H5    H     H_    0.028676 0.898300 0.601637 0.251627
H6    H     H_    0.068206 0.902887 0.666455 0.248594
H7    H     H_    0.040910 0.809877 0.649605 0.256100
H8    H     H_    0.346896 0.697901 0.989275 0.168263
H9    H     H_    0.431270 0.611690 0.827561 0.256490
H10   H     H_    0.465164 0.658431 0.888286 0.249532
H11   H     H_    0.486551 0.697363 0.762621 0.259500
H12   H     H_    0.615957 0.225649 0.042999 0.168431
H13   H     H_    0.441003 0.157257 0.318980 0.120288
H14   H     H_    0.637321 0.197246 0.874115 0.247588
H15   H     H_    0.619223 0.107196 0.948705 0.246226
H16   H     H_    0.708292 0.133924 0.832048 0.262837
H17   H     H_    0.653102 0.697900 0.010727 0.168263
H18   H     H_    0.568728 0.611691 0.172444 0.256489
H19   H     H_    0.534834 0.658430 0.111717 0.249533
H20   H     H_    0.513447 0.697364 0.237382 0.259501
H21   H     H_    0.384046 0.225638 0.957007 0.168428
H22   H     H_    0.362682 0.197231 0.125886 0.247587
H23   H     H_    0.380764 0.107176 0.051310 0.246226
H24   H     H_    0.587067 0.880314 0.679666 0.116763
H25   H     H_    0.291700 0.133923 0.167964 0.262835
H26   H     H_    0.846894 0.197901 0.989277 0.168265
H27   H     H_    0.931271 0.111692 0.827562 0.256489
H28   H     H_    0.965162 0.158434 0.888292 0.249533
H29   H     H_    0.986550 0.197366 0.762625 0.259499
H30   H     H_    0.115953 0.725631 0.042990 0.168430
H31   H     H_    0.137306 0.697213 0.874127 0.247587
H32   H     H_    0.119252 0.607157 0.948683 0.246233
H33   H     H_    0.208306 0.633929 0.832024 0.262836
H34   H     H_    0.153103 0.197900 0.010726 0.168263
H35   H     H_    0.058997 0.657257 0.681020 0.120286
H36   H     H_    0.068728 0.111691 0.172442 0.256489
H37   H     H_    0.034835 0.158431 0.111715 0.249532
H38   H     H_    0.013448 0.197364 0.237380 0.259501
H39   H     H_    0.884046 0.725635 0.957009 0.168428
H40   H     H_    0.862682 0.697225 0.125888 0.247586
H41   H     H_    0.880761 0.607171 0.051312 0.246227
H42   H     H_    0.791697 0.633921 0.167966 0.262835
H43   H     H_    0.912933 0.380315 0.320334 0.116764
H44   H     H_    0.941003 0.657258 0.318980 0.120287
H45   H     H_    0.087067 0.380314 0.679666 0.116763
H46   H     H_    0.547083 0.104096 0.168354 0.099459
H47   H     H_    0.475221 0.844359 0.776708 0.113463
H48   H     H_    0.452917 0.104094 0.831647 0.099460
H49   H     H_    0.697817 0.844338 0.221961 0.138354
H50   H     H_    0.524778 0.844359 0.223293 0.113464
H51   H     H_    0.047084 0.604094 0.168353 0.099461
H52   H     H_    0.975221 0.344359 0.776708 0.113463
H53   H     H_    0.952916 0.604094 0.831647 0.099460
H54   H     H_    0.024779 0.344359 0.223293 0.113463
H55   H     H_    0.292439 0.718857 0.814783 0.147388
H56   H     H_    0.784195 0.109449 0.980816 0.120622
H57   H     H_    0.707560 0.718857 0.185217 0.147390
H58   H     H_    0.215804 0.109450 0.019182 0.120620
H59   H     H_    0.792440 0.218856 0.814781 0.147392
H60   H     H_    0.719722 0.099135 0.163180 0.104728
H61   H     H_    0.284196 0.609451 0.980819 0.120618
H62   H     H_    0.207560 0.218857 0.185218 0.147390
H63   H     H_    0.715804 0.609451 0.019182 0.120620
H64   H     H_    0.765638 0.133600 0.282070 0.168285
H65   H     H_    0.765038 0.240319 0.170158 0.241662
H66   H     H_    0.764697 0.273389 0.279676 0.252207
H67   H     H_    0.684320 0.271629 0.298960 0.264051
H68   H     H_    0.212592 0.851906 0.709376 0.177038
H69   H     H_    0.174228 0.960392 0.828102 0.251764
H70   H     H_    0.220567 0.999253 0.689687 0.245101
H71   H     H_    0.302183 0.844338 0.778040 0.138354
H72   H     H_    0.262567 0.993184 0.751463 0.257385
H73   H     H_    0.234361 0.133603 0.717926 0.168286
H74   H     H_    0.234960 0.240316 0.829845 0.241661
H75   H     H_    0.235309 0.273392 0.720321 0.252207
H76   H     H_    0.315681 0.271624 0.701048 0.264053
H77   H     H_    0.787408 0.851906 0.290624 0.177036
H78   H     H_    0.825772 0.960391 0.171898 0.251764
H79   H     H_    0.779433 0.999252 0.310312 0.245102
H80   H     H_    0.737433 0.993184 0.248537 0.257384
H81   H     H_    0.265639 0.633602 0.282072 0.168286
H82   H     H_    0.780278 0.599134 0.836820 0.104729
H83   H     H_    0.265038 0.740317 0.170157 0.241662
H84   H     H_    0.264692 0.773391 0.279678 0.252208
H85   H     H_    0.184318 0.771626 0.298956 0.264053
H86   H     H_    0.712592 0.351906 0.709376 0.177035
H87   H     H_    0.674228 0.460392 0.828102 0.251764
H88   H     H_    0.720567 0.499252 0.689687 0.245102
H89   H     H_    0.762567 0.493184 0.751463 0.257385
H90   H     H_    0.734361 0.633601 0.717928 0.168285
H91   H     H_    0.734960 0.740316 0.829845 0.241660
H92   H     H_    0.735306 0.773390 0.720322 0.252206
H93   H     H_    0.197817 0.344338 0.221961 0.138354
H94   H     H_    0.815681 0.771626 0.701045 0.264051
H95   H     H_    0.287408 0.351907 0.290624 0.177036
H96   H     H_    0.325772 0.460392 0.171898 0.251763
H97   H     H_    0.279432 0.499253 0.310313 0.245101
H98   H     H_    0.237433 0.493184 0.248537 0.257384
H99   H     H_    0.275434 0.129649 0.483435 0.145110
H100  H     H_    0.765028 0.919009 0.506834 0.142920
H101  H     H_    0.724568 0.129648 0.516560 0.145110
H102  H     H_    0.234970 0.919009 0.493171 0.142921
H103  H     H_    0.775433 0.629649 0.483436 0.145110
H104  H     H_    0.219722 0.599133 0.163180 0.104728
H105  H     H_    0.265027 0.419009 0.506836 0.142920
H106  H     H_    0.224569 0.629648 0.516558 0.145110
H107  H     H_    0.734970 0.419009 0.493170 0.142921
H108  H     H_    0.640472 0.718854 0.486823 0.171827
H109  H     H_    0.592982 0.601329 0.577879 0.254287
H110  H     H_    0.606810 0.650904 0.664613 0.256822
H111  H     H_    0.668617 0.578433 0.563797 0.248685
H112  H     H_    0.348718 0.411092 0.539463 0.172055
H113  H     H_    0.471320 0.398303 0.398376 0.251628
H114  H     H_    0.431791 0.402890 0.333555 0.248595
H115  H     H_    0.802183 0.344338 0.778040 0.138355
H116  H     H_    0.459089 0.309880 0.350403 0.256100
H117  H     H_    0.359535 0.718856 0.513162 0.171829
H118  H     H_    0.407021 0.601329 0.422111 0.254288
H119  H     H_    0.393186 0.650897 0.335382 0.256823
H120  H     H_    0.331382 0.578429 0.436209 0.248685
H121  H     H_    0.651278 0.411093 0.460546 0.172055
H122  H     H_    0.528677 0.398301 0.601636 0.251628
H123  H     H_    0.568207 0.402887 0.666454 0.248595
H124  H     H_    0.540910 0.309878 0.649604 0.256100
H125  H     H_    0.140473 0.218855 0.486820 0.171826
H126  H     H_    0.558997 0.157257 0.681020 0.120287
H127  H     H_    0.092983 0.101330 0.577877 0.254287
H128  H     H_    0.106810 0.150905 0.664612 0.256822
H129  H     H_    0.168617 0.078434 0.563797 0.248684
H130  H     H_    0.848720 0.911093 0.539460 0.172054
H131  H     H_    0.971320 0.898302 0.398373 0.251628
H132  H     H_    0.931792 0.902888 0.333552 0.248595
H133  H     H_    0.959089 0.809879 0.350402 0.256101
H134  H     H_    0.859532 0.218855 0.513169 0.171828
H135  H     H_    0.907019 0.101328 0.422116 0.254288
H136  H     H_    0.893188 0.150899 0.335384 0.256823
N1    N     N_R   0.388930 0.078160 0.705470 -0.040640
N2    N     N_R   0.419500 0.922160 0.443350 -0.051075
N3    N     N_R   0.419500 0.077840 0.443350 -0.051357
N4    N     N_R   0.580500 0.922160 0.556650 -0.051075
N5    N     N_R   0.080500 0.577840 0.556650 -0.051357
N6    N     N_R   0.919500 0.422160 0.443350 -0.051075
N7    N     N_R   0.919500 0.577840 0.443350 -0.051357
N8    N     N_R   0.080500 0.422160 0.556650 -0.051075
N9    N     N_R   0.626210 0.077590 0.443410 -0.074335
N10   N     N_R   0.373790 0.922410 0.556590 -0.052170
N11   N     N_R   0.373790 0.077590 0.556590 -0.074334
N12   N     N_R   0.611070 0.921840 0.294530 -0.038776
N13   N     N_R   0.626210 0.922410 0.443410 -0.052169
N14   N     N_R   0.126210 0.577590 0.443410 -0.074334
N15   N     N_R   0.873790 0.422410 0.556590 -0.052170
N16   N     N_R   0.873790 0.577590 0.556590 -0.074334
N17   N     N_R   0.126210 0.422410 0.443410 -0.052169
N18   N     N_R   0.554800 0.077270 0.294580 -0.034336
N19   N     N_R   0.445200 0.922730 0.705420 -0.042850
N20   N     N_R   0.445200 0.077270 0.705420 -0.034336
N21   N     N_R   0.554800 0.922730 0.294580 -0.042850
N22   N     N_R   0.054800 0.577270 0.294580 -0.034336
N23   N     N_R   0.611070 0.078160 0.294530 -0.040640
N24   N     N_R   0.945200 0.422730 0.705420 -0.042850
N25   N     N_R   0.945200 0.577270 0.705420 -0.034336
N26   N     N_R   0.054800 0.422730 0.294580 -0.042850
N27   N     N_2   0.722346 0.161403 0.301436 -0.124912
N28   N     N_2   0.250446 0.886703 0.698383 -0.122009
N29   N     N_2   0.277653 0.161402 0.698564 -0.124913
N30   N     N_2   0.749554 0.886702 0.301616 -0.122009
N31   N     N_2   0.222346 0.661403 0.301436 -0.124912
N32   N     N_2   0.750446 0.386702 0.698384 -0.122009
N33   N     N_2   0.777653 0.661402 0.698564 -0.124913
N34   N     N_R   0.388930 0.921840 0.705470 -0.038776
N35   N     N_2   0.249554 0.386703 0.301616 -0.122009
N36   N     N_2   0.671311 0.687424 0.497201 -0.110451
N37   N     N_2   0.367793 0.358765 0.497038 -0.110464
N38   N     N_2   0.328693 0.687424 0.502790 -0.110450
N39   N     N_2   0.632204 0.358765 0.502969 -0.110464
N40   N     N_2   0.171312 0.187424 0.497199 -0.110451
N41   N     N_2   0.867794 0.858765 0.497037 -0.110464
N42   N     N_2   0.828691 0.187424 0.502794 -0.110450
N43   N     N_2   0.132203 0.858764 0.502969 -0.110463
N44   N     N_2   0.383806 0.718330 0.909476 -0.106333
N45   N     N_R   0.888930 0.578160 0.705470 -0.040640
N46   N     N_2   0.661913 0.197906 0.980058 -0.104951
N47   N     N_2   0.616192 0.718329 0.090526 -0.106333
N48   N     N_2   0.338087 0.197899 0.019946 -0.104951
N49   N     N_2   0.883805 0.218330 0.909479 -0.106333
N50   N     N_2   0.161913 0.697893 0.980051 -0.104952
N51   N     N_2   0.116193 0.218329 0.090525 -0.106333
N52   N     N_2   0.838087 0.697896 0.019948 -0.104952
N53   N     N_R   0.111070 0.421840 0.294530 -0.038776
N54   N     N_R   0.111070 0.578160 0.294530 -0.040640
N55   N     N_R   0.888930 0.421840 0.705470 -0.038776
N56   N     N_R   0.580500 0.077840 0.556650 -0.051357
Ni1   Ni    Ni4+2 0.382710 0.000000 0.629850 0.210263
Ni2   Ni    Ni4+2 0.617290 1.000000 0.370150 0.210262
Ni3   Ni    Ni4+2 0.882710 0.500000 0.629850 0.210263
Ni4   Ni    Ni4+2 0.117290 0.500000 0.370150 0.210263
Ni5   Ni    Ni4+2 0.513020 0.000000 0.629850 0.204542
Ni6   Ni    Ni4+2 0.486980 1.000000 0.370150 0.204542
Ni7   Ni    Ni4+2 0.013020 0.500000 0.629850 0.204542
Ni8   Ni    Ni4+2 0.986980 0.500000 0.370150 0.204542

loop_
_geom_bond_atom_site_label_1
_geom_bond_atom_site_label_2
_ccdc_geom_bond_type
N22   Ni8   S    
N5    Ni7   S    
N6    Ni8   S    
C105  H80   S    
C78   H102  S    
C80   H104  S    
C54   C65   A    
C49   C60   A    
N1    N20   A    
C6    H136  S    
C87   N39   S    
C103  N28   S    
C88   N40   S    
C107  H88   S    
N45   Ni3   S    
C53   C64   A    
H12   N46   S    
C8    H9    S    
C44   N31   S    
C55   C62   A    
N54   Ni4   S    
N23   Ni2   S    
N12   N21   A    
C10   H19   S    
C3    H123  S    
C25   N12   A    
C51   C57   A    
N9    Ni2   S    
C88   C97   A    
C22   H56   S    
C15   N51   S    
C86   N38   S    
C1    H1    S    
C29   H63   S    
C109  H97   S    
C110  H111  S    
C14   H32   S    
C9    H16   S    
C77   H101  S    
C111  H113  S    
C7    H7    S    
C70   C93   S    
C41   C67   A    
N34   Ni1   S    
C42   N29   S    
C53   H51   S    
H130  N41   S    
C106  H84   S    
C19   N49   S    
C109  H96   S    
C47   N34   A    
C34   H24   S    
C33   H13   S    
C12   H27   S    
H108  N36   S    
C5    H131  S    
C106  H85   S    
C23   H55   S    
C56   N26   A    
C15   H37   S    
C21   C30   D    
C65   C91   A    
C50   N19   A    
C13   N48   S    
C103  H69   S    
H73   N29   S    
C8    H11   S    
C104  H74   S    
C18   C64   S    
C48   N17   A    
C4    H127  S    
C84   C93   A    
C86   C95   A    
H95   N35   S    
C37   N6    A    
H125  N40   S    
C30   H62   S    
C6    N42   S    
H81   N31   S    
C12   N49   S    
C105  H79   S    
N11   Ni1   S    
H121  N39   S    
C49   N18   A    
C112  H119  S    
C69   N53   A    
N18   N23   A    
C79   C84   A    
C109  N35   S    
C1    N1    A    
C39   C74   A    
C110  N36   S    
H17   N47   S    
C12   H29   S    
C2    N44   S    
C101  H66   S    
C63   C69   A    
C25   H49   S    
C54   N24   A    
C24   H58   S    
N25   Ni7   S    
N19   Ni5   S    
N26   Ni8   S    
C76   C89   A    
C76   H100  S    
H112  N37   S    
C91   N55   A    
C67   C95   S    
C105  N30   S    
C60   C102  S    
C107  N32   S    
C73   C98   S    
C104  H76   S    
C36   H60   S    
C11   H22   S    
N1    Ni1   S    
N19   N34   A    
C78   C92   A    
C68   C94   S    
N10   Ni1   S    
C1    C57   A    
C83   H107  S    
C81   H105  S    
N25   N45   A    
C19   C28   D    
N16   Ni3   S    
C32   C67   A    
C89   N41   S    
C31   H126  S    
H117  N38   S    
C16   H42   S    
H64   N27   S    
C90   C99   A    
N21   Ni6   S    
C17   N47   S    
H134  N42   S    
C21   N51   S    
C104  N29   S    
H77   N30   S    
C16   N52   S    
C77   C96   A    
C69   H93   S    
C89   C98   A    
C14   N50   S    
N24   Ni7   S    
C107  H87   S    
C110  H109  S    
C8    H10   S    
C40   C66   A    
N13   Ni2   S    
C10   H20   S    
C35   C71   A    
H86   N32   S    
C75   C94   A    
C53   N22   A    
C2    C23   D    
C35   N5    A    
C50   C61   A    
C83   C99   A    
C106  N31   S    
C25   C59   A    
N14   Ni4   S    
C46   C73   A    
C81   C85   A    
C108  N33   S    
C33   C68   A    
C52   H50   S    
C72   C99   S    
C58   C62   A    
C83   C87   A    
N8    N17   A    
C80   N54   A    
C102  N46   S    
C3    N39   S    
C14   H33   S    
C75   H99   S    
C9    H15   S    
C111  H116  S    
C107  H89   S    
C108  H91   S    
C44   N14   A    
C45   N15   A    
C51   H48   S    
C112  H118  S    
N8    Ni7   S    
H21   N48   S    
C7    H5    S    
N3    N11   A    
C7    N43   S    
C12   H28   S    
C34   C70   A    
N20   Ni5   S    
C2    C61   S    
C38   N7    A    
N4    Ni5   S    
C22   C28   S    
C64   C80   A    
N17   Ni4   S    
C48   N35   S    
N56   Ni5   S    
C77   C90   A    
C103  H72   S    
C6    H135  S    
C43   N13   A    
C58   N45   A    
C39   N8    A    
C40   N27   S    
C82   C86   A    
C58   H82   S    
C10   H18   S    
C11   H23   S    
C76   C93   A    
C52   N21   A    
C78   C95   A    
C51   N20   A    
C4    H128  S    
C16   H40   S    
C47   H71   S    
N3    Ni6   S    
C18   N50   S    
H8    N44   S    
C109  H98   S    
C110  H110  S    
N26   N53   A    
C66   C96   S    
C14   H31   S    
C91   H115  S    
C111  H114  S    
C105  H78   S    
H39   N52   S    
C5    H133  S    
C47   C61   A    
C40   N9    A    
N9    N56   A    
C106  H83   S    
C50   H47   S    
C71   C100  S    
C112  H120  S    
C11   H25   S    
C15   H36   S    
C90   N42   S    
C19   C65   S    
C5    H132  S    
C20   C62   S    
C6    H3    S    
C21   C63   S    
C101  H65   S    
C13   C57   S    
N7    N16   A    
H68   N28   S    
C37   C72   A    
C56   H54   S    
C54   H52   S    
C15   H38   S    
H90   N33   S    
N5    N14   A    
C31   C66   A    
C103  H70   S    
C37   H43   S    
C79   C98   A    
C38   H44   S    
C27   H61   S    
N22   N54   A    
H34   N51   S    
C84   N36   S    
C4    N40   S    
C85   N37   S    
C17   C26   D    
C31   N56   A    
C3    H122  S    
C3    H124  S    
C46   N16   A    
C32   N2    A    
C44   C71   A    
C33   N3    A    
C26   H57   S    
C23   C27   S    
C79   H103  S    
C39   H45   S    
C45   C72   A    
C42   C68   A    
C7    H6    S    
C112  N38   S    
N18   Ni6   S    
N24   N55   A    
C9    N46   S    
C48   C74   A    
C74   C97   S    
C20   C29   D    
C11   N48   S    
C55   N25   A    
N55   Ni3   S    
N53   Ni4   S    
C13   C24   D    
N12   Ni2   S    
C42   N11   A    
C101  H67   S    
C52   C59   A    
C85   C94   A    
C28   H59   S    
C82   H106  S    
H30   N50   S    
C45   N32   S    
C87   C96   A    
C111  N37   S    
C56   C63   A    
C35   H35   S    
H26   N49   S    
C41   N28   S    
N4    N13   A    
C17   C59   S    
N6    N15   A    
C43   C70   A    
C49   H46   S    
C4    H129  S    
C92   C100  A    
C8    N44   S    
C104  H75   S    
C108  H94   S    
C82   C100  A    
C18   C27   D    
C36   C60   A    
C5    N41   S    
H4    N43   S    
C9    H14   S    
C22   C102  D    
N15   Ni3   S    
C108  H92   S    
N7    Ni8   S    
C43   N30   S    
C81   C97   A    
C92   N43   S    
C20   N52   S    
C36   N23   A    
C41   N10   A    
C24   C30   S    
C75   C88   A    
N2    Ni6   S    
C26   C29   S    
C16   H41   S    
C46   N33   S    
C55   H53   S    
C101  N27   S    
C34   N4    A    
C32   H2    S    
N2    N10   A    
C10   N47   S    
C38   C73   A    
