data_mof_unit_14189.cif
_audit_creation_date              2012-12-11T15:23:51-0500
_audit_creation_method            fapswitch 2.2
_symmetry_space_group_name_H-M    P1
_symmetry_Int_Tables_number       1
_space_group_crystal_system       triclinic
_cell_length_a                    17.252108
_cell_length_b                    24.249211
_cell_length_c                    14.935601
_cell_angle_alpha                 89.629953
_cell_angle_beta                  125.566312
_cell_angle_gamma                 90.029403
_cell_volume                      5082.495943

loop_
_atom_site_label
_atom_site_type_symbol
_atom_type_description
_atom_site_fract_x
_atom_site_fract_y
_atom_site_fract_z
_atom_type_partial_charge
C1    C     C_R   0.311794 0.373808 0.909988 0.722878
C2    C     C_R   0.551596 0.499024 0.725877 -0.017490
C3    C     C_R   0.062169 0.997258 0.366483 0.012607
C4    C     C_R   0.051596 0.999024 0.725877 -0.017490
C5    C     C_R   0.206334 0.500276 0.627189 -0.047601
C6    C     C_R   0.827662 0.497848 0.299131 -0.005276
C7    C     C_R   0.706334 0.000276 0.627189 -0.047601
C8    C     C_R   0.327662 0.997848 0.299131 -0.005275
C9    C     C_2   0.985073 0.465937 0.353690 0.426285
C10   C     C_2   0.088159 0.461307 0.441156 0.425060
C11   C     C_2   0.485073 0.965937 0.353690 0.426285
C12   C     C_R   0.646435 0.346951 0.091105 0.762142
C13   C     C_2   0.588159 0.961307 0.441157 0.425060
C14   C     C_2   0.930501 0.496803 0.371906 -0.307746
C15   C     C_2   0.132930 0.504381 0.508544 -0.278690
C16   C     C_2   0.430501 0.996802 0.371906 -0.307747
C17   C     C_2   0.632930 0.004381 0.508544 -0.278689
C18   C     C_R   0.155478 0.686064 0.897391 -0.138214
C19   C     C_R   0.713694 0.765902 0.103900 -0.114380
C20   C     C_R   0.655478 0.186064 0.897391 -0.138213
C21   C     C_R   0.213695 0.265902 0.103900 -0.114379
C22   C     C_R   0.607661 0.231504 0.898649 -0.093638
C23   C     C_R   0.811794 0.873808 0.909988 0.722878
C24   C     C_R   0.262101 0.311287 0.103956 -0.099492
C25   C     C_R   0.107661 0.731505 0.898649 -0.093638
C26   C     C_R   0.762100 0.811287 0.103956 -0.099491
C27   C     C_R   0.638885 0.256081 0.999269 0.138902
C28   C     C_R   0.239091 0.332667 0.003799 0.128240
C29   C     C_R   0.138884 0.756081 0.999269 0.138901
C30   C     C_R   0.739091 0.832667 0.003798 0.128240
C31   C     C_R   0.704456 0.227639 0.097647 -0.085317
C32   C     C_R   0.153371 0.316884 0.905547 -0.084389
C33   C     C_R   0.204456 0.727639 0.097647 -0.085318
C34   C     C_R   0.146435 0.846951 0.091105 0.762142
C35   C     C_R   0.653371 0.816884 0.905547 -0.084389
C36   C     C_R   0.251855 0.681984 0.096219 -0.171877
C37   C     C_R   0.605291 0.770979 0.905226 -0.148804
C38   C     C_R   0.751855 0.181983 0.096219 -0.171877
C39   C     C_R   0.105291 0.270979 0.905226 -0.148803
C40   C     C_R   0.400125 0.623545 0.090205 -0.089999
C41   C     C_R   0.557150 0.652138 0.909885 -0.105688
C42   C     C_R   0.900125 0.123545 0.090205 -0.089999
C43   C     C_R   0.057150 0.152138 0.909885 -0.105688
C44   C     C_R   0.234920 0.665211 0.996698 0.128265
C45   C     C_R   0.309465 0.636035 0.997560 0.023048
C46   C     C_R   0.641709 0.742028 0.003665 0.115326
C47   C     C_R   0.734919 0.165211 0.996697 0.128265
C48   C     C_R   0.141709 0.242028 0.003665 0.115326
C49   C     C_R   0.606465 0.549156 0.626934 -0.182325
C50   C     C_R   0.607827 0.546974 0.535096 -0.184668
C51   C     C_R   0.106465 0.049155 0.626934 -0.182325
C52   C     C_R   0.107827 0.046974 0.535096 -0.184668
C53   C     C_R   0.591356 0.496387 0.480890 -0.063791
C54   C     C_R   0.601476 0.500024 0.672964 -0.047686
C55   C     C_R   0.091356 0.996387 0.480890 -0.063791
C56   C     C_R   0.617275 0.684169 0.001531 0.003653
C57   C     C_R   0.101477 0.000024 0.672964 -0.047686
C58   C     C_R   0.594387 0.447125 0.535075 0.434370
C59   C     C_R   0.620488 0.450614 0.641876 0.435821
C60   C     C_R   0.094387 0.947125 0.535075 0.434370
C61   C     C_R   0.120488 0.950614 0.641876 0.435820
C62   C     C_R   0.556595 0.452796 0.305536 0.476311
C63   C     C_R   0.510958 0.453282 0.741540 0.510083
C64   C     C_R   0.056595 0.952796 0.305536 0.476311
C65   C     C_R   0.010958 0.953282 0.741540 0.510084
C66   C     C_R   0.249600 0.545204 0.693761 0.686340
C67   C     C_R   0.809465 0.136035 0.997560 0.023048
C68   C     C_R   0.770644 0.544280 0.266278 0.725443
C69   C     C_R   0.749600 0.045204 0.693761 0.686339
C70   C     C_R   0.270644 0.044280 0.266278 0.725443
C71   C     C_R   0.544515 0.543933 0.301985 -0.217813
C72   C     C_R   0.524864 0.545147 0.756869 -0.150456
C73   C     C_R   0.044515 0.043933 0.301985 -0.217813
C74   C     C_R   0.024864 0.045147 0.756869 -0.150456
C75   C     C_R   0.250422 0.454344 0.693495 -0.062491
C76   C     C_R   0.768876 0.452326 0.261938 -0.078014
C77   C     C_R   0.750422 0.954344 0.693495 -0.062492
C78   C     C_R   0.117275 0.184169 0.001531 0.003653
C79   C     C_R   0.268876 0.952326 0.261938 -0.078015
C80   C     C_R   0.308150 0.623119 0.906151 -0.094700
C81   C     C_R   0.647064 0.651731 0.092241 -0.017666
C82   C     C_R   0.808150 0.123119 0.906151 -0.094700
C83   C     C_R   0.147064 0.151731 0.092241 -0.017667
C84   C     C_R   0.402345 0.375875 0.093212 -0.177381
C85   C     C_R   0.554993 0.346689 0.909260 -0.139923
C86   C     C_R   0.902345 0.875875 0.093212 -0.177381
C87   C     C_R   0.054993 0.846689 0.909260 -0.139923
C88   C     C_R   0.312274 0.361926 0.001612 -0.162836
C89   C     C_R   0.562169 0.497258 0.366483 0.012607
C90   C     C_R   0.616029 0.314206 0.000751 -0.159054
C91   C     C_R   0.812274 0.861926 0.001612 -0.162836
C92   C     C_R   0.116029 0.814206 0.000751 -0.159054
Cl1   Cl    Cl    0.533850 0.385847 0.466402 -0.476183
Cl2   Cl    Cl    0.145401 0.397986 0.456932 -0.502475
Cl3   Cl    Cl    0.435339 0.927100 0.232130 -0.542604
Cl4   Cl    Cl    0.645402 0.897987 0.456931 -0.502476
Cl5   Cl    Cl    0.673111 0.393538 0.732838 -0.499651
Cl6   Cl    Cl    0.033850 0.885847 0.466402 -0.476183
Cl7   Cl    Cl    0.173111 0.893538 0.732838 -0.499651
Cl8   Cl    Cl    0.636700 0.396561 0.359907 -0.529433
Cl9   Cl    Cl    0.462866 0.394926 0.656500 -0.543664
Cl10  Cl    Cl    0.136700 0.896561 0.359907 -0.529434
Cl11  Cl    Cl    0.962866 0.894926 0.656500 -0.543663
Cl12  Cl    Cl    0.935339 0.427100 0.232130 -0.542604
F1    F     F_    0.243041 0.361371 0.803936 -0.730047
F2    F     F_    0.685786 0.328898 0.195187 -0.692212
F3    F     F_    0.743042 0.861371 0.803935 -0.730047
F4    F     F_    0.185786 0.828898 0.195187 -0.692212
F5    F     F_    0.243747 0.597290 0.656599 -0.689514
F6    F     F_    0.800805 0.596988 0.294140 -0.706603
F7    F     F_    0.743748 0.097290 0.656599 -0.689513
F8    F     F_    0.300805 0.096988 0.294140 -0.706603
H1    H     H_    0.961385 0.520984 0.446139 0.150669
H2    H     H_    0.323522 0.325032 0.182365 0.160758
H3    H     H_    0.053419 0.750055 0.820376 0.155082
H4    H     H_    0.823522 0.825032 0.182365 0.160758
H5    H     H_    0.726603 0.242660 0.176903 0.209171
H6    H     H_    0.127510 0.336247 0.827624 0.200417
H7    H     H_    0.226602 0.742660 0.176903 0.209171
H8    H     H_    0.627510 0.836247 0.827624 0.200417
H9    H     H_    0.308160 0.663979 0.174184 0.131200
H10   H     H_    0.545400 0.755822 0.826997 0.139865
H11   H     H_    0.808160 0.163979 0.174184 0.131200
H12   H     H_    0.100538 0.545050 0.480816 0.173620
H13   H     H_    0.045401 0.255822 0.826997 0.139865
H14   H     H_    0.601587 0.589057 0.655206 0.155822
H15   H     H_    0.609743 0.585672 0.500347 0.158488
H16   H     H_    0.101587 0.089057 0.655206 0.155822
H17   H     H_    0.109743 0.085672 0.500347 0.158488
H18   H     H_    0.427336 0.628955 0.175284 0.106379
H19   H     H_    0.510949 0.666198 0.825452 0.121748
H20   H     H_    0.927336 0.128955 0.175284 0.106379
H21   H     H_    0.010949 0.166198 0.825452 0.121748
H22   H     H_    0.558543 0.586259 0.328718 0.136287
H23   H     H_    0.461385 0.020984 0.446139 0.150669
H24   H     H_    0.541257 0.587657 0.753356 0.130586
H25   H     H_    0.058543 0.086259 0.328718 0.136288
H26   H     H_    0.041257 0.087657 0.753356 0.130586
H27   H     H_    0.244230 0.412542 0.666654 0.253270
H28   H     H_    0.790331 0.409549 0.277967 0.230929
H29   H     H_    0.744230 0.912542 0.666653 0.253270
H30   H     H_    0.290331 0.909549 0.277967 0.230928
H31   H     H_    0.249623 0.627472 0.820599 0.157312
H32   H     H_    0.680752 0.665740 0.175484 0.161345
H33   H     H_    0.749623 0.127472 0.820599 0.157312
H34   H     H_    0.600538 0.045050 0.480816 0.173619
H35   H     H_    0.180753 0.165740 0.175484 0.161345
H36   H     H_    0.429541 0.372451 0.178822 0.185529
H37   H     H_    0.505686 0.332138 0.826558 0.198062
H38   H     H_    0.929541 0.872451 0.178822 0.185529
H39   H     H_    0.005686 0.832138 0.826558 0.198062
H40   H     H_    0.136166 0.671670 0.818568 0.138500
H41   H     H_    0.740314 0.746690 0.182292 0.149180
H42   H     H_    0.636166 0.171670 0.818568 0.138500
H43   H     H_    0.240314 0.246690 0.182292 0.149180
H44   H     H_    0.553419 0.250055 0.820376 0.155082
N1    N     N_R   0.395440 0.396300 0.944370 -0.115368
N2    N     N_R   0.474910 0.470990 0.794360 -0.099668
N3    N     N_R   0.025090 0.970990 0.205640 -0.095644
N4    N     N_R   0.974910 0.970990 0.794360 -0.099668
N5    N     N_R   0.320240 0.527820 0.794510 -0.130260
N6    N     N_R   0.679760 0.527820 0.205490 -0.132120
N7    N     N_R   0.820240 0.027820 0.794510 -0.130260
N8    N     N_R   0.179760 0.027820 0.205490 -0.132120
N9    N     N_R   0.524580 0.527810 0.205160 -0.075051
N10   N     N_R   0.475420 0.527810 0.794840 -0.068365
N11   N     N_R   0.024580 0.027810 0.205160 -0.075051
N12   N     N_R   0.604560 0.396300 0.055630 -0.108213
N13   N     N_R   0.975420 0.027810 0.794840 -0.068365
N14   N     N_R   0.320750 0.470990 0.794990 -0.109388
N15   N     N_R   0.679250 0.470990 0.205010 -0.088264
N16   N     N_R   0.820750 0.970990 0.794990 -0.109387
N17   N     N_R   0.179250 0.970990 0.205010 -0.088264
N18   N     N_R   0.393580 0.602500 0.942610 -0.043181
N19   N     N_R   0.606420 0.602500 0.057390 -0.059466
N20   N     N_R   0.893580 0.102500 0.942610 -0.043181
N21   N     N_R   0.106420 0.102500 0.057390 -0.059466
N22   N     N_R   0.451750 0.396300 0.057540 -0.074285
N23   N     N_R   0.895440 0.896300 0.944370 -0.115368
N24   N     N_R   0.548250 0.396300 0.942460 -0.095123
N25   N     N_R   0.951750 0.896300 0.057540 -0.074285
N26   N     N_R   0.048250 0.896300 0.942460 -0.095123
N27   N     N_R   0.104560 0.896300 0.055630 -0.108213
N28   N     N_R   0.449890 0.602500 0.055780 -0.051622
N29   N     N_R   0.550110 0.602500 0.944220 -0.050121
N30   N     N_R   0.949890 0.102500 0.055780 -0.051622
N31   N     N_R   0.050110 0.102500 0.944220 -0.050121
N32   N     N_R   0.525090 0.470990 0.205640 -0.095644
Ni1   Ni    Ni4+2 0.435420 0.434250 0.870220 0.263946
Ni2   Ni    Ni4+2 0.564580 0.434250 0.129780 0.311518
Ni3   Ni    Ni4+2 0.935420 0.934250 0.870220 0.263946
Ni4   Ni    Ni4+2 0.064580 0.934250 0.129780 0.311518
Ni5   Ni    Ni4+2 0.563400 0.564580 0.128670 0.232387
Ni6   Ni    Ni4+2 0.436600 0.564580 0.871330 0.269088
Ni7   Ni    Ni4+2 0.063400 0.064580 0.128670 0.232387
Ni8   Ni    Ni4+2 0.936600 0.064580 0.871330 0.269088

loop_
_geom_bond_atom_site_label_1
_geom_bond_atom_site_label_2
_ccdc_geom_bond_type
C24   H2    S    
C39   H13   S    
N31   Ni8   S    
C11   C13   S    
C79   N17   A    
C6    C76   A    
N11   Ni7   S    
N29   Ni6   S    
C73   N11   A    
N27   Ni4   S    
C71   H22   S    
N8    Ni7   S    
C56   C81   A    
C22   H44   S    
C3    C64   A    
C2    C63   A    
C43   C78   A    
C64   Cl10  S    
C49   H14   S    
C74   H26   S    
N14   Ni1   S    
C20   H42   S    
C30   C35   A    
C52   H17   S    
C81   N19   A    
C12   C90   A    
C35   C37   A    
C58   Cl1   S    
C60   Cl6   S    
C86   C91   A    
C86   H38   S    
C9    Cl12  S    
C4    C65   A    
N22   Ni2   S    
N25   Ni4   S    
C2    C72   A    
C72   H24   S    
C79   H30   S    
C6    C14   S    
C10   Cl2   S    
N28   Ni5   S    
C62   C89   A    
C29   C33   A    
C33   C36   A    
N12   Ni2   S    
N6    Ni5   S    
C27   C90   S    
N32   Ni2   S    
C32   C39   A    
C48   C78   S    
C43   H21   S    
C19   C26   A    
N26   N27   A    
C31   H5    S    
C74   N13   A    
C3    C55   S    
C78   C83   A    
C81   H32   S    
N6    N15   A    
C7    C17   S    
C4    C57   S    
C28   C88   S    
C86   N25   A    
N4    N13   A    
C51   C57   A    
C9    C10   S    
C4    C74   A    
C38   H11   S    
C52   C55   A    
C63   Cl9   S    
C7    C77   A    
C21   C48   A    
C42   N30   A    
C1    C88   A    
C6    C68   A    
C8    C16   S    
C87   H39   S    
C87   C92   A    
C35   H8    S    
C61   Cl7   S    
C18   C25   A    
C72   N10   A    
C87   N26   A    
C65   N4    A    
C18   H40   S    
C47   C67   S    
N13   Ni8   S    
N1    Ni1   S    
C54   C59   A    
C84   H36   S    
N16   Ni3   S    
C25   C29   A    
C40   C45   A    
C19   C46   A    
C50   C53   A    
C15   H12   S    
C83   N21   A    
C13   Cl4   S    
C27   C31   A    
C51   C52   A    
N9    N32   A    
C69   N7    A    
N30   Ni7   S    
C28   C32   A    
C32   H6    S    
C2    C54   S    
N2    Ni1   S    
N18   N28   A    
C41   H19   S    
C5    C66   A    
C58   C59   A    
N12   N24   A    
N15   Ni2   S    
C70   N8    A    
C60   C61   A    
C84   C88   A    
C5    C75   A    
C76   N15   A    
C9    C14   D    
C41   C56   A    
C77   N16   A    
C18   C44   A    
N19   N29   A    
C11   C16   D    
C71   C89   A    
C43   N31   A    
C85   C90   A    
C80   H31   S    
C23   F3    S    
C75   N14   A    
C21   H43   S    
C41   N29   A    
C34   N27   A    
C68   F6    S    
N20   Ni8   S    
C84   N22   A    
N7    N16   A    
C38   C47   A    
C70   F8    S    
C67   C82   A    
C83   H35   S    
N5    N14   A    
C26   C30   A    
C20   C22   A    
N18   Ni6   S    
C22   C27   A    
C53   C89   S    
C42   C67   A    
C59   Cl5   S    
C23   C91   A    
C36   C44   A    
N10   Ni6   S    
N26   Ni3   S    
C51   H16   S    
C76   H28   S    
C82   H33   S    
C44   C45   S    
N2    N10   A    
C12   N12   A    
C62   N32   A    
C11   Cl3   S    
C62   Cl8   S    
C40   H18   S    
N21   Ni7   S    
C10   C15   D    
C23   N23   A    
N3    Ni4   S    
C24   C28   A    
N4    Ni3   S    
C82   N20   A    
C30   C91   S    
N9    Ni5   S    
C7    C69   A    
C53   C58   A    
C57   C61   A    
N20   N30   A    
C68   N6    A    
C14   H1    S    
N17   Ni4   S    
C8    C70   A    
N21   N31   A    
C31   C38   A    
C13   C17   D    
N24   Ni1   S    
C34   F4    S    
C25   H3    S    
C36   H9    S    
C80   N18   A    
C8    C79   A    
C75   H27   S    
C12   F2    S    
C69   F7    S    
C73   H25   S    
N7    Ni8   S    
C85   N24   A    
C19   H41   S    
C64   N3    A    
C1    N1    A    
C85   H37   S    
N3    N11   A    
N5    Ni6   S    
C17   H34   S    
C45   C80   A    
N1    N22   A    
C66   F5    S    
C3    C73   A    
N8    N17   A    
C26   H4    S    
C5    C15   S    
C20   C47   A    
C33   H7    S    
C37   H10   S    
N23   Ni3   S    
C66   N5    A    
C77   H29   S    
C49   C50   A    
C71   N9    A    
C21   C24   A    
C46   C56   S    
C65   Cl11  S    
C42   H20   S    
C50   H15   S    
C63   N2    A    
C40   N28   A    
C37   C46   A    
C55   C60   A    
C16   H23   S    
N19   Ni5   S    
C29   C92   S    
C49   C54   A    
C1    F1    S    
C39   C48   A    
N23   N25   A    
C34   C92   A    
