data_mof_unit_66572.cif
_audit_creation_date              2012-12-11T18:18:14-0500
_audit_creation_method            fapswitch 2.2
_symmetry_space_group_name_H-M    P1
_symmetry_Int_Tables_number       1
_space_group_crystal_system       triclinic
_cell_length_a                    8.6604
_cell_length_b                    14.611406
_cell_length_c                    15.057141
_cell_angle_alpha                 97.928671
_cell_angle_beta                  97.27724
_cell_angle_gamma                 92.338961
_cell_volume                      1868.62794372

loop_
_atom_site_label
_atom_site_type_symbol
_atom_type_description
_atom_site_fract_x
_atom_site_fract_y
_atom_site_fract_z
_atom_type_partial_charge
Ba1   Ba    Ba6+2 0.833410 0.543320 0.453520 1.606799
Ba2   Ba    Ba6+2 0.356410 0.456750 0.546480 1.622389
C1    C     C_3   0.519851 0.863234 0.172008 0.142695
C2    C     C_R   0.113319 0.473021 0.209300 0.056234
C3    C     C_R   0.938886 0.478147 0.769522 -0.278724
C4    C     C_3   0.019484 0.783329 0.196934 0.545293
C5    C     C_R   0.840785 0.455814 0.831603 0.033389
C6    C     C_R   0.892929 0.473749 0.925213 0.071130
C7    C     C_R   0.050942 0.504137 0.957151 -0.008608
C8    C     C_R   0.139968 0.542489 0.893927 -0.063572
C9    C     C_R   0.121059 0.503010 0.050672 0.018549
C10   C     C_R   0.277116 0.540207 0.077974 -0.070674
C11   C     C_R   0.355748 0.579110 0.015996 -0.070068
C12   C     C_3   0.534819 0.778408 0.224887 0.406724
C13   C     C_R   0.283322 0.591425 0.931783 0.154202
C14   C     C_R   0.046441 0.463302 0.117679 -0.103294
C15   C     C_R   0.264180 0.513082 0.232969 -0.265934
C16   C     C_3   0.055306 0.863586 0.142943 -0.053777
C17   C     C_R   0.081310 0.529573 0.797416 0.063394
C18   C     C_R   0.694929 0.943197 0.551968 0.179100
C19   C     C_R   0.514913 0.797737 0.497074 0.116133
C20   C     C_R   0.366886 0.762216 0.449288 -0.064908
C21   C     C_R   0.261171 0.821933 0.415827 0.090987
C22   C     C_R   0.304374 0.913156 0.415509 -0.192702
C23   C     C_3   0.458707 0.266679 0.257914 0.547140
C24   C     C_R   0.451720 0.951737 0.455794 -0.057075
C25   C     C_R   0.555793 0.896673 0.502950 -0.047704
C26   C     C_R   0.631897 0.091317 0.498512 -0.073574
C27   C     C_R   0.740498 0.035993 0.541691 -0.025381
C28   C     C_3   0.186991 0.760454 0.669950 0.449029
C29   C     C_R   0.672801 0.188904 0.503198 0.062733
C30   C     C_R   0.818278 0.226259 0.547778 -0.283877
C31   C     C_R   0.932133 0.169148 0.577832 -0.000748
C32   C     C_R   0.894321 0.074468 0.573812 0.067768
C33   C     C_R   0.490596 0.046023 0.451169 0.162552
C34   C     C_3   0.392072 0.191249 0.175866 0.164948
C35   C     C_3   0.153641 0.858563 0.712380 -0.076824
C36   C     C_3   0.931621 0.245778 0.321918 0.372955
C37   C     C_3   0.889942 0.146491 0.269197 0.168832
C38   C     C_3   0.732198 0.710063 0.742232 0.567023
C39   C     C_3   0.708631 0.757597 0.839122 0.170231
C40   C     C_3   0.115965 0.247682 0.794741 0.548049
C41   C     C_3   0.012831 0.185161 0.841556 0.081689
C42   C     C_3   0.577421 0.227320 0.763030 0.346837
C43   C     C_3   0.547529 0.137876 0.802613 -0.125997
C44   C     C_R   0.348338 0.545012 0.169135 0.003585
H1    H     H_    0.646981 0.871993 0.334429 0.141888
H2    H     H_    0.798380 0.153688 0.213551 0.090953
H3    H     H_    0.906516 0.081822 0.384083 0.188252
H4    H     H_    0.721496 0.099014 0.338793 0.180556
H5    H     H_    0.049673 0.145904 0.178846 0.200699
H6    H     H_    0.114820 0.104408 0.276371 0.167409
H7    H     H_    0.912016 0.676628 0.676332 0.166755
H8    H     H_    0.951376 0.685945 0.790508 0.119371
H9    H     H_    0.731150 0.574185 0.679673 0.132644
H10   H     H_    0.564405 0.612749 0.695610 0.237305
H11   H     H_    0.728029 0.859468 0.121141 0.209470
H12   H     H_    0.737147 0.771753 0.311576 0.265983
H13   H     H_    0.738955 0.924937 0.223569 0.216121
H14   H     H_    0.806596 0.810577 0.864502 0.043735
H15   H     H_    0.693838 0.723401 0.966228 0.177703
H16   H     H_    0.820907 0.664291 0.910897 0.143063
H17   H     H_    0.579521 0.865249 0.806516 0.208808
H18   H     H_    0.549287 0.832532 0.903615 0.187092
H19   H     H_    0.418647 0.760064 0.239583 0.020593
H20   H     H_    0.455768 0.916054 0.210741 0.058856
H21   H     H_    0.267193 0.336292 0.239523 0.141867
H22   H     H_    0.366152 0.369494 0.340243 0.161950
H23   H     H_    0.260594 0.961509 0.808963 0.208906
H24   H     H_    0.585414 0.390023 0.282155 0.201088
H25   H     H_    0.502880 0.364167 0.175585 0.138869
H26   H     H_    0.319545 0.140409 0.203138 0.088406
H27   H     H_    0.222234 0.175787 0.067064 0.174333
H28   H     H_    0.359728 0.259311 0.063875 0.176705
H29   H     H_    0.597561 0.186101 0.119478 0.183756
H30   H     H_    0.559896 0.096071 0.177553 0.201359
H31   H     H_    0.333157 0.796102 0.087172 0.166391
H32   H     H_    0.496915 0.794740 0.041949 0.206488
H33   H     H_    0.175789 0.893198 0.166350 0.091577
H34   H     H_    0.207788 0.865816 0.849746 0.210601
H35   H     H_    0.185140 0.351873 0.901263 0.145754
H36   H     H_    0.301310 0.262459 0.898280 0.165417
H37   H     H_    0.036239 0.296204 0.764017 -0.058493
H38   H     H_    0.017836 0.063012 0.895036 0.178794
H39   H     H_    0.188641 0.126325 0.917300 0.174533
H40   H     H_    0.871207 0.195708 0.941819 0.183805
H41   H     H_    0.043876 0.253976 0.972764 0.177660
H42   H     H_    0.911468 0.158197 0.790422 0.061732
H43   H     H_    0.681834 0.220700 0.727046 -0.062965
H44   H     H_    0.474525 0.237447 0.714259 0.124173
H45   H     H_    0.176125 0.904637 0.662717 0.075030
H46   H     H_    0.653965 0.122724 0.845966 0.100921
H47   H     H_    0.588889 0.055380 0.688445 0.165686
H48   H     H_    0.398887 0.070495 0.693951 0.222590
H49   H     H_    0.916319 0.686096 0.090090 0.142682
H50   H     H_    0.867442 0.672461 0.190483 0.230610
H51   H     H_    0.453035 0.146214 0.845822 0.140295
H52   H     H_    0.319892 0.514708 0.301133 0.050735
H53   H     H_    0.471333 0.611239 0.035176 0.129181
H54   H     H_    0.940345 0.420433 0.101148 0.122418
H55   H     H_    0.897710 0.461538 0.698001 0.058799
H56   H     H_    0.031967 0.863004 0.726384 0.090824
H57   H     H_    0.727334 0.404589 0.979398 0.207320
H58   H     H_    0.697177 0.518589 0.974634 0.209612
H59   H     H_    0.402089 0.658719 0.848153 0.280709
H60   H     H_    0.249176 0.717771 0.893695 0.203734
H61   H     H_    0.393374 0.625365 0.410165 0.207167
H62   H     H_    0.290544 0.646583 0.499664 0.196828
H63   H     H_    0.216561 0.953639 0.384803 0.082648
H64   H     H_    0.066175 0.037685 0.662617 0.194105
H65   H     H_    0.099780 0.019199 0.551835 0.197869
H66   H     H_    0.182769 0.703408 0.143739 0.115834
H67   H     H_    0.823331 0.278151 0.338025 0.047033
H68   H     H_    0.127660 0.669031 0.234135 0.162754
H69   H     H_    0.848473 0.299468 0.551682 0.056552
H70   H     H_    0.878294 0.879494 0.605830 0.236284
H71   H     H_    0.795736 0.952174 0.683368 0.165232
H72   H     H_    0.380005 0.054942 0.325999 0.145172
H73   H     H_    0.282056 0.097797 0.413025 0.193239
H74   H     H_    0.081822 0.774261 0.026018 0.164932
H75   H     H_    0.916131 0.831117 0.020683 0.174633
H76   H     H_    0.980788 0.921849 0.159259 0.140398
H77   H     H_    0.407674 0.818924 0.672267 0.216131
H78   H     H_    0.043239 0.304888 0.446345 0.191640
H79   H     H_    0.384693 0.703298 0.643182 0.188330
H80   H     H_    0.095417 0.734735 0.612614 0.048747
H81   H     H_    0.143415 0.226087 0.388422 0.225153
N1    N     N_3   0.630283 0.800825 0.313273 -0.490363
N2    N     N_3   0.563953 0.806208 0.837342 -0.453351
N3    N     N_3   0.327510 0.310872 0.293668 -0.460228
N4    N     N_3   0.561956 0.335455 0.229004 -0.485614
N5    N     N_3   0.291557 0.230303 0.106605 -0.537409
N6    N     N_3   0.511730 0.140011 0.133726 -0.491984
N7    N     N_3   0.430987 0.837183 0.082038 -0.464511
N8    N     N_3   0.236832 0.303983 0.858252 -0.446249
N9    N     N_3   0.094418 0.104931 0.867476 -0.500448
N10   N     N_3   0.953749 0.237876 0.919117 -0.530139
N11   N     N_3   0.504138 0.059028 0.731821 -0.516259
N12   N     N_3   0.257379 0.889276 0.796594 -0.467476
N13   N     N_3   0.887116 0.722841 0.149657 -0.464554
N14   N     N_3   0.781099 0.471051 0.987439 -0.487417
N15   N     N_3   0.339060 0.673074 0.901794 -0.507844
N16   N     N_3   0.313999 0.666732 0.438916 -0.484854
N17   N     N_3   0.016399 0.015721 0.595874 -0.518266
N18   N     N_3   0.156212 0.728594 0.207753 -0.545600
N19   N     N_3   0.774627 0.903555 0.624697 -0.455972
N20   N     N_3   0.391111 0.092470 0.391062 -0.457140
N21   N     N_3   0.035129 0.837743 0.044398 -0.514155
N22   N     N_3   0.333635 0.765112 0.635241 -0.548034
N23   N     N_3   0.033870 0.240807 0.405349 -0.535558
N24   N     N_3   0.831242 0.081311 0.324079 -0.504570
N25   N     N_3   0.019304 0.106159 0.227218 -0.485198
N26   N     N_3   0.896060 0.715886 0.737001 -0.501523
N27   N     N_3   0.674811 0.613135 0.727864 -0.470734
N28   N     N_3   0.670086 0.906656 0.161296 -0.478642
N29   N     N_3   0.709749 0.689689 0.902522 -0.490469
O1    O     O_2   0.841250 0.444240 0.280450 -0.455955
O2    O     O_2   0.256681 0.170142 0.567759 -0.500241
O3    O     O_3   0.189984 0.191222 0.730968 -0.616331
O4    O     O_3   0.112870 0.447390 0.393710 -0.498961
O5    O     O_3   0.560600 0.613720 0.540760 -0.526665
O6    O     O_2   0.387470 0.270310 0.467210 -0.438295
O7    O     O_3   0.544634 0.220742 0.322695 -0.655300
O8    O     O_2   0.517924 0.469291 0.825998 -0.440817
O9    O     O_3   0.600882 0.302135 0.833702 -0.613275
O10   O     O_3   0.597960 0.615760 0.327700 -0.486923
O11   O     O_2   0.670071 0.533108 0.172862 -0.469364
O12   O     O_3   0.656285 0.760739 0.678090 -0.633591
O13   O     O_3   0.006594 0.296062 0.265053 -0.640128
O14   O     O_3   0.590838 0.702982 0.171403 -0.610078
O15   O     O_2   0.802240 0.729720 0.532850 -0.460555
O16   O     O_3   0.017190 0.664840 0.371090 -0.462727
O17   O     O_2   0.960980 0.830490 0.451632 -0.483568
O18   O     O_3   0.978239 0.827176 0.280558 -0.614562
O19   O     O_2   0.348460 0.555790 0.719610 -0.468960
O20   O     O_3   0.076820 0.552690 0.606290 -0.518721
O21   O     O_3   0.591740 0.384320 0.672310 -0.491988
O22   O     O_3   0.197337 0.704076 0.738000 -0.638412
O23   O     O_3   0.629090 0.386360 0.459240 -0.494730
O24   O     O_3   0.172500 0.335240 0.628910 -0.459356
P1    P     P_3+3 0.018620 0.416870 0.295980 0.983235
P2    P     P_3+3 0.635650 0.716500 0.560900 0.964944
P3    P     P_3+3 0.056006 0.784213 0.379522 0.963294
P4    P     P_3+3 0.171070 0.583210 0.704020 0.942825
P5    P     P_3+3 0.134127 0.217043 0.621950 0.923532
P6    P     P_3+3 0.548986 0.597654 0.210477 0.922324
P7    P     P_3+3 0.558300 0.268535 0.438654 0.963132
P8    P     P_3+3 0.639688 0.404560 0.789672 0.972040

loop_
_geom_bond_atom_site_label_1
_geom_bond_atom_site_label_2
_ccdc_geom_bond_type
H23   N12   S    
H9    N27   S    
C39   N2    S    
C28   H80   S    
Ba1   O20   S    
H7    N26   S    
H28   N5    S    
O15   P2    D    
C40   O3    S    
C12   O14   S    
C34   N6    S    
Ba2   O6    S    
H8    N26   S    
H77   N22   S    
Ba2   O23   S    
C5    C6    A    
H12   N1    S    
C10   C11   A    
H11   N28   S    
C32   N17   S    
H49   N13   S    
O21   P8    S    
O1    P1    D    
C41   H42   S    
H72   N20   S    
C22   C24   A    
C16   N21   S    
C8    C13   A    
C34   N5    S    
H81   N23   S    
O6    P7    D    
O23   P7    S    
H73   N20   S    
C37   N24   S    
O5    P2    S    
C12   N1    S    
H66   N18   S    
O7    P7    S    
Ba1   Ba2   S    
H36   N8    S    
C43   H46   S    
H24   N4    S    
H47   N11   S    
H40   N10   S    
Ba2   O20   S    
H4    N24   S    
C26   C33   A    
C6    C7    A    
C20   N16   S    
C21   C22   A    
H60   N15   S    
C6    N14   S    
Ba2   O21   S    
C2    P1    S    
C7    C8    A    
C39   N29   S    
C19   C25   A    
H27   N5    S    
Ba1   O5    S    
C19   C20   A    
C38   N27   S    
Ba2   O24   S    
H41   N10   S    
C23   N3    S    
H57   N14   S    
Ba2   O5    S    
C2    C14   A    
H35   N8    S    
C18   C27   A    
C26   C29   A    
C19   P2    S    
C4    C16   S    
C3    H55   S    
O9    P8    S    
H3    N24   S    
C5    P8    S    
H1    N1    S    
C15   C44   A    
H68   N18   S    
C10   C44   A    
H59   N15   S    
C3    C5    A    
C36   H67   S    
C35   H45   S    
C16   H33   S    
C28   N22   S    
Ba2   P4    S    
C4    O18   S    
O11   P6    D    
C37   N25   S    
Ba1   O15   S    
C35   H56   S    
C28   C35   S    
H71   N19   S    
C11   H53   S    
H22   N3    S    
H15   N29   S    
C21   P3    S    
Ba2   O19   S    
C13   N15   S    
H32   N7    S    
C9    C14   A    
C29   C30   A    
C8    C17   A    
H6    N25   S    
H58   N14   S    
O20   P4    S    
O14   P6    S    
C1    N28   S    
C31   C32   A    
C28   O22   S    
H75   N21   S    
C33   N20   S    
C44   P6    S    
H64   N17   S    
C7    C9    A    
O13   P1    S    
C1    C12   S    
H79   N22   S    
H65   N17   S    
C16   H76   S    
C2    C15   A    
H10   N27   S    
C38   C39   S    
H5    N25   S    
H74   N21   S    
O12   P2    S    
C11   C13   A    
C24   C25   A    
H48   N11   S    
H30   N6    S    
C18   N19   S    
C38   N26   S    
C1    H20   S    
C40   C41   S    
H61   N16   S    
C26   C27   A    
O2    P5    D    
O4    P1    S    
C42   H44   S    
C42   C43   S    
C36   O13   S    
C15   H52   S    
C35   N12   S    
C4    N18   S    
H78   N23   S    
H38   N9    S    
Ba1   P1    S    
C23   C34   S    
O10   P6    S    
Ba1   O4    S    
C14   H54   S    
C22   H63   S    
C39   H14   S    
O8    P8    D    
C17   P4    S    
H50   N13   S    
Ba1   P2    S    
H29   N6    S    
C3    C17   A    
C18   C25   A    
H34   N12   S    
H13   N28   S    
Ba1   O16   S    
C1    N7    S    
C30   C31   A    
O3    P5    S    
Ba1   O1    S    
C40   H37   S    
C43   H51   S    
H70   N19   S    
Ba1   O23   S    
O16   P3    S    
C36   C37   S    
Ba1   O10   S    
C23   O7    S    
C27   C32   A    
C43   N11   S    
C12   H19   S    
H16   N29   S    
C41   N10   S    
C42   O9    S    
H17   N2    S    
C30   H69   S    
C4    N13   S    
C41   N9    S    
C38   O12   S    
O24   P5    S    
H39   N9    S    
H25   N4    S    
H21   N3    S    
C24   C33   A    
H18   N2    S    
O17   P3    D    
Ba2   O4    S    
H31   N7    S    
C29   P7    S    
C20   C21   A    
C40   N8    S    
C31   P5    S    
O18   P3    S    
C36   N23   S    
H62   N16   S    
O22   P4    S    
C42   H43   S    
C34   H26   S    
C9    C10   A    
C37   H2    S    
O19   P4    D    
C23   N4    S    
