data_mof_unit_38779.cif
_audit_creation_date              2012-12-10T17:03:57-0500
_audit_creation_method            fapswitch 2.2
_symmetry_space_group_name_H-M    P1
_symmetry_Int_Tables_number       1
_space_group_crystal_system       triclinic
_cell_length_a                    9.951596
_cell_length_b                    11.067366
_cell_length_c                    15.753225
_cell_angle_alpha                 97.425963
_cell_angle_beta                  78.099402
_cell_angle_gamma                 111.639958
_cell_volume                      1575.37781928

loop_
_atom_site_label
_atom_site_type_symbol
_atom_type_description
_atom_site_fract_x
_atom_site_fract_y
_atom_site_fract_z
_atom_type_partial_charge
C1    C     C_R   0.557323 0.745032 0.504520 0.875278
C2    C     C_R   0.442655 0.254963 0.495569 0.868361
C3    C     C_R   0.329834 0.390835 0.068350 0.133082
C4    C     C_R   0.674399 0.596163 0.931271 0.133163
C5    C     C_R   0.222035 0.387800 0.021819 0.108710
C6    C     C_R   0.781553 0.596577 0.977691 0.109574
C7    C     C_2   0.583040 0.883593 0.515798 -0.343438
C8    C     C_2   0.417049 0.116406 0.484497 -0.340044
C9    C     C_2   0.505307 0.936417 0.481860 0.141908
C10   C     C_2   0.495559 0.063998 0.518124 0.143849
C11   C     C_2   0.924284 0.487568 0.491979 0.272467
C12   C     C_2   0.068922 0.500742 0.514167 0.240414
C13   C     C_R   0.410984 0.484465 0.662889 0.803900
C14   C     C_R   0.588810 0.513525 0.337157 0.801369
C15   C     C_R   0.357993 0.470039 0.757094 -0.055422
C16   C     C_R   0.642469 0.522838 0.243032 -0.052579
C17   C     C_R   0.163139 0.406697 0.881012 -0.172016
C18   C     C_R   0.838619 0.574757 0.118967 -0.173923
C19   C     C_R   0.208813 0.428402 0.792830 -0.181200
C20   C     C_R   0.791401 0.555284 0.207592 -0.180683
C21   C     C_R   0.460312 0.493005 0.811859 -0.150270
C22   C     C_R   0.541525 0.501251 0.187828 -0.153460
C23   C     C_R   0.418182 0.484409 0.902105 0.070424
C24   C     C_R   0.584541 0.504683 0.097546 0.072045
C25   C     C_R   0.266363 0.429646 0.936248 0.115462
C26   C     C_R   0.736434 0.555475 0.063466 0.116556
C27   C     C_R   0.524334 0.517928 0.957492 -0.045504
C28   C     C_R   0.479090 0.470262 0.041908 -0.046794
Cu1   Cu    Cu3+1 0.362980 0.479380 0.485080 0.974990
Cu2   Cu    Cu3+1 0.637020 0.520620 0.514920 0.979462
H1    H     H_    0.428453 0.486678 0.215836 0.182466
H2    H     H_    0.573705 0.511300 0.783154 0.186139
H3    H     H_    0.872034 0.572371 0.248833 0.166609
H4    H     H_    0.126412 0.404354 0.752438 0.154163
H5    H     H_    0.046269 0.366112 0.904057 0.158142
H6    H     H_    0.955630 0.609961 0.095606 0.157179
H7    H     H_    0.345533 0.061776 0.438845 0.174623
H8    H     H_    0.653971 0.937815 0.561829 0.173672
H9    H     H_    0.136204 0.410279 0.401782 0.205493
H10   H     H_    0.888585 0.632231 0.576097 0.198182
N1    N     N_2   0.842890 0.551600 0.537350 -0.276777
N2    N     N_2   0.157110 0.448400 0.462650 -0.281359
O1    O     O_R   0.426810 0.668300 0.492040 -0.552042
O2    O     O_R   0.573190 0.331700 0.507960 -0.554744
O3    O     O_R   0.658240 0.703130 0.517240 -0.565606
O4    O     O_R   0.341760 0.296870 0.482760 -0.559133
O5    O     O_R   0.319390 0.472820 0.610170 -0.593103
O6    O     O_R   0.680610 0.527180 0.389830 -0.595119
O7    O     O_R   0.550820 0.507640 0.635370 -0.556270
O8    O     O_R   0.449180 0.492360 0.364630 -0.563133
C29   C     C_3   0.061065 0.330664 0.060842 -0.803849
H11   H     H_    0.043525 0.319581 0.131630 0.255908
H12   H     H_    0.004285 0.397187 0.053494 0.212736
H13   H     H_    0.009573 0.234276 0.027933 0.257371
C30   C     C_3   0.942664 0.651121 0.938683 -0.802123
H14   H     H_    0.996851 0.582212 0.945311 0.213720
H15   H     H_    0.960488 0.663732 0.868078 0.256431
H16   H     H_    0.996321 0.746374 0.972214 0.256594
I1    I     I_    0.271564 0.236448 0.154906 -0.372767
I2    I     I_    0.735621 0.754178 0.847378 -0.374275
I3    I     I_    0.589679 0.156660 0.632504 -0.348525
I4    I     I_    0.412666 0.844443 0.366950 -0.349330
C31   C     C_3   0.099619 0.556166 0.603865 -0.709613
H17   H     H_    0.024275 0.601734 0.643337 0.170149
H18   H     H_    0.082744 0.473759 0.642069 0.226820
H19   H     H_    0.209870 0.631812 0.601162 0.259198
C32   C     C_3   0.876101 0.391059 0.416660 -0.736300
H20   H     H_    0.951343 0.427691 0.355517 0.176706
H21   H     H_    0.879030 0.295224 0.428253 0.210140
H22   H     H_    0.767765 0.371577 0.402719 0.275946

loop_
_geom_bond_atom_site_label_1
_geom_bond_atom_site_label_2
_ccdc_geom_bond_type
C5    C25   A    
C12   N2    D    
C11   C12   S    
C31   H18   S    
Cu2   N1    S    
H10   N1    S    
Cu1   Cu2   S    
C14   C16   S    
C23   C27   A    
Cu1   N2    S    
C2    O4    A    
C9    C10   S    
C6    C30   S    
Cu2   O3    S    
C18   C26   A    
C13   C15   S    
Cu1   O4    S    
C16   C20   A    
C29   H13   S    
C17   C25   A    
C4    I2    S    
C30   H14   S    
C23   C25   A    
C31   H19   S    
C1    O3    A    
C14   O8    A    
Cu1   O1    S    
C15   C19   A    
C24   C26   A    
Cu2   O2    S    
C6    C26   A    
C18   H6    S    
Cu1   O5    S    
C32   H20   S    
C13   O7    A    
C20   H3    S    
Cu2   O6    S    
C3    C28   A    
C17   C19   A    
Cu2   O7    S    
C11   C32   S    
C7    H8    S    
C11   N1    D    
H9    N2    S    
C18   C20   A    
Cu1   O8    S    
C30   H15   S    
C21   C23   A    
C21   H2    S    
C22   C24   A    
C10   I3    S    
C8    H7    S    
C29   H12   S    
C29   H11   S    
C24   C28   A    
C15   C21   A    
C4    C27   A    
C4    C6    A    
C22   H1    S    
C30   H16   S    
C27   C28   A    
C7    C9    D    
C12   C31   S    
C14   O6    A    
C5    C29   S    
C16   C22   A    
C17   H5    S    
C32   H22   S    
C3    C5    A    
C1    C7    S    
C13   O5    A    
C1    O1    A    
C8    C10   D    
C2    C8    S    
C9    I4    S    
C2    O2    A    
C31   H17   S    
C32   H21   S    
C19   H4    S    
C3    I1    S    
