data_mof_unit_18166.cif
_audit_creation_date              2012-12-11T17:01:17-0500
_audit_creation_method            fapswitch 2.2
_symmetry_space_group_name_H-M    P1
_symmetry_Int_Tables_number       1
_space_group_crystal_system       triclinic
_cell_length_a                    14.947824
_cell_length_b                    14.862228
_cell_length_c                    14.856605
_cell_angle_alpha                 109.862462
_cell_angle_beta                  109.20942
_cell_angle_gamma                 109.398413
_cell_volume                      2538.89333455

loop_
_atom_site_label
_atom_site_type_symbol
_atom_type_description
_atom_site_fract_x
_atom_site_fract_y
_atom_site_fract_z
_atom_type_partial_charge
C1    C     C_R   0.929516 0.744381 0.023363 -0.154274
C2    C     C_R   0.209971 0.805635 0.300948 -0.142317
C3    C     C_R   0.973322 0.408654 0.223882 -0.128065
C4    C     C_R   0.779345 0.253790 0.685659 -0.146839
C5    C     C_R   0.314402 0.592118 0.068053 -0.138460
C6    C     C_R   0.051230 0.502081 0.327114 0.076001
C7    C     C_R   0.325067 0.499466 0.052664 0.022807
C8    C     C_R   0.303030 0.868492 0.301880 0.081034
C9    C     C_R   0.934888 0.131570 0.934810 0.078608
C10   C     C_3   0.544494 0.508692 0.977966 -0.443699
C11   C     C_3   0.444238 0.514280 0.975772 -0.429426
C12   C     C_R   0.675867 0.224232 0.672798 0.072244
C13   C     C_3   0.525332 0.388670 0.061819 -0.410494
C14   C     C_3   0.635926 0.601235 0.186744 -0.049069
C15   C     C_3   0.605610 0.499587 0.078538 0.335581
C16   C     C_R   0.096236 0.592024 0.792573 -0.159358
C17   C     C_3   0.428064 0.499702 0.069017 0.298264
C18   C     C_3   0.421180 0.388830 0.056536 -0.394413
C19   C     C_3   0.528778 0.596865 0.183680 -0.132855
C20   C     C_R   0.574019 0.122698 0.467769 0.163107
C21   C     C_R   0.575045 0.168291 0.567840 0.035036
C22   C     C_R   0.473689 0.140126 0.564283 -0.201038
C23   C     C_R   0.066547 0.501280 0.698027 0.083230
C24   C     C_R   0.378143 0.047848 0.469890 -0.204555
C25   C     C_R   0.384387 0.985209 0.379153 0.033035
C26   C     C_R   0.479713 0.032577 0.374526 0.157524
C27   C     C_3   0.541310 0.982260 0.336273 -0.520524
C28   C     C_R   0.702001 0.408279 0.007560 -0.154993
C29   C     C_3   0.644347 0.080249 0.438376 -0.520784
C30   C     C_R   0.158141 0.605081 0.532454 0.170898
C31   C     C_R   0.100860 0.505618 0.431911 0.033422
C32   C     C_R   0.074159 0.407040 0.435280 -0.199252
C33   C     C_R   0.076394 0.406275 0.529944 -0.206946
C34   C     C_R   0.701829 0.499616 0.072552 0.018752
C35   C     C_R   0.106480 0.504353 0.621038 0.029263
C36   C     C_R   0.160949 0.604278 0.625869 0.164057
C37   C     C_3   0.153858 0.707302 0.665826 -0.527653
C38   C     C_3   0.150709 0.708426 0.563901 -0.526188
C39   C     C_R   0.842220 0.874989 0.948790 0.101583
C40   C     C_R   0.004599 0.409042 0.699044 -0.146120
C41   C     C_R   0.896315 0.829226 0.903675 0.021713
C42   C     C_R   0.921164 0.857925 0.830315 -0.185222
C43   C     C_R   0.920933 0.951335 0.828204 -0.206153
C44   C     C_R   0.894572 0.014570 0.898485 0.046400
C45   C     C_R   0.067776 0.593163 0.314251 -0.145482
C46   C     C_R   0.842656 0.967296 0.946698 0.139206
C47   C     C_3   0.856018 0.018266 0.059470 -0.584529
C48   C     C_3   0.854895 0.917494 0.062423 -0.149975
C49   C     C_R   0.791691 0.591241 0.098277 -0.156881
C50   C     C_R   0.685408 0.249525 0.775923 -0.125065
C51   C     C_R   0.024547 0.749709 0.934440 -0.120040
C52   C     C_R   0.946033 0.773881 0.949106 0.067772
C53   C     C_3   0.727538 0.631422 0.299366 -0.414153
C54   C     C_3   0.716234 0.536796 0.323480 -0.207873
C55   C     C_3   0.798030 0.580636 0.443088 -0.937961
C56   C     C_R   0.222360 0.407318 0.975471 -0.134601
C57   C     C_1   0.514825 0.589641 0.275519 0.061191
C58   C     C_1   0.757383 0.850301 0.062945 0.068892
C59   C     C_R   0.298919 0.803794 0.207292 -0.153188
C60   C     C_R   0.904718 0.196041 0.995157 -0.153595
C61   C     C_R   0.997396 0.194769 0.905160 -0.139806
H1    H     H_    0.870604 0.745551 0.049097 0.110207
H2    H     H_    0.598492 0.583027 0.980306 0.175054
H3    H     H_    0.454328 0.595301 0.985454 0.167417
H4    H     H_    0.803353 0.250785 0.624403 0.111129
H5    H     H_    0.371273 0.448816 0.893375 0.175027
H6    H     H_    0.499975 0.318382 0.982202 0.151316
H7    H     H_    0.351214 0.317587 0.975623 0.151192
H8    H     H_    0.673941 0.674878 0.179338 0.098834
H9    H     H_    0.534620 0.676452 0.193326 0.081889
H10   H     H_    0.562546 0.370226 0.125765 0.144525
H11   H     H_    0.408863 0.375085 0.121597 0.162324
H12   H     H_    0.199858 0.321443 0.939478 0.093224
H13   H     H_    0.469328 0.179088 0.637626 0.123721
H14   H     H_    0.160168 0.675726 0.829191 0.101130
H15   H     H_    0.303784 0.019013 0.474021 0.123764
H16   H     H_    0.524394 0.903547 0.336401 0.201513
H17   H     H_    0.536084 0.979914 0.259034 0.189452
H18   H     H_    0.685159 0.056347 0.495957 0.200664
H19   H     H_    0.698599 0.133847 0.419779 0.191203
H20   H     H_    0.037900 0.328734 0.361689 0.126849
H21   H     H_    0.041750 0.327420 0.525563 0.125243
H22   H     H_    0.076198 0.693514 0.666302 0.201908
H23   H     H_    0.345758 0.831453 0.170719 0.099703
H24   H     H_    0.229672 0.777578 0.743100 0.189959
H25   H     H_    0.071383 0.695888 0.507708 0.194660
H26   H     H_    0.649145 0.322949 0.979692 0.086473
H27   H     H_    0.224588 0.779450 0.582535 0.193276
H28   H     H_    0.954730 0.818602 0.786373 0.125334
H29   H     H_    0.953973 0.980409 0.782521 0.123056
H30   H     H_    0.936625 0.094637 0.121095 0.190634
H31   H     H_    0.784234 0.026665 0.057626 0.193085
H32   H     H_    0.933307 0.937322 0.128156 0.131190
H33   H     H_    0.981893 0.324819 0.646960 0.084854
H34   H     H_    0.840190 0.168086 0.013649 0.103730
H35   H     H_    0.820172 0.676742 0.152903 0.084878
H36   H     H_    0.621393 0.238438 0.796809 0.090703
H37   H     H_    0.056434 0.760989 0.881215 0.092563
H38   H     H_    0.126185 0.678571 0.375113 0.110917
H39   H     H_    0.882776 0.628590 0.461174 0.258843
H40   H     H_    0.781369 0.634390 0.500374 0.265293
H41   H     H_    0.790818 0.510421 0.457196 0.254608
H42   H     H_    0.632794 0.489792 0.308726 0.206026
H43   H     H_    0.733478 0.480445 0.269518 0.190588
H44   H     H_    0.808085 0.667432 0.304003 0.173011
H45   H     H_    0.020494 0.165335 0.844201 0.083598
H46   H     H_    0.732641 0.699051 0.366945 0.197761
H47   H     H_    0.178710 0.835522 0.353517 0.084060
H48   H     H_    0.941256 0.323233 0.202645 0.093593
H49   H     H_    0.378356 0.677581 0.116825 0.091984
H50   H     H_    0.518527 0.436064 0.899530 0.174701
N1    N     N_R   0.995640 0.706130 0.053910 -0.039797
N2    N     N_R   0.054010 0.556790 0.847890 -0.037375
N3    N     N_R   0.789940 0.443190 0.997130 -0.032087
N4    N     N_R   0.997630 0.443170 0.791110 -0.037902
N5    N     N_R   0.846320 0.556810 0.053910 -0.032055
N6    N     N_R   0.791080 0.293860 0.847890 -0.040258
N7    N     N_R   0.052880 0.706130 0.997130 -0.040499
N8    N     N_R   0.002370 0.556830 0.208890 -0.039334
N9    N     N_1   0.503578 0.584214 0.347304 -0.090466
N10   N     N_1   0.680743 0.798370 0.063849 -0.123673
N11   N     N_R   0.153680 0.443190 0.946090 -0.037808
N12   N     N_R   0.208920 0.706140 0.152110 -0.035787
N13   N     N_R   0.947120 0.293870 0.002870 -0.038110
N14   N     N_R   0.004360 0.293870 0.946090 -0.036609
N15   N     N_R   0.151690 0.706140 0.208890 -0.037630
N16   N     N_R   0.945990 0.443210 0.152110 -0.039368
N17   N     N_R   0.210060 0.556810 0.002870 -0.036683
N18   N     N_R   0.848310 0.293860 0.791110 -0.040385
Ni1   Ni    Ni4+2 0.999010 0.630300 0.130220 0.207758
Ni2   Ni    Ni4+2 0.000990 0.369700 0.869780 0.207191
Ni3   Ni    Ni4+2 0.130280 0.630280 0.000000 0.207692
Ni4   Ni    Ni4+2 0.869720 0.369720 0.000000 0.208740

loop_
_geom_bond_atom_site_label_1
_geom_bond_atom_site_label_2
_ccdc_geom_bond_type
N2    Ni3   S    
N12   Ni3   S    
C27   C29   S    
C50   N6    A    
C47   H31   S    
C35   C36   A    
C27   H17   S    
N6    Ni4   S    
C1    H1    S    
C51   N7    A    
C39   C41   A    
N4    Ni2   S    
C53   C54   S    
C19   C57   S    
N18   Ni2   S    
C32   H20   S    
C55   H41   S    
C26   C27   S    
C13   C18   S    
C38   H25   S    
C9    C61   A    
C50   H36   S    
C54   H43   S    
C36   C37   S    
C6    C45   A    
C10   C15   S    
C1    N1    A    
C30   C31   A    
C3    N16   A    
C40   N4    A    
C5    H49   S    
N15   Ni1   S    
C18   H7    S    
C23   C40   A    
C16   H14   S    
N8    Ni1   S    
C30   C38   S    
C41   C42   A    
C60   N13   A    
N14   Ni2   S    
C17   C19   S    
C54   C55   S    
C10   H2    S    
C34   C49   A    
C55   H39   S    
C4    C12   A    
N6    N18   A    
C33   H21   S    
C41   C52   S    
C11   H5    S    
C3    C6    A    
C51   H37   S    
C6    C31   S    
C28   C34   A    
C21   C22   A    
C16   N2    A    
C18   H11   S    
C8    C25   S    
C7    C56   A    
N17   Ni3   S    
C44   C46   A    
C20   C29   S    
C59   N12   A    
N13   N14   A    
C43   H29   S    
C48   H32   S    
C51   C52   A    
C54   H42   S    
C24   C25   A    
C11   H3    S    
C45   H38   S    
C5    C7    A    
C24   H15   S    
N12   N15   A    
C13   H10   S    
C7    C17   S    
C25   C26   A    
C12   C21   S    
C38   H27   S    
C56   N11   A    
C43   C44   A    
C37   C38   S    
C53   H46   S    
C12   C50   A    
C47   C48   S    
C29   H18   S    
C49   N5    A    
C28   H26   S    
C17   C18   S    
C10   H50   S    
C59   H23   S    
C61   H45   S    
C9    C44   S    
C28   N3    A    
C57   N9    T    
N13   Ni4   S    
C16   C23   A    
C23   C35   S    
C39   C46   A    
C14   H8    S    
C22   C24   A    
C42   C43   A    
C22   H13   S    
C2    N15   A    
N11   Ni2   S    
C13   H6    S    
C37   H24   S    
C46   C47   S    
C11   C17   S    
C58   N10   T    
C56   H12   S    
C15   C34   S    
C47   H30   S    
C14   C19   S    
C31   C32   A    
C2    C8    A    
N16   Ni4   S    
C40   H33   S    
C27   H16   S    
N3    N5    A    
C48   C58   S    
C4    N18   A    
C55   H40   S    
C30   C36   A    
C9    C60   A    
C32   C33   A    
C42   H28   S    
C13   C15   S    
C8    C59   A    
N1    N7    A    
C45   N8    A    
C4    H4    S    
C29   H19   S    
C20   C26   A    
C3    H48   S    
C5    N17   A    
C2    H47   S    
C33   C35   A    
N3    Ni4   S    
C49   H35   S    
N11   N17   A    
C1    C52   A    
N7    Ni3   S    
C10   C11   S    
C60   H34   S    
C53   H44   S    
C14   C53   S    
N5    Ni1   S    
C20   C21   A    
C14   C15   S    
C37   H22   S    
C19   H9    S    
C61   N14   A    
N1    Ni1   S    
C39   C48   S    
N2    N4    A    
N8    N16   A    
