data_mof_unit_34534.cif
_audit_creation_date              2012-12-10T18:11:41-0500
_audit_creation_method            fapswitch 2.2
_symmetry_space_group_name_H-M    P1
_symmetry_Int_Tables_number       1
_space_group_crystal_system       triclinic
_cell_length_a                    10.485023
_cell_length_b                    12.641834
_cell_length_c                    13.085667
_cell_angle_alpha                 81.956828
_cell_angle_beta                  90.954379
_cell_angle_gamma                 103.110195
_cell_volume                      1672.47307261

loop_
_atom_site_label
_atom_site_type_symbol
_atom_type_description
_atom_site_fract_x
_atom_site_fract_y
_atom_site_fract_z
_atom_type_partial_charge
C1    C     C_R   0.481517 0.438544 0.691289 0.849768
C2    C     C_R   0.468330 0.446636 0.973985 0.083396
C3    C     C_R   0.433709 0.464036 0.869951 0.025993
C4    C     C_R   0.742529 0.501720 0.499000 0.863251
C5    C     C_R   0.462570 0.528382 0.035964 0.044547
C6    C     C_R   0.401368 0.616150 0.999628 0.092501
C7    C     C_R   0.347339 0.621347 0.900109 0.173234
C8    C     C_R   0.365298 0.546237 0.836446 -0.246670
C9    C     C_R   0.519419 0.525946 0.132841 -0.240878
C10   C     C_R   0.442967 0.684664 0.164508 -0.211711
C11   C     C_R   0.469231 0.398852 0.801347 -0.093033
C12   C     C_3   0.064035 0.576479 0.421039 -0.202700
C13   C     C_R   0.320522 0.088902 0.343861 -0.314080
C14   C     C_R   0.651206 0.800155 0.633445 0.364298
C15   C     C_R   0.674889 0.903205 0.666012 -0.296587
C16   C     C_R   0.512855 0.561223 0.308616 0.839686
C17   C     C_R   0.616388 0.983336 0.616021 -0.248651
C18   C     C_R   0.531900 0.961410 0.532913 0.024505
C19   C     C_R   0.506630 0.854399 0.504201 0.176279
C20   C     C_R   0.470600 0.041125 0.478334 -0.000191
C21   C     C_R   0.382400 0.011681 0.398131 0.194350
C22   C     C_R   0.357368 0.905753 0.372505 -0.296021
C23   C     C_3   0.990145 0.601594 0.512612 -0.150759
C24   C     C_R   0.419267 0.828639 0.424438 -0.194148
C25   C     C_R   0.494126 0.150012 0.499259 -0.058120
C26   C     C_R   0.347364 0.194729 0.368768 0.004674
C27   C     C_R   0.257708 0.498908 0.499156 0.848570
C28   C     C_3   0.937582 0.425278 0.573160 -0.202633
C29   C     C_3   0.051309 0.522981 0.588854 -0.161939
C30   C     C_3   0.122218 0.497550 0.497337 0.008855
C31   C     C_3   0.011147 0.399560 0.481535 -0.162630
C32   C     C_3   0.950610 0.478911 0.406459 0.134948
C33   C     C_3   0.851015 0.746640 0.693253 -0.808386
C34   C     C_3   0.878567 0.503989 0.497223 -0.014618
C35   C     C_3   0.887964 0.455592 0.303205 -0.430640
C36   C     C_3   0.988942 0.440621 0.226387 -0.343227
C37   C     C_3   0.926025 0.418404 0.123216 -0.873550
C38   C     C_3   0.341516 0.789721 0.788465 -0.775180
C39   C     C_R   0.396893 0.696038 0.064004 -0.208429
C40   C     C_R   0.500070 0.596854 0.199515 -0.044615
C41   C     C_R   0.511516 0.303445 0.839246 -0.191916
C42   C     C_R   0.526426 0.276603 0.944551 -0.152834
C43   C     C_R   0.508135 0.348361 0.011566 -0.180362
H1    H     H_    0.096974 0.540767 0.663579 0.140854
H2    H     H_    0.561074 0.180700 0.557117 0.124769
H3    H     H_    0.881784 0.364404 0.635349 0.136978
H4    H     H_    0.638196 0.060865 0.645254 0.145401
H5    H     H_    0.738008 0.921282 0.730621 0.160496
H6    H     H_    0.396864 0.749233 0.400553 0.205775
H7    H     H_    0.023641 0.317577 0.468437 0.142138
H8    H     H_    0.120323 0.637519 0.359177 0.121782
H9    H     H_    0.979735 0.684613 0.522913 0.153704
H10   H     H_    0.428361 0.741135 0.215810 0.144113
H11   H     H_    0.355113 0.765844 0.038961 0.139668
H12   H     H_    0.575154 0.466007 0.160721 0.143657
H13   H     H_    0.665353 0.684086 0.756463 0.228786
H14   H     H_    0.888249 0.670715 0.711078 0.248428
H15   H     H_    0.880479 0.797400 0.756150 0.219988
H16   H     H_    0.896079 0.793035 0.619343 0.241306
H17   H     H_    0.847301 0.342198 0.133865 0.258989
H18   H     H_    0.883805 0.488164 0.088957 0.262142
H19   H     H_    0.001270 0.408196 0.068980 0.251761
H20   H     H_    0.068972 0.515890 0.213093 0.221931
H21   H     H_    0.032283 0.370631 0.258263 0.220280
H22   H     H_    0.808447 0.380040 0.316705 0.217837
H23   H     H_    0.537083 0.251619 0.787273 0.145109
H24   H     H_    0.844239 0.525286 0.271157 0.190893
H25   H     H_    0.217841 0.722441 0.916148 0.217581
H26   H     H_    0.274450 0.843667 0.760470 0.237456
H27   H     H_    0.375121 0.758497 0.720894 0.257391
H28   H     H_    0.427090 0.838679 0.825126 0.237754
H29   H     H_    0.522519 0.323479 0.092404 0.131769
H30   H     H_    0.557672 0.202298 0.973983 0.138856
H31   H     H_    0.322057 0.551204 0.760699 0.173173
H32   H     H_    0.300748 0.255638 0.327344 0.133078
H33   H     H_    0.290229 0.882479 0.311345 0.144961
H34   H     H_    0.252683 0.067760 0.282604 0.143741
N1    N     N_R   0.432930 0.222190 0.444670 -0.101585
N2    N     N_R   0.566370 0.776980 0.554790 -0.151376
N3    N     N_2   0.709800 0.717533 0.685912 -0.246813
N4    N     N_2   0.273003 0.699604 0.862291 -0.316470
O1    O     O_R   0.467970 0.366730 0.627150 -0.614236
O2    O     O_R   0.510820 0.544830 0.662520 -0.609216
O3    O     O_R   0.664630 0.410960 0.482340 -0.628687
O4    O     O_R   0.707470 0.589060 0.517710 -0.586080
O5    O     O_R   0.489180 0.455170 0.337480 -0.615943
O6    O     O_R   0.532030 0.633270 0.372850 -0.634122
O7    O     O_R   0.292530 0.410940 0.482290 -0.621209
O8    O     O_R   0.335370 0.589040 0.517660 -0.641145
Zn1   Zn    Zn3+2 0.471390 0.381080 0.476380 0.926258
Zn2   Zn    Zn3+2 0.528610 0.618920 0.523620 0.933729

loop_
_geom_bond_atom_site_label_1
_geom_bond_atom_site_label_2
_ccdc_geom_bond_type
C38   H27   S    
C43   H29   S    
O6    Zn2   S    
C41   C42   A    
C35   C36   S    
C1    C11   S    
C22   H33   S    
C37   H19   S    
O4    Zn2   S    
C7    C8    A    
N1    Zn1   S    
C12   C23   S    
C28   H3    S    
C33   H15   S    
H25   N4    S    
C23   C29   S    
C36   C37   S    
C2    C3    A    
C5    C6    A    
C39   H11   S    
C20   C25   A    
C35   H22   S    
C10   C40   A    
C18   C19   A    
C10   H10   S    
C16   O6    A    
C11   C41   A    
C9    H12   S    
C14   N3    S    
O8    Zn2   S    
C36   H20   S    
N2    Zn2   S    
C38   H26   S    
C28   C34   S    
C33   H16   S    
C21   C22   A    
C12   C32   S    
C27   C30   S    
C16   O5    A    
O3    Zn1   S    
C15   H5    S    
C26   H32   S    
C4    C34   S    
C13   H34   S    
C25   N1    A    
C32   C35   S    
C3    C8    A    
O5    Zn1   S    
C4    O4    A    
C1    O1    A    
C9    C40   A    
C10   C39   A    
C32   C34   S    
C5    C9    A    
C29   C30   S    
C31   C32   S    
C4    O3    A    
C35   H24   S    
C2    C43   A    
C23   C34   S    
C8    H31   S    
C17   C18   A    
C13   C21   A    
C26   N1    A    
C14   N2    A    
C19   N2    A    
C6    C7    A    
C16   C40   S    
C7    N4    S    
O7    Zn1   S    
C29   H1    S    
C22   C24   A    
C13   C26   A    
C2    C5    A    
C42   C43   A    
C31   H7    S    
C25   H2    S    
C12   H8    S    
C24   H6    S    
C15   C17   A    
C38   H28   S    
C28   C29   S    
C42   H30   S    
C33   H14   S    
C12   C30   S    
C6    C39   A    
C28   C31   S    
C17   H4    S    
H13   N3    S    
C37   H18   S    
C33   N3    S    
C41   H23   S    
C1    O2    A    
O2    Zn2   S    
O1    Zn1   S    
C19   C24   A    
C38   N4    S    
C23   H9    S    
C30   C31   S    
C27   O8    A    
C18   C20   A    
C27   O7    A    
C37   H17   S    
C3    C11   A    
C20   C21   A    
C14   C15   A    
C36   H21   S    
