data_mof_unit_39985.cif
_audit_creation_date              2012-12-10T17:37:50-0500
_audit_creation_method            fapswitch 2.2
_symmetry_space_group_name_H-M    P1
_symmetry_Int_Tables_number       1
_space_group_crystal_system       triclinic
_cell_length_a                    12.320676
_cell_length_b                    13.223645
_cell_length_c                    17.338575
_cell_angle_alpha                 105.25054
_cell_angle_beta                  74.449355
_cell_angle_gamma                 116.729519
_cell_volume                      2397.10461409

loop_
_atom_site_label
_atom_site_type_symbol
_atom_type_description
_atom_site_fract_x
_atom_site_fract_y
_atom_site_fract_z
_atom_type_partial_charge
C1    C     C_R   0.144572 0.713510 0.507163 0.775043
C2    C     C_R   0.886051 0.523625 0.799316 0.150669
C3    C     C_R   0.928757 0.495138 0.155176 -0.150033
C4    C     C_R   0.922220 0.496378 0.236469 -0.205618
C5    C     C_R   0.121206 0.485266 0.204740 -0.201588
C6    C     C_R   0.127857 0.484407 0.123264 -0.172728
C7    C     C_R   0.033038 0.491776 0.098383 0.191857
C8    C     C_2   0.992983 0.548679 0.989034 -0.220501
C9    C     C_2   0.043924 0.493741 0.012595 -0.231661
C10   C     C_R   0.018896 0.492626 0.261928 -0.024638
C11   C     C_R   0.734720 0.976365 0.390901 -0.191945
C12   C     C_R   0.987994 0.504940 0.652486 0.808743
C13   C     C_R   0.774653 0.164975 0.470939 -0.048740
C14   C     C_R   0.178828 0.915810 0.560490 -0.188873
C15   C     C_R   0.256031 0.031137 0.576268 -0.146228
C16   C     C_R   0.382088 0.068336 0.547400 -0.182782
C17   C     C_R   0.433421 0.990479 0.498991 0.079023
C18   C     C_R   0.352189 0.875411 0.475016 0.082246
C19   C     C_R   0.562551 0.023282 0.472848 0.072723
C20   C     C_R   0.607449 0.944840 0.417171 0.167694
C21   C     C_R   0.524880 0.836866 0.386822 -0.242132
C22   C     C_R   0.399124 0.803168 0.414304 -0.198341
C23   C     C_R   0.855906 0.286367 0.487946 0.802074
C24   C     C_R   0.648783 0.131596 0.501013 -0.253253
C25   C     C_R   0.818085 0.086392 0.417237 -0.195207
C26   C     C_R   0.225878 0.836456 0.511786 -0.100822
C27   C     C_R   0.640923 0.673917 0.629988 -0.305054
C28   C     C_R   0.250486 0.352077 0.389752 0.070395
C29   C     C_R   0.349263 0.319765 0.366064 -0.257240
C30   C     C_R   0.448871 0.375468 0.407458 -0.195603
C31   C     C_R   0.451004 0.464867 0.473563 -0.005529
C32   C     C_R   0.347321 0.494915 0.495704 0.292179
C33   C     C_R   0.551347 0.525216 0.518626 -0.037788
C34   C     C_R   0.012419 0.495908 0.347774 0.782171
C35   C     C_R   0.545345 0.613639 0.584540 0.179298
C36   C     C_R   0.443940 0.641512 0.605017 -0.288652
C37   C     C_R   0.347410 0.583565 0.561761 -0.193097
C38   C     C_R   0.658162 0.502236 0.501636 0.015852
C39   C     C_R   0.742792 0.646930 0.610294 0.085044
C40   C     C_R   0.986791 0.515961 0.739140 -0.031220
C41   C     C_R   0.091144 0.523380 0.762518 -0.267641
C42   C     C_R   0.095436 0.536873 0.843794 -0.151663
C43   C     C_R   0.994803 0.542128 0.903263 0.166917
C44   C     C_R   0.891738 0.537717 0.881024 -0.225528
Cu1   Cu    Cu3+1 0.900140 0.524980 0.518800 0.946502
Cu2   Cu    Cu3+1 0.099860 0.475020 0.481200 0.921670
H1    H     H_    0.170530 0.519765 0.718034 0.167992
H2    H     H_    0.207973 0.480091 0.079853 0.122066
H3    H     H_    0.915590 0.111346 0.393172 0.147743
H4    H     H_    0.557601 0.777989 0.341592 0.143045
H5    H     H_    0.769473 0.916952 0.348246 0.132882
H6    H     H_    0.620714 0.192838 0.546015 0.149800
H7    H     H_    0.082293 0.888368 0.588132 0.151322
H8    H     H_    0.436086 0.159028 0.562552 0.130614
H9    H     H_    0.218470 0.091760 0.613284 0.142696
H10   H     H_    0.816840 0.693209 0.645132 0.122629
H11   H     H_    0.841166 0.499665 0.279195 0.149669
H12   H     H_    0.438767 0.709012 0.655461 0.152717
H13   H     H_    0.636801 0.741558 0.680510 0.134930
H14   H     H_    0.670653 0.436786 0.452520 0.121152
H15   H     H_    0.173613 0.308186 0.357300 0.123140
H16   H     H_    0.522637 0.346791 0.386566 0.134547
H17   H     H_    0.348572 0.251162 0.315428 0.143657
H18   H     H_    0.274169 0.611242 0.582876 0.206192
H19   H     H_    0.196602 0.481456 0.222964 0.149886
H20   H     H_    0.095122 0.448880 0.968129 0.146121
H21   H     H_    0.851460 0.495461 0.137047 0.122283
H22   H     H_    0.177850 0.543872 0.859912 0.132242
N1    N     N_R   0.749710 0.562810 0.547300 -0.178853
N2    N     N_R   0.249640 0.437820 0.453210 -0.206447
O1    O     O_R   0.025490 0.682370 0.523640 -0.582367
O2    O     O_R   0.194150 0.640180 0.491890 -0.605396
O3    O     O_R   0.905900 0.523560 0.631310 -0.546227
O4    O     O_R   0.074570 0.481370 0.599560 -0.610544
O5    O     O_R   0.805850 0.359820 0.508110 -0.586019
O6    O     O_R   0.974510 0.317630 0.476360 -0.586139
O7    O     O_R   0.925430 0.518630 0.400440 -0.588520
O8    O     O_R   0.094100 0.476440 0.368690 -0.599949
H23   H     H_    0.339571 0.720815 0.385448 0.174948
H24   H     H_    0.813877 0.541986 0.927079 0.122835
N3    N     N_3   0.777116 0.515077 0.778195 -0.573211
H25   H     H_    0.701840 0.445965 0.801745 0.211364
H26   H     H_    0.763899 0.589942 0.806347 0.207121
H27   H     H_    0.941869 0.593653 0.033403 0.144082

loop_
_geom_bond_atom_site_label_1
_geom_bond_atom_site_label_2
_ccdc_geom_bond_type
C24   H6    S    
C29   H17   S    
C12   O4    A    
Cu1   O1    S    
C41   C42   A    
C35   C36   A    
C18   C26   A    
C8    C43   S    
C23   O6    A    
Cu2   O6    S    
N3    H25   S    
Cu1   Cu2   S    
C1    O1    A    
C6    H2    S    
C36   C37   A    
C22   H23   S    
C3    C7    A    
C34   O7    A    
C30   C31   A    
C11   C25   A    
C15   C16   A    
C13   C23   S    
Cu1   O3    S    
C9    H20   S    
C17   C19   A    
C31   C32   A    
C2    C44   A    
C16   C17   A    
C4    H11   S    
C31   C33   A    
Cu2   O2    S    
C28   H15   S    
C38   N1    A    
C8    H27   S    
C12   O3    A    
C42   H22   S    
C13   C25   A    
C21   H4    S    
N3    H26   S    
C16   H8    S    
C41   H1    S    
C3    H21   S    
C11   C20   A    
C1    O2    A    
Cu1   N1    S    
C44   H24   S    
C5    H19   S    
C27   C39   A    
Cu2   O8    S    
C8    C9    D    
C32   N2    A    
C27   C35   A    
C13   C24   A    
C15   H9    S    
C12   C40   S    
C43   C44   A    
C29   C30   A    
C39   H10   S    
C17   C18   A    
C39   N1    A    
C10   C34   S    
C32   C37   A    
C14   C26   A    
C38   H14   S    
C40   C41   A    
C30   H16   S    
C1    C26   S    
C42   C43   A    
C4    C10   A    
C3    C4    A    
Cu2   O4    S    
C37   H18   S    
C7    C9    S    
C28   C29   A    
C18   C22   A    
C28   N2    A    
C23   O5    A    
C6    C7    A    
C36   H12   S    
C33   C38   A    
Cu1   O5    S    
C19   C20   A    
C19   C24   A    
C5    C10   A    
C27   H13   S    
C34   O8    A    
C5    C6    A    
C33   C35   A    
C25   H3    S    
Cu2   N2    S    
C11   H5    S    
C2    C40   A    
C14   H7    S    
C20   C21   A    
C14   C15   A    
C2    N3    S    
Cu1   O7    S    
C21   C22   A    
