data_mof_unit_29916.cif
_audit_creation_date              2012-12-10T16:44:43-0500
_audit_creation_method            fapswitch 2.2
_symmetry_space_group_name_H-M    P1
_symmetry_Int_Tables_number       1
_space_group_crystal_system       triclinic
_cell_length_a                    15.003089
_cell_length_b                    8.720799
_cell_length_c                    7.478495
_cell_angle_alpha                 102.624411
_cell_angle_beta                  94.797752
_cell_angle_gamma                 93.414993
_cell_volume                      948.422771375

loop_
_atom_site_label
_atom_site_type_symbol
_atom_type_description
_atom_site_fract_x
_atom_site_fract_y
_atom_site_fract_z
_atom_type_partial_charge
C1    C     C_R   0.494221 0.200202 0.454353 0.782717
C2    C     C_R   0.505760 0.799790 0.545644 0.788163
C3    C     C_R   0.027677 0.213235 0.344774 0.380900
C4    C     C_R   0.974430 0.751793 0.733262 0.353600
C5    C     C_2   0.481169 0.032355 0.433604 0.208304
C6    C     C_2   0.518758 0.967630 0.566412 0.202872
C7    C     C_R   0.329295 0.497148 0.501285 0.849096
C8    C     C_R   0.670850 0.502337 0.498897 0.842309
C9    C     C_R   0.822713 0.633449 0.608724 0.333103
C10   C     C_R   0.178928 0.350481 0.424134 0.355577
C11   C     C_R   0.767540 0.505742 0.497720 -0.223372
C12   C     C_R   0.232988 0.489990 0.506373 -0.227255
C13   C     C_R   0.803664 0.375138 0.394512 0.348917
C14   C     C_R   0.196362 0.625075 0.597074 0.342666
C15   C     C_R   0.896867 0.361513 0.416171 -0.106691
C16   C     C_R   0.104066 0.620169 0.618539 -0.114953
C17   C     C_R   0.953655 0.491737 0.520052 -0.148305
C18   C     C_R   0.047487 0.487222 0.521664 -0.157744
C19   C     C_R   0.916697 0.627107 0.620579 -0.000136
C20   C     C_R   0.084824 0.349992 0.427060 0.008204
C21   C     C_R   0.933975 0.218175 0.344614 0.332777
C22   C     C_R   0.067820 0.742901 0.739865 0.326091
Cu1   Cu    Cu3+1 0.510010 0.517380 0.684380 1.106850
Cu2   Cu    Cu3+1 0.489990 0.482620 0.315620 1.101239
N1    N     N_2   0.474890 0.456420 0.038520 0.156871
N2    N     N_2   0.525110 0.543580 0.961480 0.158204
O1    O     O_R   0.506510 0.286130 0.619770 -0.498333
O2    O     O_R   0.493490 0.713870 0.380230 -0.499740
O3    O     O_R   0.489600 0.256770 0.308360 -0.609560
O4    O     O_R   0.510400 0.743230 0.691640 -0.609541
O5    O     O_R   0.378710 0.514640 0.655720 -0.522013
O6    O     O_R   0.621290 0.485360 0.344280 -0.516312
O7    O     O_R   0.361800 0.485290 0.344300 -0.605533
O8    O     O_R   0.638200 0.514710 0.655700 -0.594860
O9    O     O_3   0.786301 0.765972 0.703695 -0.655774
H1    H     H_    0.726509 0.776667 0.643038 0.293218
O10   O     O_3   0.215993 0.215347 0.337587 -0.659310
H2    H     H_    0.280610 0.219434 0.378848 0.297681
O11   O     O_3   0.745759 0.262103 0.275236 -0.670905
H3    H     H_    0.773373 0.234164 0.157683 0.373439
O12   O     O_3   0.252405 0.761682 0.657115 -0.685259
H4    H     H_    0.219047 0.850562 0.631543 0.364614
O13   O     O_3   0.879101 0.080809 0.276042 -0.570847
C23   C     C_3   0.864311 0.007471 0.422689 -0.163735
H5    H     H_    0.821487 0.896236 0.367395 0.195197
H6    H     H_    0.928362 0.976397 0.487012 0.148461
H7    H     H_    0.828260 0.082898 0.528604 0.190354
O14   O     O_3   0.122943 0.852814 0.870761 -0.573430
C24   C     C_3   0.148203 0.783844 0.019705 -0.124717
H8    H     H_    0.189794 0.873376 0.127367 0.238616
H9    H     H_    0.189741 0.683077 0.977601 0.168588
H10   H     H_    0.088503 0.744797 0.082227 0.129881
O15   O     O_3   0.064670 0.075138 0.268688 -0.675625
H11   H     H_    0.017247 0.990264 0.214380 0.357521
O16   O     O_3   0.938685 0.879396 0.839811 -0.653068
H12   H     H_    0.985616 0.967500 0.883472 0.361122
O17   O     O_3   0.426316 0.941516 0.284635 -0.710543
H13   H     H_    0.398620 0.010944 0.210766 0.339594
O18   O     O_3   0.573565 0.058475 0.715437 -0.707396
H14   H     H_    0.601254 0.989050 0.789320 0.341849
O19   O     O_3   0.415502 0.351886 0.924198 -0.588881
H15   H     H_    0.383724 0.296268 0.005307 0.339371
O20   O     O_3   0.584511 0.648096 0.075798 -0.587784
H16   H     H_    0.616316 0.703678 0.994688 0.343658

loop_
_geom_bond_atom_site_label_1
_geom_bond_atom_site_label_2
_ccdc_geom_bond_type
N1    O19   S    
C22   O14   S    
O13   C23   S    
Cu2   O6    S    
Cu2   N1    S    
C15   C17   A    
O10   H2    S    
C7    O7    A    
Cu1   O1    S    
C4    C22   A    
O12   H4    S    
O9    H1    S    
C23   H7    S    
C5    O17   S    
C2    O4    A    
Cu1   O8    S    
C24   H10   S    
O16   H12   S    
C1    O3    A    
C17   C18   A    
O18   H14   S    
C8    O8    A    
O15   H11   S    
C3    O15   S    
C9    C11   A    
O17   H13   S    
C2    C6    S    
C15   C21   A    
C10   C12   A    
C10   O10   S    
C1    C5    S    
C16   C18   A    
O14   C24   S    
C17   C19   A    
C12   C14   A    
Cu2   O7    S    
C18   C20   A    
C13   C15   A    
C4    O16   S    
C5    C6    D    
C14   O12   S    
C14   C16   A    
C7    C12   S    
C3    C21   A    
C11   C13   A    
C7    O5    A    
O19   H15   S    
C8    C11   S    
Cu1   Cu2   S    
C9    O9    S    
O20   H16   S    
C8    O6    A    
Cu1   O4    S    
C3    C20   A    
C23   H5    S    
N2    O20   S    
C24   H8    S    
Cu1   N2    S    
O11   H3    S    
C1    O1    A    
C2    O2    A    
C16   C22   A    
C23   H6    S    
N1    N2    D    
Cu2   O3    S    
C4    C19   A    
C6    O18   S    
C9    C19   A    
C21   O13   S    
C13   O11   S    
Cu2   O2    S    
C10   C20   A    
C24   H9    S    
Cu1   O5    S    
