data_mof_unit_25964.cif
_audit_creation_date              2012-12-10T20:43:21-0500
_audit_creation_method            fapswitch 2.2
_symmetry_space_group_name_H-M    P1
_symmetry_Int_Tables_number       1
_space_group_crystal_system       triclinic
_cell_length_a                    15.82013
_cell_length_b                    10.76378
_cell_length_c                    9.951235
_cell_angle_alpha                 89.180667
_cell_angle_beta                  90.411316
_cell_angle_gamma                 91.053204
_cell_volume                      1694.0400275

loop_
_atom_site_label
_atom_site_type_symbol
_atom_type_description
_atom_site_fract_x
_atom_site_fract_y
_atom_site_fract_z
_atom_type_partial_charge
C1    C     C_R   0.499474 0.260126 0.500630 0.889483
C2    C     C_R   0.042354 0.409820 0.584846 0.298199
C3    C     C_1   0.823410 0.493582 0.497028 0.121217
C4    C     C_1   0.176148 0.492536 0.494966 0.087692
C5    C     C_1   0.251087 0.496831 0.497650 -0.131565
C6    C     C_1   0.748669 0.497568 0.500477 -0.138440
C7    C     C_R   0.542300 0.063070 0.604165 -0.132243
C8    C     C_R   0.503365 0.127770 0.499333 0.000032
C9    C     C_R   0.474362 0.064020 0.385848 -0.208613
C10   C     C_R   0.477696 0.936032 0.382924 -0.212714
C11   C     C_R   0.507732 0.871071 0.495798 -0.010303
C12   C     C_R   0.339572 0.499977 0.499441 0.902905
C13   C     C_R   0.544573 0.935260 0.602648 -0.158926
C14   C     C_3   0.532496 0.921687 0.752338 0.779191
C15   C     C_3   0.524132 0.063133 0.751992 0.699586
C16   C     C_R   0.426908 0.486998 0.069510 -0.117514
C17   C     C_R   0.571276 0.530729 0.072391 0.474372
C18   C     C_R   0.571627 0.528993 0.929035 0.360968
C19   C     C_R   0.425716 0.496071 0.928510 -0.045104
C20   C     C_3   0.352024 0.407746 0.917813 0.113945
C21   C     C_3   0.361992 0.383217 0.070250 0.928785
C22   C     C_R   0.501418 0.739415 0.499129 0.873251
C23   C     C_R   0.660373 0.500451 0.500398 0.865783
C24   C     C_R   0.954516 0.414849 0.586810 0.465668
C25   C     C_R   0.912267 0.487562 0.490701 -0.269217
C26   C     C_R   0.956145 0.557752 0.392500 0.377967
C27   C     C_R   0.044685 0.559814 0.395873 0.426005
C28   C     C_R   0.086860 0.486237 0.491775 -0.260468
H1    H     H_    0.293401 0.457435 0.888142 0.097108
H2    H     H_    0.444162 0.112110 0.303455 0.202779
H3    H     H_    0.451200 0.888119 0.296845 0.157465
N1    N     N_R   0.499440 0.499140 0.142800 -0.187609
N2    N     N_R   0.499440 0.499180 0.857150 -0.128613
O1    O     O_R   0.500010 0.316790 0.614690 -0.520989
O2    O     O_R   0.500000 0.316760 0.385350 -0.635418
O3    O     O_R   0.378030 0.499990 0.614640 -0.588219
O4    O     O_R   0.378020 0.499950 0.385300 -0.561867
O5    O     O_R   0.500000 0.683240 0.614650 -0.579543
O6    O     O_R   0.499990 0.683210 0.385310 -0.650383
O7    O     O_R   0.621980 0.500050 0.614700 -0.598820
O8    O     O_R   0.621970 0.500010 0.385360 -0.564818
Zn1   Zn    Zn3+2 0.500010 0.500020 0.653130 1.054029
Zn2   Zn    Zn3+2 0.499990 0.499980 0.346870 1.000077
O9    O     O_3   0.081316 0.332298 0.677648 -0.727688
H4    H     H_    0.142910 0.330777 0.661927 0.336838
O10   O     O_3   0.584503 0.127487 0.830744 -0.788003
H5    H     H_    0.639931 0.126360 0.784688 0.322540
O11   O     O_3   0.644481 0.562897 0.140334 -0.572387
C29   C     C_3   0.651344 0.693710 0.144658 -0.231521
H6    H     H_    0.701531 0.719171 0.218214 0.187132
H7    H     H_    0.591877 0.737197 0.178038 0.151040
H8    H     H_    0.670358 0.733123 0.045405 0.207952
O12   O     O_3   0.644308 0.566136 0.865032 -0.727096
H9    H     H_    0.626919 0.630572 0.798997 0.375478
O13   O     O_3   0.367667 0.306300 0.836936 -0.678327
H10   H     H_    0.314067 0.257020 0.835119 0.344740
O14   O     O_3   0.290330 0.418351 0.144262 -0.632413
C30   C     C_3   0.226386 0.325263 0.138354 -0.280450
H11   H     H_    0.246602 0.237786 0.188725 0.215848
H12   H     H_    0.205956 0.307496 0.033117 0.143200
H13   H     H_    0.170837 0.357186 0.194386 0.178254
O15   O     O_3   0.391127 0.262084 0.109096 -0.641444
C31   C     C_3   0.475209 0.234786 0.072415 -0.270078
H14   H     H_    0.521094 0.269782 0.147631 0.193168
H15   H     H_    0.493194 0.270267 0.971772 0.245672
H16   H     H_    0.481991 0.132577 0.072424 0.176828
O16   O     O_3   0.909373 0.343468 0.679355 -0.552285
C32   C     C_3   0.902138 0.411794 0.798576 -0.207020
H17   H     H_    0.965153 0.431477 0.844801 0.165672
H18   H     H_    0.864856 0.355461 0.872058 0.193105
H19   H     H_    0.867931 0.500017 0.780516 0.154226
O17   O     O_3   0.913983 0.636001 0.303920 -0.570221
C33   C     C_3   0.876506 0.565278 0.199859 -0.284414
H20   H     H_    0.815557 0.522686 0.232417 0.214221
H21   H     H_    0.918594 0.491853 0.162077 0.120822
H22   H     H_    0.862517 0.628574 0.113924 0.197138
O18   O     O_3   0.091077 0.643111 0.316653 -0.560745
C34   C     C_3   0.086059 0.610043 0.179945 -0.181766
H23   H     H_    0.038663 0.668202 0.127294 0.192224
H24   H     H_    0.070986 0.509934 0.163276 0.098472
H25   H     H_    0.148256 0.630312 0.132884 0.190093
O19   O     O_3   0.456533 0.856375 0.785990 -0.587023
C35   C     C_3   0.452539 0.831194 0.925628 -0.194205
H26   H     H_    0.471269 0.912583 0.987352 0.126647
H27   H     H_    0.493415 0.752262 0.952723 0.165124
H28   H     H_    0.386606 0.804274 0.951731 0.167023
O20   O     O_3   0.605060 0.875985 0.819305 -0.823872
H29   H     H_    0.656474 0.908350 0.772976 0.311030
O21   O     O_3   0.441542 0.102201 0.774168 -0.687040
H30   H     H_    0.426989 0.079236 0.867712 0.348389

loop_
_geom_bond_atom_site_label_1
_geom_bond_atom_site_label_2
_ccdc_geom_bond_type
O20   H29   S    
C31   H15   S    
C16   C21   S    
C1    C8    S    
C26   O17   S    
C33   H20   S    
O3    Zn1   S    
C19   C20   S    
O1    Zn1   S    
C17   O11   S    
O13   H10   S    
C3    C6    T    
C7    C8    A    
O12   H9    S    
C26   C27   A    
N2    Zn1   S    
C14   O20   S    
O5    Zn1   S    
C16   C19   A    
C34   H24   S    
C22   O6    A    
C30   H12   S    
C23   O7    A    
C22   O5    A    
C12   O4    A    
C18   O12   S    
C32   H17   S    
C10   H3    S    
C2    O9    S    
C8    C9    A    
C29   H7    S    
C12   O3    A    
O2    Zn2   S    
C9    C10   A    
C24   O16   S    
C30   H13   S    
O7    Zn1   S    
C31   H16   S    
C13   C14   S    
O8    Zn2   S    
C20   O13   S    
C4    C28   S    
C1    O1    A    
C20   H1    S    
O16   C32   S    
C3    C25   S    
C24   C25   A    
C5    C12   S    
C19   N2    A    
C34   H23   S    
O17   C33   S    
O6    Zn2   S    
C25   C26   A    
O18   C34   S    
O4    Zn2   S    
C21   O14   S    
O15   C31   S    
C15   O21   S    
C35   H26   S    
C29   H8    S    
C17   C18   A    
C21   O15   S    
C9    H2    S    
O11   C29   S    
C35   H27   S    
C29   H6    S    
C2    C24   A    
C33   H22   S    
C33   H21   S    
O9    H4    S    
C1    O2    A    
O10   H5    S    
C4    C5    T    
C27   O18   S    
C16   N1    A    
C11   C22   S    
C23   O8    A    
C30   H11   S    
C11   C13   A    
C34   H25   S    
O14   C30   S    
C32   H19   S    
C6    C23   S    
C7    C15   S    
N1    Zn2   S    
C18   N2    A    
C10   C11   A    
C31   H14   S    
C7    C13   A    
C35   H28   S    
C20   C21   S    
C32   H18   S    
O19   C35   S    
C27   C28   A    
C17   N1    A    
C14   O19   S    
C14   C15   S    
C2    C28   A    
C15   O10   S    
O21   H30   S    
