data_mof_unit_60868.cif
_audit_creation_date              2012-12-10T19:22:19-0500
_audit_creation_method            fapswitch 2.2
_symmetry_space_group_name_H-M    P1
_symmetry_Int_Tables_number       1
_space_group_crystal_system       triclinic
_cell_length_a                    15.753902
_cell_length_b                    14.966825
_cell_length_c                    23.449409
_cell_angle_alpha                 89.985947
_cell_angle_beta                  90.12046
_cell_angle_gamma                 89.914124
_cell_volume                      5529.02127124

loop_
_atom_site_label
_atom_site_type_symbol
_atom_type_description
_atom_site_fract_x
_atom_site_fract_y
_atom_site_fract_z
_atom_type_partial_charge
C1    C     C_R   0.337912 0.500072 0.500040 0.916738
C2    C     C_R   0.574326 0.472990 0.119459 0.510267
C3    C     C_R   0.503856 0.581333 0.237894 -0.090110
C4    C     C_R   0.500326 0.500014 0.389097 0.877651
C5    C     C_R   0.502927 0.581360 0.297067 -0.195058
C6    C     C_R   0.501308 0.500081 0.326942 -0.063892
C7    C     C_R   0.500916 0.418895 0.296968 -0.196631
C8    C     C_R   0.501794 0.419123 0.237788 -0.091148
C9    C     C_R   0.503146 0.500282 0.208338 0.301116
C10   C     C_R   0.500024 0.418876 0.762356 -0.098517
C11   C     C_R   0.499589 0.418753 0.703168 -0.209607
C12   C     C_R   0.357094 0.556249 0.970472 -0.153069
C13   C     C_R   0.500449 0.499976 0.673216 -0.046218
C14   C     C_R   0.501740 0.581194 0.703139 -0.209563
C15   C     C_R   0.502221 0.581069 0.762322 -0.099391
C16   C     C_R   0.662226 0.499931 0.500116 0.913825
C17   C     C_R   0.501360 0.499974 0.791846 0.314458
C18   C     C_3   0.048682 0.546762 0.550991 -0.390900
C19   C     C_3   0.049265 0.403344 0.494412 -0.393817
C20   C     C_3   0.951198 0.402311 0.497684 -0.464314
C21   C     C_3   0.951102 0.545265 0.550410 -0.436139
C22   C     C_1   0.750931 0.499744 0.498587 -0.183208
C23   C     C_R   0.357377 0.556345 0.029828 -0.151404
C24   C     C_3   0.082591 0.500950 0.496725 0.276517
C25   C     C_3   0.917391 0.499916 0.494771 0.313203
C26   C     C_3   0.952171 0.545022 0.437642 0.437295
C27   C     C_3   0.050595 0.554381 0.444191 -0.474458
C28   C     C_1   0.826090 0.499616 0.496755 -0.069940
C29   C     C_1   0.173905 0.500624 0.497929 -0.068527
C30   C     C_R   0.500170 0.499990 0.611041 0.871541
C31   C     C_1   0.249123 0.500303 0.499013 -0.152007
C32   C     C_3   0.405725 0.053027 0.480757 0.024409
C33   C     C_3   0.405838 0.947292 0.480480 0.024157
C34   C     C_R   0.429813 0.528493 0.059956 -0.016627
C35   C     C_3   0.520345 0.051920 0.555901 -0.423323
C36   C     C_3   0.519949 0.947942 0.555966 -0.424266
C37   C     C_3   0.495580 0.090017 0.496520 0.065433
C38   C     C_3   0.495579 0.909987 0.496509 0.065462
C39   C     C_3   0.561201 0.947128 0.452561 -0.034368
C40   C     C_3   0.560932 0.052733 0.452384 -0.034991
C41   C     C_1   0.497440 0.809235 0.497922 0.126924
C42   C     C_1   0.497435 0.190767 0.497924 0.125913
C43   C     C_R   0.573201 0.472632 0.880677 0.504764
C44   C     C_R   0.430429 0.527441 0.880750 0.506675
C45   C     C_R   0.502552 0.500307 0.030050 -0.020704
C46   C     C_R   0.429242 0.528298 0.940285 -0.016824
C47   C     C_R   0.502264 0.500205 0.970137 -0.020439
C48   C     C_R   0.574988 0.471996 0.940220 -0.015531
C49   C     C_3   0.905518 0.703121 0.465645 -0.796323
C50   C     C_3   0.850497 0.473008 0.367591 -0.741197
C51   C     C_R   0.575562 0.472197 0.059912 -0.016535
C52   C     C_R   0.647714 0.444259 0.029720 -0.151520
C53   C     C_R   0.647429 0.444159 0.970354 -0.153973
C54   C     C_R   0.431547 0.527785 0.119487 0.509610
H1    H     H_    0.300286 0.578094 0.948383 0.195144
H2    H     H_    0.071352 0.617100 0.553314 0.186754
H3    H     H_    0.924493 0.359982 0.463135 0.188164
H4    H     H_    0.925839 0.613047 0.557759 0.184548
H5    H     H_    0.069400 0.625608 0.448838 0.185867
H6    H     H_    0.083744 0.530802 0.405050 0.169172
H7    H     H_    0.300776 0.578257 0.051963 0.195533
H8    H     H_    0.584668 0.076048 0.568076 0.172054
H9    H     H_    0.583933 0.923101 0.568534 0.171342
H10   H     H_    0.475853 0.076861 0.589040 0.222478
H11   H     H_    0.474824 0.923599 0.588866 0.223130
H12   H     H_    0.498527 0.355312 0.680970 0.168895
H13   H     H_    0.625212 0.074795 0.466243 0.135875
H14   H     H_    0.625435 0.925340 0.466833 0.135429
H15   H     H_    0.390338 0.075365 0.436721 0.154644
H16   H     H_    0.391108 0.925596 0.436227 0.155417
H17   H     H_    0.704516 0.422406 0.051812 0.195317
H18   H     H_    0.704023 0.422236 0.948216 0.194635
H19   H     H_    0.505076 0.644083 0.214904 0.155292
H20   H     H_    0.503456 0.644778 0.319308 0.190323
H21   H     H_    0.499758 0.355410 0.319138 0.189796
H22   H     H_    0.501040 0.356457 0.214713 0.155197
H23   H     H_    0.502483 0.644639 0.680922 0.168446
H24   H     H_    0.499138 0.356174 0.785405 0.145145
H25   H     H_    0.933498 0.656467 0.384657 0.249782
H26   H     H_    0.888976 0.766524 0.443588 0.249920
H27   H     H_    0.965582 0.714313 0.489302 0.240747
H28   H     H_    0.851886 0.688168 0.494613 0.251447
H29   H     H_    0.975319 0.431761 0.383092 0.225081
H30   H     H_    0.819414 0.418582 0.391922 0.234217
H31   H     H_    0.852741 0.452799 0.322082 0.255552
H32   H     H_    0.811902 0.534897 0.370643 0.262074
H33   H     H_    0.503415 0.643774 0.785345 0.144798
H34   H     H_    0.929043 0.506693 0.588218 0.184967
H35   H     H_    0.931285 0.369997 0.538295 0.193160
H36   H     H_    0.072585 0.511566 0.589688 0.189129
H37   H     H_    0.075802 0.363881 0.530561 0.198563
H38   H     H_    0.070512 0.370582 0.454309 0.181168
I1    I     I_    0.305849 0.882180 0.528919 -0.320918
I2    I     I_    0.306351 0.117574 0.530219 -0.323638
I3    I     I_    0.548071 0.117483 0.369704 -0.332798
I4    I     I_    0.549791 0.881757 0.370022 -0.332898
N1    N     N_R   0.501674 0.499995 0.852510 -0.359180
N2    N     N_R   0.503051 0.500407 0.147675 -0.359050
N3    N     N_1   0.498630 0.731150 0.498860 -0.075417
N4    N     N_1   0.498630 0.268850 0.498860 -0.075606
N5    N     N_2   0.914642 0.632517 0.423940 -0.296279
N6    N     N_2   0.936420 0.486649 0.388211 -0.329901
O1    O     O_R   0.377210 0.574260 0.500060 -0.597737
O2    O     O_2   0.360982 0.553195 0.851162 -0.550651
O3    O     O_2   0.362354 0.553580 0.149125 -0.548528
O4    O     O_2   0.643727 0.447184 0.149074 -0.549503
O5    O     O_R   0.377210 0.425740 0.500060 -0.599008
O6    O     O_R   0.500050 0.574250 0.416220 -0.609863
O7    O     O_R   0.500050 0.425750 0.416220 -0.610662
O8    O     O_R   0.622930 0.574200 0.500060 -0.610106
O9    O     O_R   0.622930 0.425800 0.500060 -0.611908
O10   O     O_R   0.500100 0.574210 0.583900 -0.620164
O11   O     O_R   0.500100 0.425790 0.583900 -0.619627
O12   O     O_2   0.642341 0.446760 0.851013 -0.555179
Zn1   Zn    Zn3+2 0.500090 0.599130 0.500080 1.004710
Zn2   Zn    Zn3+2 0.500090 0.400870 0.500080 1.003284

loop_
_geom_bond_atom_site_label_1
_geom_bond_atom_site_label_2
_ccdc_geom_bond_type
C5    H20   S    
C32   I2    S    
C4    O7    A    
C9    N2    S    
H29   N6    S    
C18   C21   S    
C39   H14   S    
C35   C36   S    
N4    Zn2   S    
C24   C27   S    
C1    C31   S    
C44   O2    S    
C50   H30   S    
C7    C8    A    
C25   C28   S    
C4    O6    A    
C12   C23   A    
C26   C27   S    
C18   C24   S    
O6    Zn1   S    
C35   C37   S    
C37   C40   S    
C27   H6    S    
C26   N5    S    
C49   N5    S    
C38   C39   S    
C20   C25   S    
C45   C51   A    
C10   C17   A    
C8    H22   S    
C14   H23   S    
C49   H27   S    
C37   C42   S    
C24   C29   S    
C19   H38   S    
O7    Zn2   S    
C19   C20   S    
C8    C9    A    
C40   H13   S    
C41   N3    T    
C35   H10   S    
C36   H9    S    
C43   C48   A    
C1    O1    A    
C50   H31   S    
C11   H12   S    
C18   H2    S    
O11   Zn2   S    
C21   H34   S    
C22   C28   T    
C13   C14   A    
C44   C46   A    
C6    C7    A    
C45   C47   A    
C10   H24   S    
C48   C53   A    
O5    Zn2   S    
C16   O8    A    
C51   C52   A    
C18   H36   S    
C13   C30   S    
C38   C41   S    
C12   C46   A    
C2    C51   A    
C39   C40   S    
C36   H11   S    
C7    H21   S    
C25   C26   S    
C2    O4    S    
C30   O10   A    
C49   H28   S    
O1    Zn1   S    
C3    C9    A    
C42   N4    T    
C44   N1    A    
C47   C48   A    
C23   C34   A    
C34   C45   A    
C32   C37   S    
O9    Zn2   S    
C33   H16   S    
C1    O5    A    
C4    C6    S    
C34   C54   A    
C40   I3    S    
C52   C53   A    
C15   H33   S    
C15   C17   A    
C21   C25   S    
C46   C47   A    
C16   C22   S    
C54   O3    S    
H25   N5    S    
C43   N1    A    
C3    C5    A    
C33   I1    S    
C50   N6    S    
C32   H15   S    
C20   H35   S    
C33   C38   S    
C49   H26   S    
C32   C33   S    
C36   C38   S    
C19   C24   S    
C21   H4    S    
C43   O12   S    
C52   H17   S    
C27   H5    S    
C26   N6    S    
N3    Zn1   S    
C11   C13   A    
C5    C6    A    
C35   H8    S    
C3    H19   S    
C39   I4    S    
C12   H1    S    
C19   H37   S    
C10   C11   A    
C50   H32   S    
C23   H7    S    
C2    N2    A    
C29   C31   T    
C14   C15   A    
C54   N2    A    
C20   H3    S    
C53   H18   S    
C17   N1    S    
O8    Zn1   S    
O10   Zn1   S    
C16   O9    A    
C30   O11   A    
