data_mof_unit_33145.cif
_audit_creation_date              2012-12-10T17:01:34-0500
_audit_creation_method            fapswitch 2.2
_symmetry_space_group_name_H-M    P1
_symmetry_Int_Tables_number       1
_space_group_crystal_system       triclinic
_cell_length_a                    9.814624
_cell_length_b                    11.130123
_cell_length_c                    13.047731
_cell_angle_alpha                 89.533239
_cell_angle_beta                  76.099673
_cell_angle_gamma                 110.647084
_cell_volume                      1287.91906391

loop_
_atom_site_label
_atom_site_type_symbol
_atom_type_description
_atom_site_fract_x
_atom_site_fract_y
_atom_site_fract_z
_atom_type_partial_charge
C1    C     C_R   0.440172 0.254881 0.509255 0.866390
C2    C     C_R   0.559828 0.745119 0.490745 0.866392
C3    C     C_2   0.082156 0.508053 0.489353 -0.065812
C4    C     C_2   0.917844 0.491947 0.510647 -0.065817
C5    C     C_R   0.474754 0.497628 0.702079 0.805945
C6    C     C_R   0.525246 0.502372 0.297921 0.805944
C7    C     C_R   0.538439 0.508573 0.184503 -0.083135
C8    C     C_R   0.461561 0.491425 0.815497 -0.083135
C9    C     C_R   0.313060 0.386931 0.989511 -0.212260
C10   C     C_R   0.686940 0.613066 0.010489 -0.212259
C11   C     C_R   0.327682 0.405620 0.882205 -0.214717
C12   C     C_R   0.672319 0.594376 0.117795 -0.214718
C13   C     C_R   0.583054 0.563133 0.856771 -0.074539
C14   C     C_R   0.416946 0.436865 0.143229 -0.074539
C15   C     C_R   0.568265 0.544500 0.966447 0.117376
C16   C     C_R   0.431735 0.455498 0.033552 0.117376
C17   C     C_2   0.409975 0.118711 0.502916 -0.403647
C18   C     C_2   0.590025 0.881289 0.497083 -0.403646
C19   C     C_2   0.506971 0.064241 0.517840 -0.023035
C20   C     C_2   0.493028 0.935759 0.482159 -0.023037
Cu1   Cu    Cu3+1 0.647370 0.522180 0.481340 0.957161
Cu2   Cu    Cu3+1 0.352630 0.477820 0.518660 0.957161
H1    H     H_    0.765141 0.650714 0.149394 0.162008
H2    H     H_    0.234860 0.349281 0.850605 0.162007
H3    H     H_    0.208127 0.317088 0.036971 0.156431
H4    H     H_    0.791875 0.682908 0.963028 0.156431
H5    H     H_    0.687593 0.934115 0.525347 0.138864
H6    H     H_    0.312409 0.065886 0.474651 0.138863
H7    H     H_    0.837533 0.425169 0.576965 0.187502
H8    H     H_    0.162467 0.574832 0.423035 0.187502
H9    H     H_    0.947683 0.618865 0.390890 0.202775
H10   H     H_    0.052317 0.381134 0.609110 0.202774
N1    N     N_2   0.131210 0.444490 0.546730 -0.288086
N2    N     N_2   0.868790 0.555510 0.453270 -0.288087
O1    O     O_R   0.578710 0.332530 0.490040 -0.570611
O2    O     O_R   0.421290 0.667470 0.509960 -0.570611
O3    O     O_R   0.329810 0.295070 0.521560 -0.570826
O4    O     O_R   0.670190 0.704930 0.478440 -0.570824
O5    O     O_R   0.604230 0.515670 0.637800 -0.567274
O6    O     O_R   0.395770 0.484330 0.362200 -0.567274
O7    O     O_R   0.355330 0.478200 0.669330 -0.589540
O8    O     O_R   0.644670 0.521800 0.330670 -0.589541
C21   C     C_R   0.276826 0.341617 0.214209 0.117665
C22   C     C_R   0.276771 0.224425 0.254968 -0.133421
C23   C     C_R   0.145705 0.136117 0.323174 -0.124425
C24   C     C_R   0.014570 0.164551 0.351475 -0.092761
C25   C     C_R   0.013893 0.281056 0.311311 -0.126531
C26   C     C_R   0.144614 0.369647 0.243063 -0.137879
H11   H     H_    0.378061 0.201828 0.234069 0.118855
H12   H     H_    0.145665 0.045601 0.354122 0.132742
H13   H     H_    0.913524 0.096331 0.404481 0.127724
H14   H     H_    0.912258 0.302944 0.333464 0.147093
H15   H     H_    0.143338 0.460161 0.213068 0.124619
C27   C     C_R   0.723170 0.658385 0.785792 0.117664
C28   C     C_R   0.855384 0.630359 0.756931 -0.137871
C29   C     C_R   0.986101 0.718955 0.688684 -0.126526
C30   C     C_R   0.985420 0.835461 0.648527 -0.092762
C31   C     C_R   0.854282 0.863892 0.676835 -0.124432
C32   C     C_R   0.723220 0.775579 0.745040 -0.133429
H16   H     H_    0.856664 0.539844 0.786921 0.124617
H17   H     H_    0.087739 0.697070 0.666525 0.147091
H18   H     H_    0.086463 0.903685 0.595521 0.127723
H19   H     H_    0.854319 0.954408 0.645893 0.132747
H20   H     H_    0.621928 0.798173 0.765945 0.118859
C33   C     C_1   0.380340 0.873226 0.425032 0.267736
N3    N     N_1   0.291206 0.825153 0.379051 -0.352383
C34   C     C_1   0.619660 0.126774 0.574968 0.267735
N4    N     N_1   0.708793 0.174846 0.620950 -0.352384

loop_
_geom_bond_atom_site_label_1
_geom_bond_atom_site_label_2
_ccdc_geom_bond_type
C22   H11   S    
C5    C8    S    
C21   C22   A    
C19   C34   S    
C25   H14   S    
Cu1   O1    S    
C14   C16   A    
Cu1   O8    S    
C3    H8    S    
Cu2   O2    S    
C21   C26   A    
C2    O4    A    
C1    C17   S    
C4    H7    S    
Cu1   O5    S    
C1    O3    A    
C28   C29   A    
Cu2   O6    S    
H10   N1    S    
C10   H4    S    
C5    O5    A    
C30   C31   A    
H9    N2    S    
C9    H3    S    
C30   H18   S    
C27   C32   A    
C24   C25   A    
Cu1   Cu2   S    
C29   C30   A    
C9    C11   A    
C12   H1    S    
C32   H20   S    
C8    C13   A    
C10   C12   A    
C23   H12   S    
C8    C11   A    
C11   H2    S    
C34   N4    T    
C17   C19   D    
C9    C16   A    
C13   C27   S    
C6    C7    S    
C18   C20   D    
C10   C15   A    
C13   C15   A    
C26   H15   S    
C4    N2    D    
C7    C12   A    
Cu2   O7    S    
C2    C18   S    
C3    N1    D    
C15   C16   A    
C25   C26   A    
C23   C24   A    
C20   C33   S    
C6    O6    A    
Cu2   O3    S    
C22   C23   A    
C1    O1    A    
C33   N3    T    
C6    O8    A    
C2    O2    A    
C31   H19   S    
Cu2   N1    S    
C5    O7    A    
C27   C28   A    
Cu1   N2    S    
C18   H5    S    
C31   C32   A    
C28   H16   S    
C17   H6    S    
C24   H13   S    
C7    C14   A    
Cu1   O4    S    
C19   C20   S    
C14   C21   S    
C3    C4    S    
C29   H17   S    
