data_mof_unit_25196.cif
_audit_creation_date              2012-10-26T19:05:04-0400
_audit_creation_method            fapswitch 2.2
_symmetry_space_group_name_H-M    P1
_symmetry_Int_Tables_number       1
_space_group_crystal_system       triclinic
_cell_length_a                    15.886231
_cell_length_b                    10.865534
_cell_length_c                    9.581384
_cell_angle_alpha                 90.922234
_cell_angle_beta                  89.89877
_cell_angle_gamma                 92.76157
_cell_volume                      1651.73005077

loop_
_atom_site_label
_atom_site_type_symbol
_atom_type_description
_atom_site_fract_x
_atom_site_fract_y
_atom_site_fract_z
_atom_type_partial_charge
C1    C     C_R   0.507080 0.263402 0.499508 0.544267
C2    C     C_R   0.572079 0.076768 0.873910 0.029905
C3    C     C_R   0.532890 0.960116 0.888649 -0.106902
C4    C     C_R   0.340299 0.499727 0.500181 0.563164
C5    C     C_R   0.502961 0.893870 0.771601 -0.100112
C6    C     C_R   0.511452 0.942746 0.635516 0.040522
C7    C     C_R   0.534711 0.069004 0.625542 0.015176
C8    C     C_R   0.516507 0.130236 0.500357 -0.008397
C9    C     C_R   0.495779 0.061980 0.379394 -0.159644
C10   C     C_R   0.489838 0.934848 0.382491 -0.158340
C11   C     C_R   0.496681 0.873191 0.509055 0.008641
C12   C     C_3   0.946343 0.374942 0.541131 -0.214803
C13   C     C_R   0.614836 0.660377 0.146265 -0.122553
C14   C     C_R   0.673133 0.735327 0.075331 -0.185899
C15   C     C_R   0.674108 0.735456 0.930575 0.021712
C16   C     C_R   0.497320 0.738037 0.502336 0.549775
C17   C     C_R   0.614802 0.660008 0.858241 -0.108011
C18   C     C_R   0.556418 0.578847 0.926503 0.113448
C19   C     C_R   0.556429 0.578843 0.075957 0.150468
C20   C     C_R   0.446530 0.424636 0.072729 -0.005487
C21   C     C_R   0.446558 0.424656 0.924707 -0.000876
C22   C     C_R   0.659689 0.500663 0.499862 0.546604
C23   C     C_3   0.916934 0.503217 0.499558 0.011561
C24   C     C_3   0.043713 0.373874 0.540964 -0.208001
C25   C     C_3   0.049938 0.536545 0.352353 -0.047151
C26   C     C_3   0.951742 0.533634 0.352154 -0.218411
C27   C     C_1   0.749293 0.501770 0.499640 -0.010375
C28   C     C_3   0.082789 0.502342 0.500418 0.000132
C29   C     C_3   0.606720 0.147724 0.999604 -0.285674
C30   C     C_3   0.701886 0.172377 0.989361 -0.411138
C31   C     C_2   0.736482 0.815258 0.853925 0.570285
C32   C     C_2   0.084272 0.459086 0.234039 0.586524
C33   C     C_2   0.086603 0.593012 0.752001 0.575750
C34   C     C_3   0.953339 0.600795 0.605820 -0.213121
C35   C     C_3   0.051515 0.602490 0.605620 -0.048575
C36   C     C_1   0.824812 0.502629 0.499502 -0.059357
C37   C     C_1   0.175203 0.501349 0.500823 -0.030291
C38   C     C_1   0.250695 0.500511 0.500593 0.014794
C39   C     C_R   0.573043 0.130615 0.742282 -0.068203
Cu1   Cu    Cu3+1 0.499990 0.499990 0.640660 0.928679
Cu2   Cu    Cu3+1 0.500010 0.500010 0.359340 0.937235
H1    H     H_    0.920349 0.303068 0.466839 0.140510
H2    H     H_    0.402857 0.362723 0.127074 0.124052
H3    H     H_    0.064551 0.301187 0.467757 0.166702
H4    H     H_    0.618774 0.670721 0.256329 0.193193
H5    H     H_    0.717046 0.794823 0.134717 0.157419
H6    H     H_    0.616181 0.669190 0.748614 0.223348
H7    H     H_    0.402903 0.362740 0.868332 0.129176
H8    H     H_    0.072672 0.633217 0.331904 0.118999
H9    H     H_    0.924897 0.464627 0.275230 0.164168
H10   H     H_    0.930357 0.624978 0.319729 0.117288
H11   H     H_    0.074681 0.694231 0.567019 0.117422
H12   H     H_    0.066254 0.346770 0.645127 0.169958
H13   H     H_    0.927145 0.580783 0.711373 0.170348
H14   H     H_    0.733934 0.084192 0.979944 0.208005
H15   H     H_    0.718375 0.230368 0.898018 0.150601
H16   H     H_    0.724967 0.221924 0.085171 0.150973
H17   H     H_    0.575571 0.236853 0.009006 0.153263
H18   H     H_    0.593062 0.095980 0.096805 0.140536
H19   H     H_    0.775117 0.885938 0.669673 0.338045
H20   H     H_    0.162734 0.452366 0.068603 0.358150
H21   H     H_    0.164673 0.667764 0.899596 0.363266
H22   H     H_    0.922074 0.351111 0.646855 0.146015
H23   H     H_    0.932454 0.693620 0.577944 0.119718
H24   H     H_    0.483036 0.106870 0.282074 0.131093
H25   H     H_    0.604133 0.220764 0.732420 0.143906
H26   H     H_    0.526152 0.919260 0.990727 0.105959
H27   H     H_    0.469365 0.807854 0.792806 0.155865
H28   H     H_    0.477291 0.884867 0.285391 0.139168
N1    N     N_R   0.500800 0.501210 0.147910 -0.239561
N2    N     N_R   0.500820 0.501290 0.852040 -0.248744
O1    O     O_R   0.499990 0.319640 0.618810 -0.513615
O2    O     O_R   0.728859 0.829366 0.709668 -0.723189
O3    O     O_2   0.060398 0.351122 0.217724 -0.518049
O4    O     O_R   0.143600 0.512626 0.142655 -0.687648
O5    O     O_2   0.063157 0.508503 0.827715 -0.515829
O6    O     O_R   0.145621 0.683131 0.800732 -0.688408
O7    O     O_R   0.500000 0.319660 0.381240 -0.506275
O8    O     O_R   0.379430 0.499990 0.618840 -0.488409
O9    O     O_R   0.379440 0.500020 0.381260 -0.483772
O10   O     O_R   0.500000 0.680340 0.618760 -0.532390
O11   O     O_R   0.500010 0.680360 0.381190 -0.522138
O12   O     O_R   0.620560 0.499980 0.618740 -0.519578
O13   O     O_R   0.620570 0.500010 0.381160 -0.516376
O14   O     O_2   0.795097 0.868253 0.916393 -0.530487

loop_
_geom_bond_atom_site_label_1
_geom_bond_atom_site_label_2
_ccdc_geom_bond_type
C31   O14   D    
Cu1   N2    S    
C1    C8    S    
H21   O6    S    
Cu2   O9    S    
C7    C8    A    
C14   H5    S    
H20   O4    S    
C25   C28   S    
C12   C23   S    
C29   C30   S    
C21   N2    A    
C2    C29   S    
C4    O9    A    
C26   H9    S    
C32   O3    D    
C5    C6    A    
C31   O2    S    
C30   H16   S    
H19   O2    S    
C34   C35   S    
C23   C26   S    
C12   H1    S    
C2    C39   A    
C29   H18   S    
C28   C35   S    
C8    C9    A    
C9    C10   A    
C21   H7    S    
C25   C32   S    
C13   C14   A    
C1    O7    A    
Cu1   O12   S    
C20   N1    A    
C32   O4    S    
C5    H27   S    
C16   O11   A    
C25   H8    S    
C1    O1    A    
C13   C19   A    
C24   C28   S    
C4    O8    A    
C6    C11   A    
C12   H22   S    
C18   C19   A    
C25   C26   S    
Cu2   O13   S    
C30   H15   S    
C22   O13   A    
C37   C38   T    
C11   C16   S    
C33   O5    D    
C23   C34   S    
C34   H23   S    
C17   C18   A    
Cu1   O8    S    
C29   H17   S    
Cu1   Cu2   S    
C4    C38   S    
C34   H13   S    
C22   C27   S    
C24   H3    S    
C39   H25   S    
Cu2   O7    S    
C20   H2    S    
C18   N2    A    
C15   C17   A    
Cu1   O1    S    
Cu1   O10   S    
C3    H26   S    
C17   H6    S    
C3    C5    A    
C15   C31   S    
C6    C7    A    
C27   C36   T    
C30   H14   S    
C12   C24   S    
C22   O12   A    
C2    C3    A    
C24   H12   S    
C26   H10   S    
C13   H4    S    
C33   O6    S    
C28   C37   S    
Cu2   O11   S    
C16   O10   A    
C33   C35   S    
C9    H24   S    
C10   C11   A    
C10   H28   S    
C20   C21   A    
C23   C36   S    
C35   H11   S    
C7    C39   A    
C14   C15   A    
C19   N1    A    
Cu2   N1    S    
