data_mof_unit_18202.cif
_audit_creation_date              2013-03-05T15:54:05-0500
_audit_creation_method            fapswitch 2.2
_symmetry_space_group_name_H-M    P1
_symmetry_Int_Tables_number       1
_space_group_crystal_system       monoclinic
_cell_length_a                    17.029405
_cell_length_b                    7.645468
_cell_length_c                    15.001759
_cell_angle_alpha                 90.0
_cell_angle_beta                  92.835195
_cell_angle_gamma                 90.0
_cell_volume                      1950.80475805

loop_
_atom_site_label
_atom_site_type_symbol
_atom_site_description
_atom_site_fract_x
_atom_site_fract_y
_atom_site_fract_z
_atom_type_partial_charge
O1    O     O_R   0.578230 0.505720 0.424270 -0.571146
O2    O     O_R   0.421770 0.005720 0.575730 -0.571146
O3    O     O_R   0.412470 0.173950 0.404530 -0.533365
O4    O     O_R   0.587530 0.673950 0.595470 -0.533366
C1    C     C_R   0.383890 0.344464 0.385530 1.070924
C2    C     C_R   0.616110 0.844464 0.614470 1.070925
O5    O     O_R   0.577030 0.175880 0.413670 -0.547987
O6    O     O_R   0.422970 0.675880 0.586330 -0.547987
O7    O     O_R   0.587510 0.007580 0.584940 -0.512024
O8    O     O_R   0.412490 0.507580 0.415060 -0.512024
C3    C     C_R   0.602014 0.343985 0.394395 0.986807
C4    C     C_R   0.397986 0.843985 0.605605 0.986807
O9    O     O_3   0.503240 0.339850 0.556180 -0.259356
O10   O     O_3   0.496760 0.839850 0.443820 -0.259356
V1    V     V_3+5 0.499400 0.064230 0.489580 1.410310
V2    V     V_3+5 0.500600 0.564230 0.510420 1.410310
C5    C     C_1   0.334771 0.853484 0.668287 -0.135697
C6    C     C_1   0.665229 0.353484 0.331713 -0.135696
C7    C     C_1   0.281626 0.864981 0.720002 0.154310
C8    C     C_1   0.718374 0.364981 0.279998 0.154309
C9    C     C_1   0.218885 0.879950 0.780647 0.155684
C10   C     C_1   0.781115 0.379950 0.219353 0.155684
C11   C     C_1   0.165688 0.891467 0.832291 -0.122317
C12   C     C_1   0.834312 0.391467 0.167709 -0.122317
C13   C     C_3   0.770244 0.709607 0.820421 0.420400
C14   C     C_3   0.229756 0.209607 0.179579 0.420400
C15   C     C_3   0.689419 0.711471 0.759310 0.439396
C16   C     C_3   0.310581 0.211471 0.240690 0.439396
H1    H     H_    0.886222 0.779564 0.707407 0.151481
H2    H     H_    0.113778 0.279564 0.292593 0.151481
H3    H     H_    0.787778 0.722234 0.619985 0.199786
H4    H     H_    0.212222 0.222234 0.380015 0.199786
C17   C     C_3   0.846575 0.891783 0.710172 0.066883
C18   C     C_3   0.153425 0.391783 0.289828 0.066883
C19   C     C_3   0.747173 0.036929 0.822167 0.322872
C20   C     C_3   0.252827 0.536929 0.177833 0.322873
C21   C     C_3   0.814675 0.890891 0.810420 -0.644928
C22   C     C_3   0.185325 0.390891 0.189580 -0.644928
C23   C     C_3   0.689856 0.861493 0.683905 -0.627221
C24   C     C_3   0.310144 0.361493 0.316095 -0.627222
C25   C     C_3   0.775283 0.854519 0.638379 0.057845
C26   C     C_3   0.224717 0.354519 0.361620 0.057844
C27   C     C_3   0.686415 0.042494 0.734223 0.469073
C28   C     C_3   0.313585 0.542494 0.265777 0.469072
O11   O     O_R   0.087480 0.241090 0.084980 -0.553767
O12   O     O_R   0.912520 0.741090 0.915020 -0.553768
O13   O     O_R   0.922960 0.569060 0.086330 -0.543726
O14   O     O_R   0.077040 0.069060 0.913670 -0.543726
C29   C     C_R   0.897653 0.400970 0.105192 0.983865
C30   C     C_R   0.102347 0.900970 0.894808 0.983865
O15   O     O_R   0.087520 0.570920 0.095480 -0.504721
O16   O     O_R   0.912480 0.070920 0.904520 -0.504721
O17   O     O_R   0.078240 0.739160 0.924260 -0.572691
O18   O     O_R   0.921760 0.239160 0.075740 -0.572691
C31   C     C_R   0.114307 0.402523 0.117103 1.097393
C32   C     C_R   0.885693 0.902523 0.882896 1.097393
O19   O     O_3   0.996740 0.404980 0.943840 -0.264072
O20   O     O_3   0.003260 0.904980 0.056160 -0.264073
V3    V     V_3+5 0.000600 0.680640 0.010420 1.407003
V4    V     V_3+5 0.999400 0.180640 0.989580 1.407003
N1    N     N_R   0.825236 0.567290 0.797838 0.256396
O21   O     O_R   0.838573 0.519113 0.716895 -0.322970
O22   O     O_R   0.865393 0.488446 0.861928 -0.242544
N2    N     N_R   0.174764 0.067290 0.202162 0.256396
O23   O     O_R   0.161426 0.019113 0.283105 -0.322970
O24   O     O_R   0.134607 0.988446 0.138072 -0.242544
N3    N     N_R   0.706726 0.181517 0.668605 0.287983
O25   O     O_R   0.777693 0.215360 0.647440 -0.243108
O26   O     O_R   0.653042 0.251215 0.615559 -0.231040
N4    N     N_R   0.293274 0.681517 0.331395 0.287983
O27   O     O_R   0.222306 0.715360 0.352560 -0.243108
O28   O     O_R   0.346958 0.751215 0.384441 -0.231040
N5    N     N_R   0.906662 0.024263 0.688877 0.318906
O29   O     O_R   0.970721 0.033035 0.739732 -0.384553
O30   O     O_R   0.909647 0.094057 0.610118 -0.190042
N6    N     N_R   0.093338 0.524263 0.311123 0.318906
O31   O     O_R   0.029279 0.533035 0.260268 -0.384553
O32   O     O_R   0.090353 0.594057 0.389882 -0.190042
N7    N     N_R   0.781710 0.933615 0.548877 0.294315
O33   O     O_R   0.723119 0.013660 0.507966 -0.345738
O34   O     O_R   0.838245 0.880496 0.500012 -0.278246
N8    N     N_R   0.218290 0.433615 0.451123 0.294315
O35   O     O_R   0.276881 0.513660 0.492034 -0.345738
O36   O     O_R   0.161754 0.380497 0.499988 -0.278245
Cl1   Cl    Cl    0.747768 0.664578 0.937069 -0.400508
Cl2   Cl    Cl    0.252232 0.164578 0.062931 -0.400508
Cl3   Cl    Cl    0.603367 0.737123 0.827175 -0.367924
Cl4   Cl    Cl    0.396633 0.237123 0.172825 -0.367924
N9    N     N_R   0.678269 0.543146 0.716982 0.278005
O37   O     O_R   0.618881 0.447399 0.738060 -0.210954
O38   O     O_R   0.707676 0.519526 0.639953 -0.340385
N10   N     N_R   0.321731 0.043146 0.283018 0.278005
O39   O     O_R   0.381119 0.947399 0.261940 -0.210954
O40   O     O_R   0.292324 0.019526 0.360047 -0.340385
N11   N     N_R   0.780768 0.204265 0.827487 0.260962
O41   O     O_R   0.845552 0.232202 0.788871 -0.249991
O42   O     O_R   0.737095 0.329935 0.855627 -0.278086
N12   N     N_R   0.219232 0.704265 0.172513 0.260962
O43   O     O_R   0.154448 0.732202 0.211129 -0.249991
O44   O     O_R   0.262905 0.829935 0.144373 -0.278086
N13   N     N_R   0.713306 0.015833 0.911985 0.283485
O45   O     O_R   0.761691 0.025701 0.981943 -0.344777
O46   O     O_R   0.640086 0.045647 0.927055 -0.159721
N14   N     N_R   0.286694 0.515833 0.088015 0.283485
O47   O     O_R   0.238309 0.525702 0.018057 -0.344777
O48   O     O_R   0.359914 0.545647 0.072945 -0.159721
Cl5   Cl    Cl    0.585915 0.097738 0.762590 -0.390477
Cl6   Cl    Cl    0.414085 0.597738 0.237410 -0.390477

loop_
_geom_bond_atom_site_label_1
_geom_bond_atom_site_label_2
_geom_bond_distance
_ccdc_geom_bond_type
C27   Cl5   1.833189 S    
C3    C6    1.465794 S    
N13   O45   1.304031 A    
O12   V3    2.073482 S    
N5    O29   1.301627 A    
N11   O41   1.289025 A    
O1    C3    1.382714 A    
O2    C4    1.382715 A    
C2    O7    1.402628 A    
N14   O48   1.298336 A    
O17   V3    1.946291 S    
O13   C29   1.389032 A    
O18   V4    1.946289 S    
O5    C3    1.388752 A    
C19   C21   1.618371 S    
N6    O32   1.299709 A    
O19   V3    2.331786 S    
C16   C24   1.611242 S    
O20   V4    2.331786 S    
C29   O18   1.382803 A    
H1    C17   1.093823 S    
N1    O22   1.300149 A    
C14   N2    1.485624 S    
O11   V4    2.073481 S    
O16   V4    2.082334 S    
C13   C21   1.589730 S    
C21   C32   1.588269 S    
C22   C31   1.588269 S    
C15   C23   1.611242 S    
C18   C26   1.608022 S    
C26   N8    1.481567 S    
C4    C5    1.465794 S    
C16   Cl4   1.835757 S    
C28   N4    1.500700 S    
N4    O27   1.290834 A    
N9    O38   1.294601 A    
C19   C27   1.636442 S    
C6    C8    1.223996 T    
C14   Cl2   1.842160 S    
O14   C30   1.389031 A    
O6    V2    1.980425 S    
N5    O30   1.299708 A    
C13   Cl1   1.842160 S    
N14   O47   1.304031 A    
O14   V4    1.980315 S    
C28   Cl6   1.833191 S    
C30   O17   1.382803 A    
H2    C18   1.093823 S    
N3    O25   1.290833 A    
N6    O31   1.301627 A    
C23   C25   1.638264 S    
N7    O34   1.303476 A    
C14   C22   1.589730 S    
C11   C30   1.465760 S    
C23   C27   1.578809 S    
C19   N13   1.500366 S    
O20   V3    1.847073 S    
C17   C21   1.624086 S    
N3    O26   1.296551 A    
N2    O24   1.300149 A    
O4    V2    2.082366 S    
C27   N3    1.500700 S    
O10   V1    1.847466 S    
C24   C28   1.578808 S    
O6    C4    1.388752 A    
N10   O40   1.294602 A    
C16   N10   1.443440 S    
O1    V2    1.946047 S    
C13   N1    1.485624 S    
C15   Cl3   1.835758 S    
O2    V1    1.946045 S    
C17   N5    1.485713 S    
C8    C10   1.441713 S    
N12   O43   1.289027 A    
N8    O36   1.303477 A    
C9    C11   1.223965 T    
C10   C12   1.223965 T    
C20   C28   1.636442 S    
O4    C2    1.415604 A    
O15   V3    2.082334 S    
O3    V1    2.082364 S    
C12   C29   1.465760 S    
H3    C25   1.072439 S    
C7    C9    1.441713 S    
C18   C22   1.624086 S    
C14   C16   1.615651 S    
C24   C26   1.638262 S    
O3    C1    1.415604 A    
C25   N7    1.481567 S    
C20   N12   1.402109 S    
N11   O42   1.298281 A    
C19   N11   1.402109 S    
C13   C15   1.615652 S    
N12   O44   1.298280 A    
C20   N14   1.500366 S    
C17   C25   1.608022 S    
N2    O23   1.299623 A    
C20   C22   1.618371 S    
O7    V1    2.067160 S    
C1    O8    1.402628 A    
O8    V2    2.067159 S    
O5    V1    1.980425 S    
N10   O39   1.300109 A    
C5    C7    1.223996 T    
C15   N9    1.443440 S    
O15   C31   1.398670 A    
N1    O21   1.299624 A    
O13   V3    1.980312 S    
N7    O33   1.298515 A    
O19   V4    1.847073 S    
O11   C31   1.393734 A    
N13   O46   1.298339 A    
N8    O35   1.298515 A    
O9    V2    1.847466 S    
O12   C32   1.393734 A    
H4    C26   1.072439 S    
C2    C23   1.596778 S    
N4    O28   1.296551 A    
N9    O37   1.300109 A    
C1    C24   1.596780 S    
O16   C32   1.398670 A    
C18   N6    1.485713 S    
