data_mof_unit_5885.cif
_audit_creation_date              2012-12-10T18:33:46-0500
_audit_creation_method            fapswitch 2.2
_symmetry_space_group_name_H-M    P1
_symmetry_Int_Tables_number       1
_space_group_crystal_system       triclinic
_cell_length_a                    10.506306
_cell_length_b                    15.010253
_cell_length_c                    15.471696
_cell_angle_alpha                 82.317022
_cell_angle_beta                  89.900286
_cell_angle_gamma                 104.803902
_cell_volume                      2336.11359569

loop_
_atom_site_label
_atom_site_type_symbol
_atom_type_description
_atom_site_fract_x
_atom_site_fract_y
_atom_site_fract_z
_atom_type_partial_charge
C1    C     C_R   0.478031 0.441846 0.662200 0.855648
C2    C     C_R   0.400794 0.481272 0.046280 0.070266
C3    C     C_R   0.359868 0.384723 0.076953 -0.230023
C4    C     C_R   0.418727 0.606265 0.925496 -0.232595
C5    C     C_R   0.342316 0.319329 0.019428 -0.237999
C6    C     C_R   0.439563 0.671756 0.983086 -0.238082
C7    C     C_R   0.696462 0.843436 0.636607 -0.321341
C8    C     C_R   0.304139 0.156773 0.362942 -0.322200
C9    C     C_R   0.663918 0.754167 0.614282 0.047342
C10   C     C_R   0.336564 0.245998 0.385389 0.047120
C11   C     C_R   0.513613 0.793460 0.510811 -0.076541
C12   C     C_R   0.515232 0.557974 0.337818 0.857384
C13   C     C_R   0.486133 0.206461 0.489305 -0.075589
C14   C     C_R   0.542562 0.885662 0.530112 -0.003892
C15   C     C_R   0.457447 0.114345 0.469795 -0.004246
C16   C     C_R   0.742636 0.501214 0.500107 0.909103
C17   C     C_R   0.257382 0.498788 0.499886 0.905706
C18   C     C_R   0.636062 0.909542 0.594765 0.177624
C19   C     C_R   0.364258 0.090568 0.404939 0.179955
C20   C     C_R   0.482717 0.954184 0.487953 0.083493
C21   C     C_R   0.517324 0.045828 0.511916 0.083152
C22   C     C_R   0.610465 0.065882 0.577091 -0.254283
C23   C     C_R   0.445348 0.472156 0.810974 -0.265261
C24   C     C_R   0.389785 0.934189 0.422644 -0.254583
C25   C     C_R   0.668674 0.998986 0.617310 -0.209135
C26   C     C_R   0.331760 0.001149 0.382310 -0.208915
C27   C     C_3   0.931791 0.433888 0.563621 -0.333768
C28   C     C_3   0.068300 0.566112 0.436352 -0.333325
C29   C     C_3   0.049384 0.515931 0.579071 -0.322982
C30   C     C_3   0.950704 0.484068 0.420905 -0.323323
C31   C     C_3   0.121793 0.497282 0.499534 -0.115621
C32   C     C_3   0.878272 0.502723 0.500442 -0.118284
C33   C     C_3   0.006110 0.416800 0.484380 0.658395
C34   C     C_R   0.467372 0.524895 0.189197 -0.262484
C35   C     C_3   0.993984 0.583205 0.515594 0.657456
C36   C     C_R   0.444924 0.407087 0.754448 -0.054722
C37   C     C_R   0.502567 0.591269 0.245848 -0.054356
C38   C     C_R   0.367792 0.282505 0.873632 -0.206588
C39   C     C_R   0.490257 0.711910 0.128077 -0.207444
C40   C     C_R   0.404258 0.311804 0.785629 -0.194034
C41   C     C_R   0.512749 0.685138 0.215417 -0.200281
C42   C     C_3   0.899320 0.269103 0.459312 -0.300423
C43   C     C_3   0.100923 0.730874 0.540659 -0.301373
C44   C     C_R   0.404522 0.444586 0.898346 0.090706
C45   C     C_R   0.437733 0.549271 0.103006 0.091221
C46   C     C_R   0.370268 0.348288 0.930563 0.177829
C47   C     C_R   0.454992 0.644752 0.071296 0.177613
C48   C     C_R   0.407219 0.511045 0.955603 0.069183
H1    H     H_    0.094342 0.529337 0.642512 0.160838
H2    H     H_    0.359372 0.867243 0.400550 0.131956
H3    H     H_    0.871701 0.380494 0.614558 0.154267
H4    H     H_    0.128452 0.619472 0.385409 0.155684
H5    H     H_    0.312595 0.245945 0.045049 0.143962
H6    H     H_    0.449222 0.744203 0.957889 0.145562
H7    H     H_    0.467213 0.453955 0.212676 0.161011
H8    H     H_    0.482686 0.544942 0.786499 0.161915
H9    H     H_    0.537973 0.737476 0.258790 0.158714
H10   H     H_    0.401480 0.260286 0.742405 0.159801
H11   H     H_    0.339620 0.208668 0.897432 0.135398
H12   H     H_    0.905811 0.470636 0.357456 0.160915
H13   H     H_    0.501385 0.784951 0.104774 0.135734
H14   H     H_    0.338225 0.358054 0.145188 0.144265
H15   H     H_    0.409101 0.631568 0.857786 0.148298
H16   H     H_    0.739893 0.017518 0.666794 0.145513
H17   H     H_    0.260792 0.982694 0.332666 0.144908
H18   H     H_    0.845946 0.296256 0.404036 0.163763
H19   H     H_    0.838438 0.254789 0.520877 0.154967
H20   H     H_    0.914296 0.201861 0.445263 0.195749
H21   H     H_    0.161789 0.745174 0.479086 0.155237
H22   H     H_    0.154285 0.703682 0.595922 0.162547
H23   H     H_    0.555215 0.231693 0.537180 0.124868
H24   H     H_    0.086031 0.798133 0.554724 0.195657
H25   H     H_    0.444137 0.768113 0.463184 0.124668
H26   H     H_    0.290741 0.297907 0.353607 0.145064
H27   H     H_    0.710063 0.702359 0.645870 0.149592
H28   H     H_    0.768212 0.860688 0.686011 0.145660
H29   H     H_    0.232760 0.139652 0.313293 0.143028
H30   H     H_    0.641077 0.132869 0.599074 0.132204
N1    N     N_R   0.574200 0.731700 0.552740 -0.101638
N2    N     N_R   0.425800 0.268300 0.447260 -0.100346
O1    O     O_R   0.462600 0.383110 0.605620 -0.619388
O2    O     O_3   0.976736 0.669660 0.532094 -0.598255
O3    O     O_R   0.537400 0.616890 0.394380 -0.618277
O4    O     O_R   0.510210 0.531900 0.639510 -0.629526
O5    O     O_R   0.489790 0.468100 0.360490 -0.629008
O6    O     O_R   0.662240 0.425610 0.483080 -0.636713
O7    O     O_R   0.337760 0.574390 0.516920 -0.638982
O8    O     O_R   0.709860 0.574400 0.516970 -0.573944
O9    O     O_R   0.290140 0.425600 0.483030 -0.575399
O10   O     O_3   0.023456 0.330370 0.467880 -0.598383
Zn1   Zn    Zn3+2 0.468210 0.400660 0.477370 0.951689
Zn2   Zn    Zn3+2 0.531790 0.599340 0.522630 0.950919

loop_
_geom_bond_atom_site_label_1
_geom_bond_atom_site_label_2
_ccdc_geom_bond_type
C38   C40   A    
C43   H24   S    
C27   C29   S    
C34   C37   A    
C10   H26   S    
C14   C18   A    
O5    Zn1   S    
C23   H8    S    
C39   C41   A    
C29   H1    S    
C27   C33   S    
C1    O4    A    
C15   C19   A    
O3    Zn2   S    
C4    H15   S    
C12   O5    A    
C5    H5    S    
C24   C26   A    
O6    Zn1   S    
C11   C14   A    
C1    O1    A    
C9    N1    A    
C12   C37   S    
C19   C26   A    
C20   C24   A    
O8    Zn2   S    
C28   C35   S    
C44   C46   A    
C22   C25   A    
C30   H12   S    
C31   C33   S    
O9    Zn1   S    
C13   N2    A    
C34   H7    S    
C43   H21   S    
C21   C22   A    
C16   O6    A    
C18   C25   A    
C6    H6    S    
C35   O2    S    
C27   H3    S    
C45   C47   A    
C2    C45   A    
C24   H2    S    
C39   H13   S    
C16   O8    A    
C8    C19   A    
C40   H10   S    
C6    C47   A    
C32   C35   S    
C14   C20   A    
C36   C40   A    
C17   O9    A    
C22   H30   S    
C4    C6    A    
C11   H25   S    
C10   N2    A    
C13   H23   S    
C2    C48   A    
C23   C44   A    
C12   O3    A    
C42   O10   S    
C25   H16   S    
C7    C18   A    
C34   C45   A    
N1    Zn2   S    
C11   N1    A    
C43   H22   S    
C13   C15   A    
C8    H29   S    
C17   C31   S    
C39   C47   A    
C4    C48   A    
C3    H14   S    
C7    C9    A    
C30   C33   S    
C27   C32   S    
C17   O7    A    
C26   H17   S    
C28   C31   S    
C3    C5    A    
C7    H28   S    
C16   C32   S    
O4    Zn2   S    
C5    C46   A    
C29   C35   S    
N2    Zn1   S    
C28   C30   S    
C2    C3    A    
C41   H9    S    
C29   C31   S    
C33   O10   S    
C30   C32   S    
C28   H4    S    
C42   H19   S    
C42   H20   S    
C37   C41   A    
C38   C46   A    
C38   H11   S    
O1    Zn1   S    
C15   C21   A    
C20   C21   A    
C8    C10   A    
C23   C36   A    
C42   H18   S    
C43   O2    S    
C9    H27   S    
O7    Zn2   S    
C44   C48   A    
C1    C36   S    
