data_mof_unit_53637.cif
_audit_creation_date              2012-12-11T16:44:21-0500
_audit_creation_method            fapswitch 2.2
_symmetry_space_group_name_H-M    P1
_symmetry_Int_Tables_number       1
_space_group_crystal_system       triclinic
_cell_length_a                    27.179803
_cell_length_b                    7.20982
_cell_length_c                    22.781674
_cell_angle_alpha                 90.00027
_cell_angle_beta                  101.402223
_cell_angle_gamma                 89.999201
_cell_volume                      4376.22047827

loop_
_atom_site_label
_atom_site_type_symbol
_atom_type_description
_atom_site_fract_x
_atom_site_fract_y
_atom_site_fract_z
_atom_type_partial_charge
O1    O     O_R   0.707300 0.594030 0.176840 -0.524297
O2    O     O_R   0.292700 0.405970 0.823160 -0.524297
O3    O     O_R   0.792700 0.094030 0.323160 -0.524278
O4    O     O_R   0.207300 0.905970 0.676840 -0.524278
O5    O     O_R   0.697330 0.262360 0.295660 -0.547080
O6    O     O_R   0.302670 0.737640 0.704340 -0.547080
O7    O     O_R   0.802670 0.762360 0.204340 -0.547080
O8    O     O_R   0.197330 0.237640 0.795660 -0.547081
C1    C     C_R   0.684843 0.432456 0.311803 0.713815
C2    C     C_R   0.315157 0.567543 0.688197 0.713816
C3    C     C_R   0.815157 0.932455 0.188197 0.713805
C4    C     C_R   0.184843 0.067545 0.811803 0.713804
O9    O     O_R   0.701410 0.264250 0.175600 -0.540722
O10   O     O_R   0.298590 0.735750 0.824400 -0.540722
O11   O     O_R   0.798590 0.764250 0.324400 -0.540723
O12   O     O_R   0.201410 0.235750 0.675600 -0.540724
O13   O     O_R   0.796800 0.094950 0.202240 -0.536233
O14   O     O_R   0.203200 0.905050 0.797760 -0.536233
O15   O     O_R   0.703200 0.594950 0.297760 -0.536237
O16   O     O_R   0.296800 0.405050 0.702240 -0.536238
C5    C     C_R   0.689761 0.432299 0.153439 0.779925
C6    C     C_R   0.310239 0.567701 0.846560 0.779926
C7    C     C_R   0.810238 0.932297 0.346561 0.779913
C8    C     C_R   0.189762 0.067702 0.653439 0.779913
O17   O     O_3   0.781290 0.427390 0.258880 -0.372893
O18   O     O_3   0.218710 0.572610 0.741120 -0.372893
O19   O     O_3   0.718710 0.927390 0.241120 -0.372905
O20   O     O_3   0.281290 0.072610 0.758880 -0.372905
V1    V     V_3+5 0.744190 0.152150 0.248350 1.493846
V2    V     V_3+5 0.255810 0.847850 0.751650 1.493846
V3    V     V_3+5 0.755810 0.652150 0.251650 1.493827
V4    V     V_3+5 0.244190 0.347850 0.748350 1.493827
C9    C     C_R   0.154613 0.065101 0.595016 -0.208245
C10   C     C_R   0.845387 0.934899 0.404984 -0.208245
C11   C     C_R   0.345387 0.565082 0.904982 -0.208225
C12   C     C_R   0.654613 0.434918 0.095018 -0.208226
C13   C     C_R   0.138254 0.144376 0.489385 0.366814
C14   C     C_R   0.861746 0.855624 0.510615 0.366814
C15   C     C_R   0.361730 0.644130 0.010630 0.366810
C16   C     C_R   0.638270 0.355868 0.989370 0.366809
C17   C     C_R   0.170431 0.139285 0.545407 -0.356706
C18   C     C_R   0.829569 0.860715 0.454593 -0.356706
C19   C     C_R   0.329558 0.639120 0.954604 -0.356734
C20   C     C_R   0.670442 0.360878 0.045396 -0.356733
C21   C     C_R   0.104558 0.007052 0.589799 0.699422
C22   C     C_R   0.895442 0.992947 0.410201 0.699422
C23   C     C_R   0.395448 0.507111 0.910191 0.699435
C24   C     C_R   0.604552 0.492890 0.089809 0.699434
C25   C     C_R   0.068987 0.033098 0.535150 -0.110140
C26   C     C_R   0.931013 0.966901 0.464850 -0.110140
C27   C     C_R   0.431012 0.533084 0.964849 -0.110134
C28   C     C_R   0.568988 0.466917 0.035150 -0.110134
C29   C     C_R   0.087997 0.081876 0.483364 -0.216027
C30   C     C_R   0.912003 0.918124 0.516636 -0.216027
C31   C     C_R   0.411993 0.581702 0.016643 -0.216019
C32   C     C_R   0.588006 0.418297 0.983356 -0.216019
C33   C     C_R   0.015737 0.006017 0.529193 -0.222047
C34   C     C_R   0.984263 0.993983 0.470807 -0.222047
C35   C     C_R   0.484265 0.506067 0.970807 -0.222031
C36   C     C_R   0.515735 0.493934 0.029193 -0.222031
C37   C     C_R   0.007696 0.999816 0.420744 0.669492
C38   C     C_R   0.992304 0.000183 0.579256 0.669491
C39   C     C_R   0.492297 0.499610 0.079253 0.669503
C40   C     C_R   0.507703 0.500391 0.920747 0.669503
C41   C     C_R   0.057387 0.055648 0.426585 0.552538
C42   C     C_R   0.942613 0.944352 0.573415 0.552540
C43   C     C_R   0.442601 0.555380 0.073419 0.552537
C44   C     C_R   0.557399 0.444620 0.926581 0.552537
H1    H     H_    0.791494 0.809331 0.449948 0.132896
H2    H     H_    0.208506 0.190669 0.550052 0.132896
H3    H     H_    0.708523 0.309558 0.050034 0.132884
H4    H     H_    0.291477 0.690439 0.949966 0.132884
C45   C     C_R   0.859657 0.106388 0.118362 -0.179413
C46   C     C_R   0.140343 0.893612 0.881637 -0.179414
C47   C     C_R   0.640342 0.606392 0.381638 -0.179433
C48   C     C_R   0.359658 0.393608 0.618362 -0.179433
H5    H     H_    0.835366 0.224629 0.119890 0.126406
H6    H     H_    0.164634 0.775371 0.880110 0.126405
H7    H     H_    0.664633 0.724632 0.380111 0.126406
H8    H     H_    0.335367 0.275368 0.619889 0.126406
C49   C     C_R   0.896006 0.118224 0.082837 -0.130272
C50   C     C_R   0.103994 0.881776 0.917163 -0.130272
C51   C     C_R   0.603994 0.618228 0.417163 -0.130269
C52   C     C_R   0.396006 0.381772 0.582836 -0.130269
H9    H     H_    0.898454 0.244067 0.057591 0.142730
H10   H     H_    0.101546 0.755933 0.942409 0.142729
H11   H     H_    0.601545 0.744069 0.442411 0.142738
H12   H     H_    0.398455 0.255931 0.557589 0.142738
C53   C     C_R   0.928347 0.968892 0.078907 0.155959
C54   C     C_R   0.071653 0.031108 0.921093 0.155959
C55   C     C_R   0.571652 0.468897 0.421092 0.155954
C56   C     C_R   0.428348 0.531103 0.578908 0.155954
C57   C     C_R   0.923934 0.805832 0.112128 0.261259
C58   C     C_R   0.076066 0.194168 0.887872 0.261259
C59   C     C_R   0.576066 0.305839 0.387870 0.261253
C60   C     C_R   0.423934 0.694161 0.612130 0.261253
C61   C     C_R   0.886339 0.793492 0.146634 -0.202311
C62   C     C_R   0.113661 0.206508 0.853366 -0.202311
C63   C     C_R   0.613660 0.293498 0.353364 -0.202290
C64   C     C_R   0.386339 0.706502 0.646636 -0.202290
H13   H     H_    0.883411 0.667932 0.171842 0.143822
H14   H     H_    0.116589 0.332068 0.828158 0.143822
H15   H     H_    0.616589 0.167939 0.328155 0.143823
H16   H     H_    0.383411 0.832061 0.671845 0.143823
C65   C     C_R   0.854076 0.943572 0.150475 -0.059947
C66   C     C_R   0.145924 0.056428 0.849525 -0.059947
C67   C     C_R   0.645923 0.443576 0.349525 -0.059945
C68   C     C_R   0.354077 0.556424 0.650475 -0.059945
C69   C     C_R   0.966391 0.851280 0.994046 -0.258873
C70   C     C_R   0.033609 0.148720 0.005954 -0.258873
C71   C     C_R   0.533608 0.351275 0.505951 -0.258867
C72   C     C_R   0.466392 0.648725 0.494049 -0.258866
H17   H     H_    0.940133 0.736588 0.988332 0.184291
H18   H     H_    0.059867 0.263412 0.011668 0.184291
H19   H     H_    0.559865 0.236579 0.511663 0.184296
H20   H     H_    0.440135 0.763420 0.488337 0.184296
C73   C     C_R   0.000519 0.866620 0.955553 0.620220
C74   C     C_R   0.999481 0.133380 0.044447 0.620221
C75   C     C_R   0.499480 0.366612 0.544444 0.620220
C76   C     C_R   0.500520 0.633388 0.455556 0.620220
C77   C     C_R   0.034554 0.015691 0.961135 -0.126001
C78   C     C_R   0.965446 0.984309 0.038865 -0.126001
C79   C     C_R   0.465446 0.515688 0.538865 -0.126003
C80   C     C_R   0.534554 0.484312 0.461134 -0.126002
F1    F     F_    0.076543 0.067259 0.375960 -0.605492
F2    F     F_    0.923457 0.932741 0.624040 -0.605493
F3    F     F_    0.423439 0.566833 0.124043 -0.605512
F4    F     F_    0.576561 0.433166 0.875957 -0.605512
F5    F     F_    0.999332 0.738741 0.911703 -0.694806
F6    F     F_    0.000668 0.261259 0.088297 -0.694806
F7    F     F_    0.500666 0.238724 0.588291 -0.694810
F8    F     F_    0.499334 0.761275 0.411709 -0.694810
F9    F     F_    0.907219 0.088479 0.363540 -0.631000
F10   F     F_    0.092781 0.911520 0.636460 -0.631000
F11   F     F_    0.592763 0.588300 0.136487 -0.631008
F12   F     F_    0.407237 0.411701 0.863513 -0.631008
N1    N     N_2   0.156492 0.218468 0.439803 -0.443490
H21   H     H_    0.194395 0.197760 0.442114 0.245920
C81   C     C_3   0.141980 0.409091 0.425980 -0.382593
H22   H     H_    0.155353 0.453150 0.385132 0.205795
H23   H     H_    0.158977 0.501227 0.463699 0.153923
H24   H     H_    0.100483 0.423943 0.417355 0.219649
N2    N     N_2   0.843508 0.781533 0.560196 -0.443490
H25   H     H_    0.805604 0.802242 0.557886 0.245920
C82   C     C_3   0.858020 0.590910 0.574020 -0.382592
H26   H     H_    0.844647 0.546851 0.614868 0.205795
H27   H     H_    0.899516 0.576056 0.582645 0.219648
H28   H     H_    0.841022 0.498774 0.536301 0.153922
N3    N     N_2   0.343479 0.718055 0.060227 -0.443507
H29   H     H_    0.305577 0.697286 0.057905 0.245916
C83   C     C_3   0.357974 0.908666 0.074101 -0.382543
H30   H     H_    0.344592 0.952590 0.114957 0.205780
H31   H     H_    0.340972 0.000873 0.036403 0.153931
H32   H     H_    0.399469 0.923568 0.082735 0.219669
N4    N     N_2   0.656521 0.281940 0.939774 -0.443507
H33   H     H_    0.694423 0.302707 0.942095 0.245916
C84   C     C_3   0.642025 0.091330 0.925900 -0.382543
H34   H     H_    0.655407 0.047404 0.885043 0.205781
H35   H     H_    0.600530 0.076430 0.917266 0.219669
H36   H     H_    0.659026 0.999123 0.963598 0.153931
F13   F     F_    0.984691 0.935340 0.366289 -0.585659
F14   F     F_    0.015308 0.064659 0.633711 -0.585659
F15   F     F_    0.515301 0.435033 0.133695 -0.585673
F16   F     F_    0.484699 0.564968 0.866305 -0.585673
N5    N     N_2   0.957951 0.655655 0.112410 -0.519624
H37   H     H_    0.942993 0.528370 0.119903 0.292488
C85   C     C_3   0.006578 0.685066 0.150632 -0.352340
H38   H     H_    0.031599 0.566333 0.146360 0.241523
H39   H     H_    0.002660 0.696480 0.198155 0.211581
H40   H     H_    0.024449 0.812954 0.137524 0.191893
N6    N     N_2   0.042048 0.344345 0.887590 -0.519624
H41   H     H_    0.057007 0.471630 0.880097 0.292488
C86   C     C_3   0.993422 0.314934 0.849368 -0.352340
H42   H     H_    0.968401 0.433667 0.853640 0.241523
H43   H     H_    0.975551 0.187046 0.862476 0.191893
H44   H     H_    0.997340 0.303520 0.801845 0.211581
N7    N     N_2   0.542049 0.155662 0.387587 -0.519623
H45   H     H_    0.557007 0.028377 0.380094 0.292486
C87   C     C_3   0.493422 0.185076 0.349366 -0.352343
H46   H     H_    0.468402 0.066341 0.353635 0.241516
H47   H     H_    0.497340 0.196498 0.301843 0.211596
H48   H     H_    0.475550 0.312961 0.362475 0.191895
N8    N     N_2   0.457951 0.844338 0.612413 -0.519623
H49   H     H_    0.442993 0.971623 0.619906 0.292486
C88   C     C_3   0.506578 0.814924 0.650634 -0.352343
H50   H     H_    0.531598 0.933659 0.646365 0.241516
H51   H     H_    0.524450 0.687039 0.637525 0.191895
H52   H     H_    0.502660 0.803502 0.698157 0.211596

loop_
_geom_bond_atom_site_label_1
_geom_bond_atom_site_label_2
_ccdc_geom_bond_type
O17   V3    S    
C51   H11   S    
N6    H41   S    
O1    C5    A    
C84   H34   S    
C23   F12   S    
N4    C84   S    
C9    C21   A    
C14   N2    S    
O12   C8    A    
C24   F11   S    
C63   H15   S    
C49   C53   A    
C10   C18   A    
C64   H16   S    
C40   F16   S    
C11   C23   A    
C70   C74   A    
C82   H26   S    
C88   H50   S    
C25   C33   A    
C33   C38   A    
C85   H39   S    
C5    C12   S    
C86   H42   S    
C39   F15   S    
C6    C11   S    
N6    C86   S    
C21   F10   S    
C26   C30   A    
C36   C39   A    
C37   F13   S    
C40   C44   A    
O2    V4    S    
O9    V1    S    
O10   V2    S    
C14   C18   A    
N3    C83   S    
C70   C77   A    
O4    C8    A    
C81   H24   S    
C59   C63   A    
C69   C78   A    
C88   H51   S    
O19   V1    S    
C53   C78   S    
C58   C62   A    
N2    H25   S    
O1    V3    S    
O13   V1    S    
C31   C43   A    
C20   H3    S    
C71   C75   A    
C74   C78   A    
C83   H32   S    
O3    V1    S    
C73   C77   A    
C28   C36   A    
C2    C68   S    
C1    O15   A    
C15   C31   A    
C2    O16   A    
C16   C32   A    
C3    C65   S    
C75   F7    S    
C83   H30   S    
C16   N4    S    
C10   C22   A    
C11   C19   A    
C44   F4    S    
C16   C20   A    
C69   H17   S    
C87   H48   S    
C13   C29   A    
C34   C37   A    
O11   C7    A    
O15   V3    S    
C35   C36   A    
C48   C68   A    
C13   N1    S    
C53   C57   A    
C48   C52   A    
C46   C50   A    
C45   C49   A    
C82   H27   S    
C59   N7    S    
C54   C58   A    
C85   H40   S    
O5    V1    S    
C86   H43   S    
C56   C60   A    
C39   C43   A    
C64   C68   A    
O7    V3    S    
C38   C42   A    
C69   C73   A    
O8    V4    S    
C52   H12   S    
C47   C67   A    
C72   C79   A    
C15   N3    S    
C56   C79   S    
C85   H38   S    
C72   C76   A    
O18   V4    S    
C88   H52   S    
C15   C19   A    
N7    C87   S    
O3    C7    A    
C50   H10   S    
C55   C59   A    
C18   H1    S    
C42   F2    S    
C76   C80   A    
C41   F1    S    
C84   H35   S    
O7    C3    A    
N8    H49   S    
O5    C1    A    
C74   F6    S    
C43   F3    S    
C58   N6    S    
C46   C66   A    
N1    C81   S    
C45   C65   A    
C14   C30   A    
C21   C25   A    
O8    C4    A    
C7    C10   S    
C61   H13   S    
C29   C41   A    
C35   C40   A    
C26   C34   A    
O9    C5    A    
O14   V2    S    
O6    V2    S    
C84   H36   S    
C55   C80   S    
C54   C77   S    
C12   C20   A    
C27   C35   A    
C60   N8    S    
C51   C55   A    
C57   C61   A    
C72   H20   S    
C82   H28   S    
C73   F5    S    
O16   V4    S    
C86   H44   S    
N2    C82   S    
C19   H4    S    
C70   H18   S    
C3    O13   A    
C71   C80   A    
C76   F8    S    
C48   H8    S    
C50   C54   A    
O6    C2    A    
C23   C27   A    
C81   H22   S    
O11   V3    S    
C30   C42   A    
C75   C79   A    
O12   V4    S    
C63   C67   A    
N1    H21   S    
C22   C26   A    
C8    C9    S    
C62   C66   A    
C9    C17   A    
O10   C6    A    
N8    C88   S    
C61   C65   A    
C62   H14   S    
O2    C6    A    
C22   F9    S    
C4    C66   S    
C81   H23   S    
C47   C51   A    
C33   C34   A    
C38   F14   S    
C25   C29   A    
C60   C64   A    
O20   V2    S    
C32   C44   A    
C12   C24   A    
C27   C31   A    
C83   H31   S    
C13   C17   A    
O4    V2    S    
C57   N5    S    
C87   H46   S    
C37   C41   A    
N5    H37   S    
C24   C28   A    
N5    C85   S    
N7    H45   S    
C46   H6    S    
C4    O14   A    
N4    H33   S    
C45   H5    S    
C1    C67   S    
C71   H19   S    
C52   C56   A    
N3    H29   S    
C47   H7    S    
C49   H9    S    
C28   C32   A    
C17   H2    S    
C87   H47   S    
