data_mof_unit_26357.cif
_audit_creation_date              2012-12-10T21:26:46-0500
_audit_creation_method            fapswitch 2.2
_symmetry_space_group_name_H-M    P1
_symmetry_Int_Tables_number       1
_space_group_crystal_system       triclinic
_cell_length_a                    10.775771
_cell_length_b                    16.107966
_cell_length_c                    16.633434
_cell_angle_alpha                 85.970155
_cell_angle_beta                  90.915034
_cell_angle_gamma                 90.917938
_cell_volume                      2879.33402375

loop_
_atom_site_label
_atom_site_type_symbol
_atom_type_description
_atom_site_fract_x
_atom_site_fract_y
_atom_site_fract_z
_atom_type_partial_charge
C1    C     C_R   0.495480 0.487879 0.653954 0.920991
C2    C     C_R   0.504708 0.523869 0.259819 -0.059949
C3    C     C_R   0.440481 0.589521 0.219583 -0.326757
C4    C     C_R   0.737193 0.499283 0.499154 0.877678
C5    C     C_R   0.439095 0.599114 0.135628 0.009404
C6    C     C_R   0.417509 0.758735 0.473533 -0.161179
C7    C     C_R   0.408392 0.846091 0.473902 0.340972
C8    C     C_R   0.504591 0.891867 0.509540 0.108566
C9    C     C_R   0.604304 0.847943 0.546624 0.213012
C10   C     C_R   0.608828 0.760309 0.545935 -0.017893
C11   C     C_R   0.579223 0.147378 0.499402 -0.156627
C12   C     C_R   0.408597 0.543633 0.775949 0.457962
C13   C     C_R   0.575713 0.230918 0.521652 0.064434
C14   C     C_R   0.469864 0.111598 0.466885 0.114544
C15   C     C_R   0.386961 0.251833 0.448651 -0.178338
C16   C     C_R   0.501045 0.512447 0.346710 0.864990
C17   C     C_R   0.372620 0.164599 0.439762 0.438591
C18   C     C_R   0.262725 0.501313 0.499296 0.994219
C19   C     C_2   0.063718 0.569620 0.501335 -0.056788
C20   C     C_2   0.133570 0.505949 0.482993 -0.355233
C21   C     C_2   0.935135 0.564410 0.477176 0.282198
C22   C     C_2   0.868585 0.498246 0.507553 0.206748
C23   C     C_R   0.384622 0.537204 0.857881 -0.281844
C24   C     C_R   0.472681 0.479368 0.741395 -0.217111
C25   C     C_2   0.098928 0.636668 0.554636 0.384486
C26   C     C_2   0.364763 0.667530 0.095669 0.415007
C27   C     C_3   0.414340 0.685667 0.743446 0.148618
C28   C     C_3   0.313691 0.750397 0.751097 -0.325899
C29   C     C_3   0.368884 0.838125 0.751716 -0.982811
C30   C     C_2   0.661373 0.259458 0.584865 0.544471
C31   C     C_2   0.699269 0.101859 0.498259 0.471218
C32   C     C_3   0.675792 0.904823 0.660273 0.063974
C33   C     C_3   0.787384 0.948147 0.697718 -0.315325
C34   C     C_R   0.427554 0.469671 0.906969 0.228594
C35   C     C_3   0.762417 0.967309 0.784476 -0.881895
C36   C     C_2   0.716285 0.717945 0.585547 0.512701
C37   C     C_3   0.209538 0.881555 0.494867 0.103105
C38   C     C_3   0.099392 0.930658 0.458942 -0.331355
C39   C     C_3   0.988480 0.923856 0.514942 -0.912512
C40   C     C_3   0.172613 0.180106 0.377304 0.050633
C41   C     C_3   0.090989 0.203868 0.446854 -0.379659
C42   C     C_3   0.990243 0.264423 0.416718 -0.797549
C43   C     C_3   0.937431 0.647697 0.358232 0.083058
C44   C     C_3   0.012934 0.728991 0.357977 -0.358121
C45   C     C_R   0.482123 0.401623 0.873400 -0.071544
C46   C     C_3   0.070604 0.751158 0.275934 -0.928879
C47   C     C_3   0.912473 0.440142 0.633525 0.077878
C48   C     C_3   0.977732 0.367950 0.680199 -0.298650
C49   C     C_3   0.972027 0.375641 0.770977 -0.906392
C50   C     C_2   0.661467 0.427030 0.089116 0.474551
C51   C     C_2   0.522361 0.328245 0.926604 0.470147
C52   C     C_2   0.576519 0.340224 0.755354 0.423660
C53   C     C_R   0.507419 0.407203 0.790100 -0.182707
C54   C     C_R   0.579318 0.480415 0.133653 -0.036228
C55   C     C_R   0.575627 0.470660 0.217420 -0.192551
C56   C     C_R   0.504583 0.541799 0.092595 0.212650
H1    H     H_    0.336764 0.587014 0.884375 0.202652
H2    H     H_    0.475264 0.684084 0.798491 0.115908
H3    H     H_    0.247051 0.748646 0.699555 0.256214
H4    H     H_    0.262134 0.735384 0.807743 0.234572
H5    H     H_    0.440244 0.841478 0.800373 0.280740
H6    H     H_    0.411345 0.856273 0.692588 0.241971
H7    H     H_    0.294307 0.882754 0.762081 0.281452
H8    H     H_    0.674259 0.324187 0.593375 0.084923
H9    H     H_    0.702262 0.038603 0.480573 0.111308
H10   H     H_    0.657718 0.844671 0.695859 0.135776
H11   H     H_    0.593771 0.945583 0.663337 0.172635
H12   H     H_    0.319256 0.295873 0.424990 0.164415
H13   H     H_    0.869558 0.907384 0.696848 0.216435
H14   H     H_    0.808496 0.007285 0.661637 0.267126
H15   H     H_    0.682241 0.009585 0.786502 0.285405
H16   H     H_    0.845387 0.998288 0.810057 0.271928
H17   H     H_    0.742435 0.908915 0.821906 0.256320
H18   H     H_    0.808962 0.743765 0.576245 0.064365
H19   H     H_    0.239378 0.909055 0.551943 0.147250
H20   H     H_    0.179509 0.815712 0.508573 0.115437
H21   H     H_    0.126874 0.997145 0.448428 0.270023
H22   H     H_    0.072000 0.906918 0.400039 0.228707
H23   H     H_    0.093965 0.456379 0.448909 0.154309
H24   H     H_    0.957896 0.857867 0.525323 0.261795
H25   H     H_    0.910376 0.960191 0.487021 0.293335
H26   H     H_    0.013263 0.949161 0.573598 0.264356
H27   H     H_    0.112740 0.144933 0.336161 0.184906
H28   H     H_    0.207197 0.234634 0.338985 0.138571
H29   H     H_    0.046772 0.146638 0.475444 0.264386
H30   H     H_    0.147412 0.233040 0.493914 0.224242
H31   H     H_    0.032725 0.321973 0.387646 0.235256
H32   H     H_    0.934137 0.281623 0.468276 0.308331
H33   H     H_    0.927909 0.235205 0.372601 0.266442
H34   H     H_    0.344695 0.724036 0.444699 0.166823
H35   H     H_    0.862803 0.655224 0.311534 0.173251
H36   H     H_    0.996842 0.596191 0.339937 0.121335
H37   H     H_    0.951362 0.780079 0.373307 0.234534
H38   H     H_    0.088678 0.722962 0.403799 0.207261
H39   H     H_    0.134216 0.701348 0.260229 0.251847
H40   H     H_    0.124733 0.810241 0.277941 0.280409
H41   H     H_    0.997044 0.759427 0.228638 0.268171
H42   H     H_    0.813153 0.439586 0.650960 0.112978
H43   H     H_    0.957103 0.499593 0.650132 0.171208
H44   H     H_    0.932883 0.308241 0.665239 0.254160
H45   H     H_    0.629427 0.422560 0.250029 0.192738
H46   H     H_    0.076572 0.367235 0.662064 0.239831
H47   H     H_    0.019197 0.434040 0.787410 0.272916
H48   H     H_    0.019635 0.322078 0.803036 0.280578
H49   H     H_    0.874045 0.375611 0.790722 0.249675
H50   H     H_    0.674933 0.439657 0.024905 0.051745
H51   H     H_    0.598571 0.290257 0.909708 0.096543
H52   H     H_    0.660445 0.355613 0.722529 0.037120
H53   H     H_    0.388190 0.631608 0.253767 0.149200
H54   H     H_    0.047162 0.694069 0.550480 0.045832
H55   H     H_    0.308653 0.705619 0.131832 0.059972
H56   H     H_    0.473309 0.705565 0.691278 0.184170
N1    N     N_2   0.434051 0.475339 0.990869 -0.122272
N2    N     N_2   0.487160 0.540936 0.008867 -0.163985
N3    N     N_R   0.515110 0.716920 0.509720 -0.128905
N4    N     N_2   0.501843 0.980121 0.516305 -0.172144
N5    N     N_2   0.457830 0.023500 0.457537 -0.067623
N6    N     N_R   0.484890 0.283060 0.490290 -0.159849
O1    O     O_R   0.494590 0.422540 0.612660 -0.648049
O2    O     O_2   0.366020 0.683230 0.022809 -0.571346
O3    O     O_3   0.357219 0.608407 0.727997 -0.576295
O4    O     O_2   0.711924 0.209913 0.633283 -0.547810
O5    O     O_2   0.798637 0.136264 0.510844 -0.583124
O6    O     O_3   0.702350 0.891411 0.579433 -0.654529
O7    O     O_2   0.702424 0.657727 0.633264 -0.609721
O8    O     O_3   0.306645 0.885957 0.438684 -0.598436
O9    O     O_3   0.269074 0.126395 0.405246 -0.628562
O10   O     O_3   0.879386 0.631143 0.433653 -0.658970
O11   O     O_3   0.923395 0.430815 0.550164 -0.674037
O12   O     O_R   0.504290 0.561850 0.618900 -0.520767
O13   O     O_2   0.716212 0.368719 0.123675 -0.560139
O14   O     O_2   0.469518 0.308632 0.989675 -0.531818
O15   O     O_2   0.539604 0.268076 0.762934 -0.535044
O16   O     O_R   0.676080 0.430360 0.496880 -0.653191
O17   O     O_R   0.685780 0.569670 0.503120 -0.558532
O18   O     O_R   0.495710 0.438150 0.381100 -0.615576
O19   O     O_R   0.505410 0.577460 0.387340 -0.616906
O20   O     O_R   0.314220 0.430330 0.496880 -0.636144
O21   O     O_R   0.323920 0.569640 0.503120 -0.583664
O22   O     O_2   0.177760 0.626381 0.607568 -0.531444
Zn1   Zn    Zn3+2 0.493520 0.406980 0.495830 0.941553
Zn2   Zn    Zn3+2 0.506480 0.593020 0.504170 1.018273

loop_
_geom_bond_atom_site_label_1
_geom_bond_atom_site_label_2
_ccdc_geom_bond_type
O19   Zn2   S    
C29   H7    S    
C40   C41   S    
C30   H8    S    
C41   C42   S    
C40   H28   S    
C5    C56   A    
C16   O19   A    
C40   H27   S    
N6    Zn1   S    
C49   H48   S    
C13   N6    A    
C27   O3    S    
C7    C8    A    
C34   N1    S    
C41   H30   S    
C12   C23   A    
C50   C54   S    
C47   H42   S    
C47   O11   S    
C4    O16   A    
C28   C29   S    
C19   C21   S    
C26   O2    D    
N1    N2    D    
C2    C55   A    
C38   C39   S    
C11   C14   A    
C45   C51   S    
C9    O6    S    
C47   H43   S    
N4    N5    D    
C23   H1    S    
C1    O1    A    
C18   O20   A    
C32   O6    S    
C44   H37   S    
C33   C35   S    
C54   C55   A    
O17   Zn2   S    
C12   O3    S    
C36   O7    D    
C8    C9    A    
C2    C16   S    
C9    C10   A    
C11   C31   S    
C33   H13   S    
C23   C34   A    
C37   H19   S    
N3    Zn2   S    
C45   C53   A    
C21   C22   D    
C52   O15   D    
C14   C17   A    
C19   C25   S    
C44   C46   S    
C54   C56   A    
C28   H4    S    
C48   H44   S    
C29   H5    S    
C46   H39   S    
C30   O4    D    
C13   C30   S    
C25   O22   D    
C39   H25   S    
C1    O12   A    
C17   O9    S    
C49   H49   S    
C38   H22   S    
C24   C53   A    
C6    H34   S    
C40   O9    S    
O20   Zn1   S    
C43   H35   S    
C43   C44   S    
C49   H47   S    
C37   C38   S    
C4    C22   S    
C47   C48   S    
C14   N5    S    
C48   H46   S    
C34   C45   A    
C21   O10   S    
C36   H18   S    
C33   H14   S    
C4    O17   A    
C25   H54   S    
C48   C49   S    
C46   H41   S    
C35   H16   S    
C32   H11   S    
C22   O11   S    
O1    Zn1   S    
C42   H32   S    
C16   O18   A    
C52   C53   S    
C32   H10   S    
C37   O8    S    
C28   H3    S    
C31   H9    S    
C55   H45   S    
C29   H6    S    
C35   H17   S    
C20   H23   S    
C37   H20   S    
C39   H26   S    
C3    C5    A    
C27   H2    S    
C43   O10   S    
C27   H56   S    
C51   O14   D    
C15   C17   A    
C6    C7    A    
C38   H21   S    
C41   H29   S    
C12   C24   A    
C43   H36   S    
C15   N6    A    
C42   H33   S    
C39   H24   S    
C19   C20   D    
C2    C3    A    
C31   O5    D    
C32   C33   S    
O16   Zn1   S    
C11   C13   A    
C3    H53   S    
C15   H12   S    
O21   Zn2   S    
O18   Zn1   S    
C18   C20   S    
C7    O8    S    
C18   O21   A    
O12   Zn2   S    
C6    N3    A    
C44   H38   S    
C50   O13   D    
C8    N4    S    
C35   H15   S    
C5    C26   S    
C46   H40   S    
C52   H52   S    
C1    C24   S    
C51   H51   S    
C27   C28   S    
C50   H50   S    
C56   N2    S    
C10   C36   S    
C42   H31   S    
C26   H55   S    
C10   N3    A    
