data_mof_unit_28110.cif
_audit_creation_date              2013-03-05T16:03:34-0500
_audit_creation_method            fapswitch 2.2
_symmetry_space_group_name_H-M    P1
_symmetry_Int_Tables_number       1
_space_group_crystal_system       triclinic
_cell_length_a                    8.670374
_cell_length_b                    14.590787
_cell_length_c                    22.589328
_cell_angle_alpha                 93.410759
_cell_angle_beta                  89.327768
_cell_angle_gamma                 93.638661
_cell_volume                      2846.81788081

loop_
_atom_site_label
_atom_site_type_symbol
_atom_site_description
_atom_site_fract_x
_atom_site_fract_y
_atom_site_fract_z
_atom_type_partial_charge
P1    P     P_3+3 0.074990 0.420800 0.372080 0.615209
O1    O     O_2   0.901900 0.448470 0.362340 -0.302047
O2    O     O_3   0.142240 0.449440 0.433360 -0.375932
O3    O     O_3   0.645560 0.619080 0.391970 -0.350392
O4    O     O_2   0.755269 0.532353 0.295542 -0.313688
O5    O     O_3   0.120853 0.310137 0.342255 -0.648345
O6    O     O_3   0.699605 0.700993 0.280583 -0.549250
C1    C     C_3   0.603205 0.841807 0.242794 0.537070
P2    P     P_3+3 0.618830 0.715330 0.538180 0.540458
P3    P     P_3+3 0.093943 0.785613 0.417385 0.622876
O7    O     O_2   0.793170 0.729090 0.520590 -0.365207
O8    O     O_3   0.052800 0.667320 0.419180 -0.389475
O9    O     O_2   0.972487 0.830355 0.458516 -0.301880
O10   O     O_3   0.623583 0.735912 0.615227 -0.515298
O11   O     O_3   0.046100 0.818935 0.346753 -0.383733
C2    C     C_3   0.107319 0.759207 0.302378 0.202957
H1    H     H_    0.081699 0.686220 0.312525 0.015361
H2    H     H_    0.233614 0.771631 0.298430 0.083123
C3    C     C_3   0.029887 0.772010 0.243008 0.329682
H3    H     H_    0.018215 0.705135 0.217253 0.074945
H4    H     H_    0.912517 0.791691 0.252060 0.152048
C4    C     C_3   0.227414 0.748502 0.666889 0.664382
H5    H     H_    0.333801 0.712062 0.671970 0.109557
C5    C     C_3   0.144583 0.762962 0.727176 -0.165343
H6    H     H_    0.036952 0.797976 0.720490 0.159045
H7    H     H_    0.112954 0.695979 0.745113 0.103139
Ba1   Ba    Ba6+2 0.846250 0.544220 0.470860 1.728799
C6    C     C_3   0.001522 0.242483 0.329492 1.225456
C7    C     C_3   0.070756 0.158668 0.298726 -0.818212
H8    H     H_    0.126276 0.175399 0.255829 0.247784
H9    H     H_    0.981533 0.101866 0.290224 0.300967
H10   H     H_    0.153271 0.131286 0.327500 0.277249
C8    C     C_3   0.705152 0.669885 0.641399 0.207560
H11   H     H_    0.816850 0.660915 0.618058 0.093626
H12   H     H_    0.636095 0.603258 0.638812 0.106908
C9    C     C_3   0.742116 0.703912 0.705795 -0.111048
H13   H     H_    0.850166 0.675011 0.718864 0.032106
H14   H     H_    0.762243 0.780032 0.708536 0.200450
P4    P     P_3+3 0.114710 0.579280 0.627920 0.467578
O12   O     O_2   0.287790 0.551560 0.637690 -0.352466
O13   O     O_3   0.047460 0.550640 0.566640 -0.358514
O14   O     O_3   0.544140 0.380990 0.608030 -0.442267
O15   O     O_3   0.125789 0.700719 0.625287 -0.620834
P5    P     P_3+3 0.100104 0.215647 0.596196 0.533284
O16   O     O_3   0.640350 0.387150 0.474440 -0.340534
O17   O     O_3   0.136890 0.332750 0.580830 -0.306019
O18   O     O_2   0.224127 0.168437 0.557634 -0.409800
O19   O     O_3   0.163857 0.199139 0.669354 -0.607744
Ba2   Ba    Ba6+2 0.343570 0.455860 0.529140 1.718452
P6    P     P_3+3 0.632556 0.600242 0.314411 0.574043
C10   C     C_3   0.599239 0.772344 0.293191 0.507254
H15   H     H_    0.478218 0.743192 0.295491 -0.139023
H16   H     H_    0.487984 0.869100 0.244903 0.069599
O20   O     O_3   0.549340 0.612930 0.525560 -0.395472
C11   C     C_3   0.461899 0.269746 0.358566 0.342180
H17   H     H_    0.347856 0.254895 0.379035 0.144226
H18   H     H_    0.483210 0.345494 0.356620 0.072385
C12   C     C_3   0.457686 0.221542 0.296156 -0.027595
H19   H     H_    0.370377 0.164386 0.291886 0.090957
H20   H     H_    0.562683 0.185742 0.288411 0.252644
P7    P     P_3+3 0.572767 0.269286 0.466212 0.593686
O21   O     O_2   0.396530 0.270940 0.479440 -0.376056
O22   O     O_3   0.580150 0.233735 0.390738 -0.468253
C13   C     C_3   0.056562 0.187991 0.717850 0.793660
C14   C     C_3   0.022000 0.085227 0.730817 -0.112269
H21   H     H_    0.131842 0.052785 0.736222 0.184093
H22   H     H_    0.961059 0.080062 0.774156 0.181510
P8    P     P_3+3 0.553996 0.396775 0.684730 0.573247
C15   C     C_3   0.530616 0.219789 0.666937 0.432763
H23   H     H_    0.645187 0.219132 0.645059 0.072262
O23   O     O_2   0.400444 0.438572 0.703276 -0.327100
O24   O     O_3   0.535783 0.287666 0.714210 -0.422814
H24   H     H_    0.442003 0.232121 0.633834 0.129049
H25   H     H_    0.557232 0.113593 0.729510 0.299224
C16   C     C_3   0.491255 0.124337 0.689017 -0.540714
H26   H     H_    0.515162 0.071436 0.653284 0.224277
H27   H     H_    0.368027 0.113581 0.699701 0.244348
H28   H     H_    0.036048 0.276886 0.053003 0.185676
H29   H     H_    0.942036 0.275571 0.951917 0.198105
C17   C     C_R   0.334561 0.527842 0.332686 -0.534130
C18   C     C_R   0.056264 0.586418 0.940873 -0.074368
C19   C     C_R   0.014659 0.583071 0.880304 0.577169
O25   O     O_2   0.025846 0.653369 0.853367 -0.548396
N1    N     N_R   0.958218 0.501274 0.851748 -0.180224
C20   C     C_R   0.938233 0.422447 0.883203 0.632875
O26   O     O_2   0.875161 0.352694 0.859700 -0.477316
C21   C     C_R   0.989502 0.421942 0.942396 -0.094628
C22   C     C_R   0.046673 0.504823 0.971583 -0.005796
C23   C     C_R   0.106956 0.669439 0.971569 -0.062693
C24   C     C_R   0.146666 0.671356 0.031477 -0.028562
C25   C     C_R   0.141119 0.589912 0.062177 -0.058483
C26   C     C_R   0.093189 0.506282 0.031907 0.012913
C27   C     C_R   0.984927 0.340557 0.973159 -0.005202
C28   C     C_R   0.038959 0.341287 0.031384 -0.065867
C29   C     C_R   0.093022 0.424066 0.061613 -0.126459
C30   C     C_R   0.149089 0.426501 0.120464 0.673788
N2    N     N_R   0.187582 0.509749 0.151435 -0.170517
C31   C     C_R   0.182540 0.590449 0.122473 0.588786
C32   C     C_2   0.767326 0.473699 0.773116 -0.021319
C33   C     C_3   0.719194 0.479243 0.709580 0.176045
C34   C     C_1   0.990029 0.523934 0.684958 0.167461
C35   C     C_2   0.030695 0.524447 0.741818 -0.244563
C36   C     C_2   0.914372 0.498945 0.789373 0.155000
C37   C     C_R   0.400483 0.532970 0.227040 0.330133
C38   C     C_R   0.441581 0.550580 0.288087 0.080086
C39   C     C_R   0.183595 0.496114 0.319108 0.326215
C40   C     C_R   0.134314 0.499824 0.259962 -0.232765
C41   C     C_R   0.241249 0.513705 0.212997 0.039780
O27   O     O_2   0.168492 0.354428 0.143137 -0.459279
O28   O     O_2   0.215081 0.663405 0.149275 -0.538102
C42   C     C_2   0.855433 0.484281 0.666852 -0.333990
H30   H     H_    0.183978 0.736859 0.053500 0.212156
H31   H     H_    0.114902 0.733480 0.949474 0.199458
H32   H     H_    0.150684 0.539547 0.754101 0.195762
H33   H     H_    0.679998 0.457558 0.806388 0.159510
H34   H     H_    0.013581 0.488167 0.249887 0.210136
H35   H     H_    0.372177 0.529781 0.378282 0.176809
H36   H     H_    0.839356 0.458915 0.621046 0.159369
C43   C     C_R   0.698666 0.937028 0.532112 0.011789
C44   C     C_R   0.517666 0.802194 0.499567 0.326006
C45   C     C_R   0.379753 0.770470 0.471453 -0.426380
C46   C     C_R   0.285839 0.830540 0.445560 0.094734
C47   C     C_R   0.330620 0.925041 0.446698 0.445452
C48   C     C_R   0.459997 0.960256 0.480873 -0.022972
C49   C     C_R   0.560540 0.898877 0.504497 0.006631
H37   H     H_    0.342577 0.698174 0.470953 0.161302
C50   C     C_R   0.631351 0.093550 0.514090 -0.066652
C51   C     C_R   0.736579 0.033271 0.535313 0.102611
C52   C     C_R   0.669836 0.190041 0.515381 0.204664
C53   C     C_R   0.804154 0.224924 0.545636 -0.324681
C54   C     C_R   0.909152 0.166053 0.567638 0.231349
C55   C     C_R   0.878366 0.070305 0.559178 -0.214627
C56   C     C_R   0.491329 0.055764 0.491180 -0.020683
H38   H     H_    0.965056 0.024858 0.571343 0.185118
H39   H     H_    0.833333 0.298277 0.547980 0.168622
H40   H     H_    0.778306 0.892997 0.550894 0.154165
H41   H     H_    0.402742 0.101609 0.484372 0.208151
N3    N     N_R   0.636678 0.819833 0.350523 0.212126
O29   O     O_R   0.575030 0.896193 0.366286 -0.397899
O30   O     O_R   0.742096 0.791432 0.383925 -0.289849
N4    N     N_R   0.239715 0.817132 0.771143 0.305727
O31   O     O_R   0.369601 0.787810 0.788086 -0.271609
O32   O     O_R   0.185511 0.888868 0.799161 -0.287630
S1    S     S_3+6 0.864434 0.274665 0.276201 0.005974
O33   O     O_2   0.793017 0.190067 0.243765 -0.305507
O34   O     O_2   0.741645 0.330749 0.303875 -0.299303
O35   O     O_3   0.956297 0.334063 0.224328 -0.509009
H42   H     H_    0.874261 0.348945 0.196922 0.392095
S2    S     S_3+6 0.932455 0.207159 0.398695 -0.010228
O36   O     O_2   0.877022 0.289781 0.432170 -0.326968
O37   O     O_2   0.810217 0.129543 0.391912 -0.248954
O38   O     O_3   0.083142 0.174432 0.436327 -0.513656
H43   H     H_    0.038382 0.129441 0.463608 0.377115
S3    S     S_3+6 0.727170 0.945981 0.252263 0.074777
O39   O     O_2   0.628578 0.022524 0.273136 -0.273172
O40   O     O_2   0.850002 0.938371 0.297614 -0.184787
O41   O     O_3   0.809177 0.972835 0.187223 -0.400724
H44   H     H_    0.859454 0.035175 0.194443 0.397679
N5    N     N_R   0.623202 0.677741 0.749106 0.272149
O42   O     O_R   0.498827 0.627842 0.733930 -0.402174
O43   O     O_R   0.649485 0.697850 0.805098 -0.295563
N6    N     N_R   0.436587 0.284984 0.249906 0.252282
O44   O     O_R   0.308468 0.325658 0.247606 -0.362272
O45   O     O_R   0.534039 0.290317 0.205859 -0.261299
S4    S     S_3+6 0.620573 0.789318 0.168979 0.085817
O46   O     O_2   0.775364 0.751331 0.157839 -0.240941
O47   O     O_2   0.500013 0.712174 0.160619 -0.248705
O48   O     O_3   0.591343 0.867402 0.119079 -0.414478
H45   H     H_    0.589310 0.832240 0.080182 0.383464
S5    S     S_3+6 0.118633 0.858465 0.197781 0.071037
O49   O     O_2   0.281296 0.838250 0.182787 -0.247934
O50   O     O_2   0.031907 0.858364 0.140639 -0.185632
O51   O     O_3   0.116706 0.963560 0.231967 -0.474680
H46   H     H_    0.170956 0.005208 0.204364 0.368725
S6    S     S_3+6 0.153200 0.238754 0.783806 0.054378
O52   O     O_2   0.059694 0.215895 0.837959 -0.234185
O53   O     O_2   0.309724 0.202454 0.790199 -0.233979
O54   O     O_3   0.174363 0.353257 0.781078 -0.474016
H47   H     H_    0.161074 0.364061 0.738765 0.366623
N7    N     N_R   0.912814 0.234389 0.712518 0.200731
O55   O     O_R   0.909950 0.306118 0.681587 -0.491667
O56   O     O_R   0.806330 0.223143 0.752977 -0.323897
N8    N     N_R   0.925235 0.032938 0.686935 0.244077
O57   O     O_R   0.951346 0.947684 0.673032 -0.387169
O58   O     O_R   0.787622 0.058457 0.678251 -0.435373
N9    N     N_R   0.516142 0.526027 0.180322 0.272448
O59   O     O_R   0.656303 0.561714 0.187158 -0.304342
O60   O     O_R   0.486120 0.475694 0.131868 -0.348354
S7    S     S_3+6 0.258149 0.989346 0.390250 0.005020
O61   O     O_2   0.086660 0.995269 0.397124 -0.192286
O62   O     O_2   0.336028 0.083658 0.389560 -0.362221
O63   O     O_3   0.295533 0.935406 0.324691 -0.496013
H48   H     H_    0.345518 0.983167 0.300325 0.399284
S8    S     S_3+6 0.284447 0.858750 0.637989 0.003144
O64   O     O_2   0.248086 0.936651 0.680613 -0.271811
O65   O     O_2   0.454933 0.868127 0.627576 -0.271046
O66   O     O_3   0.193663 0.870653 0.573831 -0.550835
H49   H     H_    0.081985 0.862410 0.583114 0.372169

loop_
_geom_bond_atom_site_label_1
_geom_bond_atom_site_label_2
_geom_bond_distance
_ccdc_geom_bond_type
S8    O65   1.493001 D    
C21   C22   1.406954 A    
C56   H41   1.068308 S    
O41   H44   0.988769 S    
C31   O28   1.211805 D    
C15   O24   1.411681 S    
C32   C36   1.353257 D    
C29   C30   1.418540 A    
C3    S5    1.799652 S    
C24   H30   1.083296 S    
C11   H17   1.101128 S    
O10   C8    1.393515 S    
P8    C33   1.879970 S    
N2    C31   1.383918 Am   
O2    Ba2   2.789417 S    
Ba1   O20   3.043771 S    
C47   C48   1.420647 A    
P4    O13   1.532973 S    
C20   O26   1.220095 D    
N7    O55   1.294151 A    
P5    C54   1.870384 S    
O17   Ba2   2.755562 S    
S4    O46   1.497212 D    
C48   C56   1.408826 A    
C42   H36   1.085506 S    
C6    C7    1.523531 S    
C3    H4    1.088614 S    
C5    H7    1.097745 S    
H29   C27   1.083000 S    
C7    H10   1.082618 S    
P3    O11   1.757160 S    
N4    O32   1.301389 A    
C32   H33   1.085693 S    
C13   N7    1.465100 S    
O19   C13   1.438769 S    
S8    O66   1.680545 S    
S5    O49   1.490135 D    
O66   H49   0.989689 S    
C12   H20   1.085341 S    
O12   Ba2   2.801216 S    
C17   C39   1.391863 A    
C8    C9    1.539499 S    
S7    O62   1.494714 D    
P1    O1    1.599654 D    
P7    O22   1.753924 S    
C9    N5    1.461786 S    
C35   C36   1.511329 S    
N2    C41   1.468316 S    
O5    C6    1.404116 S    
C53   H39   1.082356 S    
P5    O17   1.772118 S    
C2    H1    1.110755 S    
C14   H22   1.111255 S    
C11   O22   1.409519 S    
P6    C38   1.854705 S    
C40   C41   1.415925 A    
N5    O43   1.300726 A    
C15   H24   1.108541 S    
O1    Ba1   2.800758 S    
C6    S1    1.803908 S    
O7    Ba1   2.921405 S    
C47   S7    1.771184 S    
C1    S3    1.808495 S    
Ba2   O20   2.818065 S    
S3    O40   1.500074 D    
C25   C26   1.404351 A    
P5    O18   1.546044 D    
P7    C52   1.891345 S    
P1    C39   1.877444 S    
C18   C23   1.407478 A    
C43   C51   1.419546 A    
Ba1   O16   2.818721 S    
S8    O64   1.492163 D    
C6    S2    1.761456 S    
S4    O47   1.491733 D    
O14   P8    1.736587 S    
C15   H23   1.104651 S    
S1    O35   1.664301 S    
C51   C55   1.410839 A    
O13   Ba2   3.079242 S    
C37   C38   1.432621 A    
N7    O56   1.301327 A    
O54   H47   0.987187 S    
S6    O54   1.673854 S    
N6    O45   1.300436 A    
O2    Ba1   3.078348 S    
C20   C21   1.414597 A    
C2    C3    1.533341 S    
C23   H31   1.083262 S    
H25   C16   1.108686 S    
O8    Ba1   2.754685 S    
O35   H42   0.991098 S    
C10   H15   1.108756 S    
C34   C35   1.335399 D    
C22   C26   1.424200 A    
C5    H6    1.108001 S    
S3    O41   1.681148 S    
S6    O53   1.499360 D    
N3    O29   1.295286 A    
S2    O38   1.676661 S    
C23   C24   1.398546 A    
P4    O12   1.599917 D    
P2    O10   1.748981 S    
C44   C49   1.433989 A    
P4    O15   1.772904 S    
C12   H19   1.090796 S    
O51   H46   0.990573 S    
C17   C38   1.401721 A    
C26   C29   1.408863 A    
C18   C19   1.416288 A    
P1    O5    1.779019 S    
O3    P6    1.761021 S    
P1    O2    1.532975 S    
N6    O44   1.295218 A    
S7    O63   1.673347 S    
C16   H26   1.110199 S    
C50   C52   1.424784 A    
N8    O57   1.298002 A    
C7    H8    1.110223 S    
C35   H32   1.085474 S    
N8    O58   1.292787 A    
C16   H27   1.096181 S    
Ba1   O13   2.788758 S    
N5    O42   1.299935 A    
O16   Ba2   3.042798 S    
C5    N4    1.461005 S    
P8    O24   1.759145 S    
P4    C34   1.860427 S    
C30   N2    1.388931 Am   
C8    H11   1.108581 S    
C45   C46   1.391437 A    
C28   C29   1.407952 A    
C27   C28   1.400586 A    
N1    C20   1.388105 Am   
C13   S6    1.813744 S    
P2    O7    1.562046 D    
C1    C10   1.567275 S    
S3    O39   1.499809 D    
P3    O8    1.742919 S    
C55   H38   1.081653 S    
C43   C49   1.422969 A    
S1    O34   1.492627 D    
O48   H45   0.990534 S    
P4    Ba2   3.468557 S    
C14   H21   1.101274 S    
S4    O48   1.681969 S    
C19   N1    1.386229 Am   
C11   H18   1.112329 S    
C4    C5    1.541752 S    
O4    P6    1.538764 D    
N9    O60   1.300714 A    
C54   C55   1.407689 A    
C12   N6    1.457004 S    
C37   C41   1.426947 A    
O3    Ba1   2.818199 S    
C44   C45   1.399999 A    
P2    Ba1   3.540695 S    
C52   C53   1.408702 A    
C14   N8    1.454949 S    
S7    O61   1.500556 D    
N1    C36   1.461588 S    
C17   H35   1.082265 S    
C9    H13   1.101850 S    
Ba2   O21   2.921626 S    
C50   C56   1.393386 A    
O6    P6    1.760015 S    
S1    O33   1.499977 D    
P3    C46   1.854678 S    
P3    O9    1.546133 D    
C1    H16   1.098172 S    
C50   C51   1.413538 A    
N3    O30   1.295343 A    
C34   C42   1.327125 D    
C37   N9    1.450845 S    
C30   O27   1.218624 D    
C43   H40   1.079435 S    
C32   C33   1.507568 S    
O63   H48   0.988999 S    
C3    H3    1.105488 S    
S2    O37   1.503353 D    
C53   C54   1.405102 A    
N9    O59   1.298587 A    
O6    C10   1.412840 S    
C45   H37   1.082706 S    
C7    H9    1.106967 S    
S6    O52   1.501953 D    
N4    O31   1.299422 A    
C13   C14   1.554680 S    
C9    H14   1.111450 S    
C24   C25   1.409037 A    
S5    O50   1.501339 D    
H28   C28   1.083245 S    
P8    O23   1.542559 D    
O11   C2    1.410058 S    
C21   C27   1.409304 A    
O16   P7    1.781010 S    
C8    H12   1.107771 S    
C15   C16   1.524227 S    
C25   C31   1.412133 A    
P7    O21   1.554956 D    
C40   H34   1.074662 S    
C18   C22   1.410636 A    
C1    S4    1.801758 S    
O14   Ba2   2.817592 S    
C10   N3    1.461946 S    
P5    O19   1.783363 S    
O38   H43   0.985646 S    
C33   C42   1.517577 S    
C2    H2    1.101971 S    
C19   O25   1.221481 D    
C39   C40   1.412632 A    
C11   C12   1.537375 S    
P1    Ba1   3.467937 S    
P2    C44   1.851244 S    
C4    H5    1.103942 S    
C4    S8    1.809637 S    
P2    O20   1.586092 S    
C46   C47   1.407366 A    
S2    O36   1.487502 D    
C4    O15   1.417433 S    
Ba1   Ba2   4.798855 S    
C48   C49   1.419027 A    
S5    O51   1.676317 S    
