data_mof_unit_8587.cif
_audit_creation_date              2012-12-11T13:59:53-0500
_audit_creation_method            fapswitch 2.2
_symmetry_space_group_name_H-M    P1
_symmetry_Int_Tables_number       1
_space_group_crystal_system       triclinic
_cell_length_a                    11.451709
_cell_length_b                    11.451712
_cell_length_c                    18.968834
_cell_angle_alpha                 90.388503
_cell_angle_beta                  89.6116
_cell_angle_gamma                 120.216478
_cell_volume                      2149.54831181

loop_
_atom_site_label
_atom_site_type_symbol
_atom_type_description
_atom_site_fract_x
_atom_site_fract_y
_atom_site_fract_z
_atom_type_partial_charge
C1    C     C_R   0.542619 0.478346 0.852892 0.563700
C2    C     C_R   0.480632 0.545752 0.351784 0.559040
C3    C     C_R   0.064893 0.519192 0.351849 0.558559
C4    C     C_R   0.454283 0.935283 0.351712 0.560165
C5    C     C_2   0.995642 0.485736 0.577965 -0.113561
C6    C     C_2   0.514354 0.508708 0.577928 -0.114318
C7    C     C_2   0.490495 0.005022 0.577612 -0.114105
C8    C     C_2   0.485736 0.995643 0.422035 -0.113561
C9    C     C_2   0.508708 0.514354 0.422072 -0.114319
C10   C     C_2   0.005020 0.490495 0.422386 -0.114106
C11   C     C_2   0.009792 0.394028 0.461701 0.230849
C12   C     C_R   0.520532 0.063448 0.852070 0.573081
C13   C     C_2   0.605551 0.615443 0.461863 0.230956
C14   C     C_2   0.384500 0.990737 0.461963 0.229916
C15   C     C_2   0.394027 0.009793 0.538298 0.230849
C16   C     C_2   0.615443 0.605551 0.538138 0.230959
C17   C     C_2   0.990735 0.384501 0.538037 0.229914
C18   C     C_2   0.998486 0.499197 0.923924 -0.099932
C19   C     C_2   0.497935 0.498993 0.922473 -0.103379
C20   C     C_2   0.497437 0.997262 0.920742 -0.094250
C21   C     C_2   0.499197 0.998485 0.076076 -0.099934
C22   C     C_2   0.498992 0.497933 0.077527 -0.103383
C23   C     C_R   0.934198 0.456635 0.853636 0.571012
C24   C     C_2   0.997261 0.497439 0.079258 -0.094256
C25   C     C_2   0.005548 0.601633 0.042898 0.222031
C26   C     C_2   0.393286 0.406945 0.038816 0.215798
C27   C     C_2   0.593828 0.990131 0.036083 0.210715
C28   C     C_2   0.601629 0.005543 0.957101 0.222033
C29   C     C_2   0.406946 0.393286 0.961183 0.215801
C30   C     C_2   0.990134 0.593830 0.963917 0.210713
C31   C     C_3   0.147932 0.305511 0.440864 0.023069
C32   C     C_3   0.168855 0.214624 0.389396 -0.335426
C33   C     C_3   0.693485 0.841911 0.441248 0.022312
C34   C     C_R   0.478346 0.542618 0.147108 0.563694
C35   C     C_3   0.785039 0.953405 0.390087 -0.334224
C36   C     C_3   0.157632 0.851789 0.441483 0.022929
C37   C     C_3   0.046109 0.831000 0.390583 -0.334795
C38   C     C_3   0.305507 0.147930 0.559136 0.023060
C39   C     C_3   0.214621 0.168853 0.610604 -0.335431
C40   C     C_3   0.841911 0.693489 0.558752 0.022315
C41   C     C_3   0.953401 0.785032 0.609919 -0.334218
C42   C     C_3   0.851786 0.157635 0.558517 0.022930
C43   C     C_3   0.831001 0.046109 0.609413 -0.334794
C44   C     C_3   0.103660 0.831913 0.067153 0.020339
C45   C     C_R   0.063447 0.520532 0.147930 0.573070
C46   C     C_3   0.121608 0.923936 0.130047 -0.334135
C47   C     C_3   0.162787 0.309310 0.049688 0.008419
C48   C     C_3   0.043579 0.200254 0.090288 -0.345323
C49   C     C_3   0.677686 0.851247 0.054827 0.011528
C50   C     C_3   0.789116 0.842582 0.092707 -0.333610
C51   C     C_3   0.831907 0.103643 0.932842 0.020344
C52   C     C_3   0.923918 0.121591 0.869942 -0.334136
C53   C     C_3   0.309293 0.162785 0.950308 0.008414
C54   C     C_3   0.200252 0.043588 0.909696 -0.345332
C55   C     C_3   0.851249 0.677687 0.945173 0.011528
C56   C     C_R   0.456635 0.934197 0.146364 0.571008
C57   C     C_3   0.842584 0.789115 0.907291 -0.333612
C58   C     C_R   0.545752 0.480632 0.648216 0.559042
C59   C     C_R   0.519193 0.064896 0.648150 0.558558
C60   C     C_R   0.935283 0.454283 0.648287 0.560167
Cr1   Cr    Cr6+3 0.464030 0.233680 0.750360 1.010546
Cr2   Cr    Cr6+3 0.766320 0.230350 0.750360 0.992164
Cr3   Cr    Cr6+3 0.769650 0.535970 0.750360 1.006183
Cr4   Cr    Cr6+3 0.233680 0.464030 0.249640 1.010553
Cr5   Cr    Cr6+3 0.230350 0.766320 0.249640 0.992169
Cr6   Cr    Cr6+3 0.535970 0.769650 0.249640 1.006189
H1    H     H_    0.978244 0.560172 0.445478 -0.000122
H2    H     H_    0.401400 0.964913 0.946035 0.013878
H3    H     H_    0.555938 0.597408 0.946684 0.007871
H4    H     H_    0.031694 0.434489 0.946825 0.014186
H5    H     H_    0.157111 0.276592 0.495039 0.149111
H6    H     H_    0.228663 0.412207 0.433084 0.141688
H7    H     H_    0.276262 0.242358 0.386336 0.127482
H8    H     H_    0.112288 0.109647 0.408005 0.131242
H9    H     H_    0.134033 0.220445 0.335737 0.182181
H10   H     H_    0.721098 0.880565 0.495587 0.147154
H11   H     H_    0.586884 0.815089 0.432874 0.141617
H12   H     H_    0.438555 0.417718 0.444710 0.000861
H13   H     H_    0.889839 0.002077 0.408905 0.132764
H14   H     H_    0.779438 0.911927 0.336346 0.182758
H15   H     H_    0.757719 0.033132 0.387082 0.127271
H16   H     H_    0.119110 0.841602 0.495848 0.147843
H17   H     H_    0.183810 0.771630 0.432921 0.142499
H18   H     H_    0.087585 0.867232 0.336971 0.177569
H19   H     H_    0.966584 0.723325 0.387028 0.128241
H20   H     H_    0.997096 0.886518 0.410110 0.133498
H21   H     H_    0.276588 0.157107 0.504961 0.149115
H22   H     H_    0.412201 0.228662 0.566917 0.141692
H23   H     H_    0.582251 0.022451 0.444578 0.001254
H24   H     H_    0.242354 0.276260 0.613663 0.127481
H25   H     H_    0.109644 0.112283 0.591997 0.131242
H26   H     H_    0.220448 0.134035 0.664264 0.182181
H27   H     H_    0.880571 0.721114 0.504415 0.147158
H28   H     H_    0.815090 0.586886 0.567120 0.141608
H29   H     H_    0.911919 0.779410 0.663661 0.182769
H30   H     H_    0.033134 0.757719 0.612916 0.127267
H31   H     H_    0.002068 0.889839 0.591112 0.132757
H32   H     H_    0.841593 0.119115 0.504150 0.147838
H33   H     H_    0.771629 0.183813 0.567083 0.142502
H34   H     H_    0.560173 0.978248 0.554521 -0.000125
H35   H     H_    0.867239 0.087583 0.663026 0.177564
H36   H     H_    0.723325 0.966585 0.612971 0.128243
H37   H     H_    0.886514 0.997096 0.589882 0.133502
H38   H     H_    0.077884 0.872870 0.021215 0.150084
H39   H     H_    0.200271 0.833688 0.056638 0.140925
H40   H     H_    0.121681 0.875173 0.180287 0.204921
H41   H     H_    0.216271 0.022665 0.124104 0.135406
H42   H     H_    0.038190 0.944179 0.135533 0.091096
H43   H     H_    0.142422 0.283361 0.993127 0.156215
H44   H     H_    0.173313 0.409877 0.057304 0.145962
H45   H     H_    0.417717 0.438555 0.555290 0.000859
H46   H     H_    0.065466 0.206574 0.147562 0.191734
H47   H     H_    0.950905 0.205686 0.082019 0.137472
H48   H     H_    0.026861 0.102623 0.070587 0.113138
H49   H     H_    0.686529 0.835611 0.998338 0.145514
H50   H     H_    0.575439 0.770676 0.069885 0.159204
H51   H     H_    0.808635 0.892480 0.145218 0.179170
H52   H     H_    0.766525 0.737950 0.100297 0.152394
H53   H     H_    0.880066 0.892600 0.059441 0.099265
H54   H     H_    0.872869 0.077862 0.978775 0.150077
H55   H     H_    0.833687 0.200257 0.943361 0.140925
H56   H     H_    0.022448 0.582251 0.555422 0.001255
H57   H     H_    0.022650 0.216246 0.875886 0.135404
H58   H     H_    0.944146 0.038166 0.864449 0.091093
H59   H     H_    0.875155 0.121678 0.819706 0.204927
H60   H     H_    0.283318 0.142410 0.006866 0.156222
H61   H     H_    0.409860 0.173307 0.942703 0.145955
H62   H     H_    0.206596 0.065488 0.852424 0.191743
H63   H     H_    0.205680 0.950911 0.917965 0.137477
H64   H     H_    0.102615 0.026870 0.929384 0.113141
H65   H     H_    0.835616 0.686533 0.001662 0.145516
H66   H     H_    0.770677 0.575440 0.930115 0.159203
H67   H     H_    0.964907 0.401402 0.053964 0.013881
H68   H     H_    0.892478 0.808629 0.854780 0.179171
H69   H     H_    0.737952 0.766526 0.899703 0.152397
H70   H     H_    0.892605 0.880069 0.940556 0.099261
H71   H     H_    0.597409 0.555933 0.053317 0.007873
H72   H     H_    0.434489 0.031694 0.053175 0.014186
O1    O     O_R   0.434100 0.092480 0.829780 -0.544508
O2    O     O_R   0.362730 0.477510 0.175360 -0.446825
O3    O     O_R   0.114780 0.637270 0.175360 -0.461383
O4    O     O_R   0.522490 0.885220 0.175360 -0.457679
O5    O     O_R   0.432250 0.092620 0.670380 -0.467706
O6    O     O_R   0.907380 0.339630 0.670380 -0.470157
O7    O     O_R   0.660370 0.567750 0.670380 -0.467947
O8    O     O_R   0.092620 0.432250 0.329620 -0.467705
O9    O     O_R   0.339630 0.907380 0.329620 -0.470156
O10   O     O_R   0.567750 0.660370 0.329620 -0.467945
O11   O     O_R   0.475790 0.362860 0.676880 -0.535162
O12   O     O_R   0.907520 0.341620 0.829780 -0.558375
O13   O     O_R   0.637140 0.112930 0.676880 -0.536001
O14   O     O_R   0.887070 0.524210 0.676880 -0.533948
O15   O     O_R   0.362860 0.475790 0.323120 -0.535161
O16   O     O_R   0.112930 0.637140 0.323120 -0.536002
O17   O     O_R   0.524210 0.887070 0.323120 -0.533946
O18   O     O_3   0.666667 0.333333 0.749450 -0.279164
O19   O     O_3   0.333333 0.666667 0.250550 -0.279165
O20   O     O_3   0.018509 0.288818 0.429683 -0.542372
O21   O     O_3   0.710997 0.729550 0.430283 -0.542015
O22   O     O_3   0.270655 0.981757 0.430602 -0.543110
O23   O     O_R   0.658380 0.565900 0.829780 -0.552537
O24   O     O_3   0.288816 0.018508 0.570317 -0.542374
O25   O     O_3   0.729550 0.710998 0.569718 -0.542014
O26   O     O_3   0.981755 0.270655 0.569397 -0.543108
O27   O     O_3   0.997115 0.700719 0.082158 -0.561419
O28   O     O_3   0.279161 0.310907 0.074079 -0.555491
O29   O     O_3   0.693443 0.978488 0.069903 -0.563796
O30   O     O_3   0.700709 0.997102 0.917840 -0.561422
O31   O     O_3   0.310903 0.279167 0.925918 -0.555491
O32   O     O_3   0.978490 0.693443 0.930096 -0.563798
O33   O     O_R   0.092480 0.434100 0.170220 -0.544503
O34   O     O_R   0.341620 0.907520 0.170220 -0.558371
O35   O     O_R   0.565900 0.658380 0.170220 -0.552535
O36   O     O_R   0.477510 0.362730 0.824640 -0.446825
O37   O     O_R   0.637270 0.114780 0.824640 -0.461388
O38   O     O_R   0.885220 0.522490 0.824640 -0.457679

loop_
_geom_bond_atom_site_label_1
_geom_bond_atom_site_label_2
_ccdc_geom_bond_type
C24   H67   S    
C18   H4    S    
C40   C41   S    
C50   H51   S    
C6    H45   S    
C6    C58   S    
C15   O24   S    
C40   H27   S    
C4    C8    S    
C32   H9    S    
C35   H15   S    
C58   O7    A    
Cr3   O38   S    
C41   H29   S    
C44   H39   S    
C22   H71   S    
C24   C45   S    
C37   H19   S    
C36   C37   S    
Cr3   O18   S    
C49   O29   S    
C42   H32   S    
C32   H8    S    
Cr6   O17   S    
C52   H57   S    
C42   O26   S    
C41   H30   S    
C5    C17   D    
C36   H17   S    
C2    O10   A    
C35   H14   S    
C57   H70   S    
C60   O14   A    
C7    C59   S    
C9    C13   D    
C30   O32   S    
Cr4   O8    S    
C53   H61   S    
Cr1   O5    S    
C26   O28   S    
C47   C48   S    
C36   H16   S    
C46   H42   S    
Cr4   O19   S    
C37   H18   S    
C18   C30   D    
Cr5   O9    S    
Cr2   O12   S    
C39   H24   S    
Cr6   O10   S    
C58   O11   A    
C53   O31   S    
C9    H12   S    
C56   O4    A    
C7    C15   D    
C21   C27   D    
C1    O23   A    
C56   O34   A    
C45   O3    A    
C51   O30   S    
C21   H72   S    
C59   O5    A    
C54   H64   S    
C45   O33   A    
C39   H25   S    
C44   C46   S    
C49   H50   S    
C16   O25   S    
C44   H38   S    
C22   C34   S    
C1    O36   A    
C1    C19   S    
Cr2   O13   S    
Cr5   O34   S    
C18   C23   S    
C37   H20   S    
C24   C25   D    
C40   O25   S    
Cr5   O19   S    
C7    H34   S    
Cr2   O6    S    
C32   H7    S    
C47   O28   S    
C36   O22   S    
Cr1   O1    S    
C23   O38   A    
C20   C28   D    
C25   O27   S    
C10   H1    S    
C4    O9    A    
C54   H62   S    
Cr4   O15   S    
C3    O16   A    
C51   C52   S    
C14   O22   S    
C43   H35   S    
Cr5   O16   S    
C17   O26   S    
Cr5   O3    S    
C33   H10   S    
C31   C32   S    
C46   H41   S    
C12   C20   S    
C51   H54   S    
C12   O1    A    
C53   H60   S    
Cr6   O35   S    
C26   C29   S    
C12   O37   A    
C31   H6    S    
C49   H49   S    
C23   O12   A    
C55   H66   S    
C2    O15   A    
C55   H65   S    
C55   C57   S    
C51   H55   S    
C41   H31   S    
C57   H68   S    
C35   H13   S    
C42   C43   S    
C19   C29   D    
Cr1   O18   S    
C39   H26   S    
C48   H48   S    
Cr4   O2    S    
C25   C30   S    
Cr3   O23   S    
C54   H63   S    
C11   C17   S    
C8    C14   D    
C55   O32   S    
C5    C60   S    
C48   H46   S    
C50   H52   S    
C20   H2    S    
Cr1   O36   S    
C40   H28   S    
C34   O2    A    
C21   C56   S    
C52   H59   S    
C53   C54   S    
Cr6   O4    S    
C59   O13   A    
C47   H44   S    
C38   H21   S    
Cr4   O33   S    
C43   H36   S    
C3    C10   S    
C47   H43   S    
C42   H33   S    
C60   O6    A    
C52   H58   S    
C33   H11   S    
C38   C39   S    
Cr2   O37   S    
C46   H40   S    
C31   H5    S    
C33   C35   S    
Cr2   O18   S    
C44   O27   S    
C43   H37   S    
Cr3   O14   S    
C31   O20   S    
C19   H3    S    
C10   C11   D    
C28   O30   S    
C6    C16   D    
C50   H53   S    
C38   O24   S    
C4    O17   A    
C13   O21   S    
C3    O8    A    
C49   C50   S    
C22   C26   D    
C13   C16   S    
C38   H22   S    
C27   C28   S    
C34   O35   A    
C14   C15   S    
C57   H69   S    
C8    H23   S    
C29   O31   S    
C2    C9    S    
Cr1   O11   S    
C5    H56   S    
Cr3   O7    S    
Cr6   O19   S    
C33   O21   S    
C11   O20   S    
C27   O29   S    
C48   H47   S    
