data_mof_unit_7769.cif
_audit_creation_date              2012-12-11T14:58:34-0500
_audit_creation_method            fapswitch 2.2
_symmetry_space_group_name_H-M    P1
_symmetry_Int_Tables_number       1
_space_group_crystal_system       triclinic
_cell_length_a                    11.160835
_cell_length_b                    11.064657
_cell_length_c                    18.640372
_cell_angle_alpha                 89.253877
_cell_angle_beta                  90.319052
_cell_angle_gamma                 59.225435
_cell_volume                      1977.40729715

loop_
_atom_site_label
_atom_site_type_symbol
_atom_type_description
_atom_site_fract_x
_atom_site_fract_y
_atom_site_fract_z
_atom_type_partial_charge
C1    C     C_R   0.355187 0.780538 0.400501 0.619949
C2    C     C_R   0.281904 0.447058 0.193311 0.222368
C3    C     C_R   0.257021 0.459111 0.267524 0.034284
C4    C     C_R   0.382330 0.354651 0.388227 0.563349
C5    C     C_R   0.865407 0.803203 0.341260 -0.045172
C6    C     C_R   0.871589 0.746902 0.274349 -0.054369
C7    C     C_R   0.997658 0.630505 0.251041 0.001322
C8    C     C_R   0.120887 0.583229 0.291730 0.088539
C9    C     C_R   0.348750 0.340653 0.313047 0.022300
C10   C     C_R   0.677005 0.362602 0.269138 -0.162366
C11   C     C_R   0.722444 0.334350 0.197494 -0.123453
C12   C     C_R   0.607764 0.078477 0.185413 -0.034513
C13   C     C_R   0.828947 0.356978 0.176301 0.070540
C14   C     C_R   0.850870 0.446376 0.217310 0.289089
C15   C     C_R   0.843025 0.435810 0.291191 0.343759
C16   C     C_R   0.714571 0.416279 0.394456 0.588983
C17   C     C_R   0.749544 0.398338 0.318243 0.053098
C18   C     C_R   0.443651 0.766196 0.281396 0.183254
C19   C     C_R   0.408970 0.793836 0.208960 0.302741
C20   C     C_R   0.307493 0.929998 0.187719 -0.009151
C21   C     C_R   0.238580 0.031715 0.240882 0.167834
C22   C     C_R   0.247501 0.988313 0.313220 0.285192
C23   C     C_R   0.371320 0.316022 0.163626 0.059968
C24   C     C_R   0.345471 0.848788 0.331472 0.044749
C25   C     C_R   0.491927 0.280460 0.724758 -0.127917
C26   C     C_R   0.466970 0.265491 0.795633 -0.094670
C27   C     C_R   0.331128 0.344797 0.822712 0.022812
C28   C     C_R   0.346717 0.763886 0.605571 0.556236
C29   C     C_R   0.227165 0.455530 0.781629 -0.093175
C30   C     C_R   0.254111 0.473610 0.710746 -0.086766
C31   C     C_R   0.383886 0.378293 0.680741 -0.002251
C32   C     C_R   0.909954 0.396955 0.706147 0.209008
C33   C     C_R   0.938708 0.382358 0.778864 -0.092758
C34   C     C_R   0.446038 0.212292 0.282135 -0.121579
C35   C     C_R   0.926634 0.283289 0.819951 -0.066813
C36   C     C_R   0.903161 0.185009 0.785771 -0.117205
C37   C     C_R   0.873416 0.198329 0.712145 0.161843
C38   C     C_R   0.859991 0.315645 0.673595 0.046290
C39   C     C_R   0.215264 0.808972 0.716445 -0.094978
C40   C     C_R   0.408479 0.380369 0.604271 0.549539
C41   C     C_R   0.209149 0.813617 0.790209 0.174637
C42   C     C_R   0.312551 0.823453 0.829548 0.034143
C43   C     C_R   0.433116 0.803118 0.793884 0.185710
C44   C     C_R   0.438228 0.796177 0.719746 -0.110298
C45   C     C_R   0.467094 0.198979 0.208946 -0.035795
C46   C     C_R   0.327937 0.802605 0.680511 -0.057005
C47   C     C_R   0.899031 0.321200 0.107358 0.615450
C48   C     C_R   0.331323 0.291233 0.092417 0.604875
C49   C     C_R   0.271243 0.963908 0.111597 0.616724
C50   C     C_R   0.948539 0.280940 0.897385 0.552766
C51   C     C_R   0.299140 0.293545 0.887965 0.534937
C52   C     C_R   0.773157 0.370848 0.607690 0.591565
C53   C     C_R   0.278102 0.889839 0.899658 0.599776
C54   C     C_R   0.862014 0.914631 0.114597 -0.050138
C55   C     C_R   0.855394 0.993282 0.173815 -0.116556
C56   C     C_R   0.112873 0.685825 0.336784 0.297080
C57   C     C_R   0.731660 0.065195 0.212391 -0.172004
C58   C     C_R   0.990189 0.762543 0.376677 0.290578
C59   C     C_R   0.625091 0.975078 0.137145 -0.003600
C60   C     C_R   0.747990 0.900350 0.097959 0.248819
Cl1   Cl    Cl    0.764764 0.612049 0.173597 -0.535567
Cl2   Cl    Cl    0.983975 0.847105 0.456877 -0.441993
Cl3   Cl    Cl    0.070469 0.802869 0.828958 -0.538062
Cl4   Cl    Cl    0.583504 0.779616 0.838971 -0.457121
Cl5   Cl    Cl    0.130620 0.801471 0.279589 -0.650848
Cl6   Cl    Cl    0.205472 0.597581 0.135319 -0.511756
Cl7   Cl    Cl    0.973157 0.431430 0.347060 -0.466613
Cl8   Cl    Cl    0.605918 0.735797 0.307586 -0.633191
Cl9   Cl    Cl    0.472399 0.654140 0.148502 -0.429367
Cl10  Cl    Cl    0.154309 0.209190 0.217638 -0.641985
Cl11  Cl    Cl    0.756737 0.794419 0.026523 -0.421925
Cl12  Cl    Cl    0.137755 0.101249 0.379528 -0.414307
Cl13  Cl    Cl    0.937211 0.521049 0.659763 -0.519874
Cl14  Cl    Cl    0.861669 0.062713 0.670385 -0.527461
Cr1   Cr    Cr6+3 0.601770 0.606860 0.505860 1.143590
Cr2   Cr    Cr6+3 0.291380 0.601660 0.495070 1.133595
Cr3   Cr    Cr6+3 0.606880 0.291510 0.499120 1.133242
Cr4   Cr    Cr6+3 0.062440 0.063090 0.008210 1.085343
Cr5   Cr    Cr6+3 0.062880 0.375170 0.998920 1.171797
Cr6   Cr    Cr6+3 0.374700 0.061720 0.992470 1.137620
H1    H     H_    0.517379 0.123074 0.315842 0.165001
H2    H     H_    0.171319 0.556931 0.678650 0.206723
H3    H     H_    0.966800 0.452058 0.803917 0.180523
H4    H     H_    0.904792 0.100367 0.816223 0.222411
H5    H     H_    0.133975 0.803250 0.687524 0.229925
H6    H     H_    0.531187 0.780399 0.693197 0.206033
H7    H     H_    0.956538 0.860981 0.083790 0.207877
H8    H     H_    0.944676 0.000825 0.189226 0.218592
H9    H     H_    0.731995 0.114937 0.261396 0.153416
H10   H     H_    0.542877 0.955276 0.129364 0.203412
H11   H     H_    0.766844 0.883903 0.362476 0.165624
H12   H     H_    0.779065 0.795720 0.241940 0.218425
H13   H     H_    0.002079 0.578684 0.201895 0.221677
H14   H     H_    0.591698 0.350801 0.286798 0.114223
H15   H     H_    0.673002 0.301397 0.158770 0.160519
H16   H     H_    0.593674 0.211152 0.703513 0.200893
H17   H     H_    0.552046 0.183341 0.827371 0.184637
H18   H     H_    0.124134 0.522349 0.802708 0.195718
O1    O     O_R   0.748800 0.497470 0.428000 -0.393454
O2    O     O_R   0.417600 0.174890 0.067840 -0.552369
O3    O     O_R   0.375320 0.946260 0.070860 -0.468500
O4    O     O_R   0.476420 0.724060 0.429470 -0.478898
O5    O     O_R   0.160600 0.919630 0.926660 -0.458189
O6    O     O_R   0.933060 0.190520 0.936020 -0.497430
O7    O     O_R   0.908880 0.403460 0.925020 -0.445694
O8    O     O_R   0.179600 0.361450 0.918490 -0.516058
O9    O     O_R   0.391510 0.170860 0.907530 -0.489490
O10   O     O_R   0.351130 0.942530 0.922260 -0.439139
O11   O     O_3   0.166667 0.166667 0.999870 -0.355114
O12   O     O_R   0.300070 0.471040 0.567100 -0.466377
O13   O     O_R   0.264580 0.744340 0.416750 -0.444833
O14   O     O_R   0.309380 0.472470 0.418200 -0.495337
O15   O     O_R   0.501710 0.260430 0.414300 -0.525405
O16   O     O_R   0.728090 0.305600 0.428960 -0.462837
O17   O     O_R   0.738760 0.495930 0.588610 -0.448561
O18   O     O_R   0.467110 0.722640 0.578360 -0.506250
O19   O     O_R   0.254530 0.742800 0.577360 -0.476332
O20   O     O_R   0.491670 0.258900 0.574910 -0.458048
O21   O     O_R   0.718780 0.304180 0.577850 -0.469636
O22   O     O_3   0.500010 0.500010 0.500020 -0.371865
O23   O     O_R   0.186690 0.923650 0.086970 -0.439677
O24   O     O_R   0.957250 0.194250 0.084630 -0.534555
O25   O     O_R   0.934970 0.407490 0.085330 -0.407652
O26   O     O_R   0.203780 0.365190 0.067090 -0.430620

loop_
_geom_bond_atom_site_label_1
_geom_bond_atom_site_label_2
_ccdc_geom_bond_type
C25   C31   A    
C40   O20   A    
C37   Cl14  S    
C58   Cl2   S    
C23   C45   A    
C27   C29   A    
C41   C42   A    
Cr6   O3    S    
C35   C36   A    
Cr3   O22   S    
C8    C56   A    
C7    C8    A    
C39   C41   A    
C54   C60   A    
C54   H7    S    
C50   O6    A    
Cr6   O9    S    
C28   C46   S    
C26   C27   A    
C29   C30   A    
C57   H9    S    
C5    C58   A    
C18   C24   A    
C36   C37   A    
C37   C38   A    
C53   O5    A    
C28   O19   A    
C51   O8    A    
C42   C53   S    
C49   O3    A    
C30   C31   A    
Cr3   O15   S    
C38   C52   S    
C10   H14   S    
C10   C17   A    
C18   Cl8   S    
C56   Cl5   S    
C31   C40   S    
Cr5   O7    S    
C18   C19   A    
C55   H8    S    
Cr4   O23   S    
C28   O18   A    
C12   C59   A    
C19   C20   A    
C27   C51   S    
C16   C17   S    
Cr6   O11   S    
C50   O7    A    
C34   H1    S    
C32   C38   A    
C7    H13   S    
C4    O14   A    
C15   Cl7   S    
C59   C60   A    
C13   C14   A    
Cr6   O2    S    
C44   H6    S    
C22   Cl12  S    
C44   C46   A    
C43   Cl4   S    
C48   O2    A    
Cr5   O11   S    
Cr4   O6    S    
C4    O15   A    
C3    C8    S    
C32   Cl13  S    
C13   C47   S    
C47   O24   A    
C40   O12   A    
C60   Cl11  S    
Cr3   O21   S    
C25   C26   A    
C14   Cl1   S    
Cr5   O25   S    
Cr5   O8    S    
C59   H10   S    
C30   H2    S    
C43   C44   A    
C20   C49   S    
C3    C9    A    
Cr1   O4    S    
C47   O25   A    
Cr2   O14   S    
C49   O23   A    
C35   C50   S    
Cr1   O1    S    
C34   C45   A    
Cr2   O22   S    
C33   H3    S    
C5    H11   S    
C1    C24   S    
C39   C46   A    
C12   C57   A    
C29   H18   S    
Cr2   O12   S    
Cr3   O20   S    
C55   C57   A    
C9    C34   A    
C22   C24   A    
C19   Cl9   S    
Cr1   O17   S    
C42   C43   A    
C41   Cl3   S    
Cr3   O16   S    
C52   O17   A    
C11   H15   S    
C15   C17   A    
C54   C55   A    
C23   C48   S    
Cr4   O5    S    
Cr1   O22   S    
C12   C45   S    
C2    Cl6   S    
C16   O16   A    
C48   O26   A    
C16   O1    A    
C6    C7    A    
Cr5   O26   S    
Cr6   O10   S    
Cr2   O19   S    
C21   Cl10  S    
C32   C33   A    
C2    C3    A    
C1    O13   A    
C11   C13   A    
C53   O10   A    
C5    C6    A    
C36   H4    S    
Cr2   O13   S    
C6    H12   S    
C33   C35   A    
C56   C58   A    
Cr4   O11   S    
Cr4   O24   S    
C10   C11   A    
C26   H17   S    
C52   O21   A    
C20   C21   A    
C25   H16   S    
C51   O9    A    
C2    C23   A    
C39   H5    S    
C14   C15   A    
Cr1   O18   S    
C4    C9    S    
C21   C22   A    
C1    O4    A    
