data_mof_unit_13436.cif
_audit_creation_date              2012-10-26T21:26:52-0400
_audit_creation_method            fapswitch 2.2
_symmetry_space_group_name_H-M    P1
_symmetry_Int_Tables_number       1
_space_group_crystal_system       triclinic
_cell_length_a                    16.565186
_cell_length_b                    16.564936
_cell_length_c                    28.664317
_cell_angle_alpha                 90.000506
_cell_angle_beta                  90.001954
_cell_angle_gamma                 89.999958
_cell_volume                      7865.52429331

loop_
_atom_site_label
_atom_site_type_symbol
_atom_type_description
_atom_site_fract_x
_atom_site_fract_y
_atom_site_fract_z
_atom_type_partial_charge
C1    C     C_1   0.000682 0.128396 0.193930 0.039572
C2    C     C_3   0.000021 0.999995 0.749987 -0.013881
C3    C     C_3   0.198110 0.862255 0.818213 -0.253831
C4    C     C_3   0.284850 0.887992 0.828078 -0.464235
C5    C     C_3   0.812545 0.150572 0.134819 0.027364
C6    C     C_3   0.800717 0.128690 0.186297 -0.283670
C7    C     C_3   0.713506 0.141208 0.201756 -0.488895
C8    C     C_3   0.769611 0.810047 0.317005 -0.003923
C9    C     C_3   0.861857 0.801772 0.318077 -0.253956
C10   C     C_3   0.887401 0.714943 0.327848 -0.464292
C11   C     C_3   0.150302 0.187261 0.634649 0.027469
C12   C     C_3   0.128279 0.199245 0.686100 -0.283558
C13   C     C_R   0.000143 0.194294 0.161066 0.003342
C14   C     C_3   0.140779 0.286503 0.701485 -0.488957
C15   C     C_3   0.809992 0.229918 0.817182 -0.003956
C16   C     C_3   0.801947 0.137646 0.818181 -0.253792
C17   C     C_3   0.715222 0.111848 0.828032 -0.464245
C18   C     C_3   0.187438 0.849481 0.134749 0.027408
C19   C     C_3   0.199236 0.870939 0.186299 -0.283765
C20   C     C_3   0.286464 0.858389 0.201724 -0.488749
C21   C     C_3   0.230282 0.189962 0.317020 -0.003920
C22   C     C_3   0.138032 0.198191 0.318068 -0.253893
C23   C     C_3   0.112432 0.285010 0.327822 -0.464289
C24   C     C_R   0.000127 0.805699 0.838926 0.003296
C25   C     C_3   0.849651 0.812714 0.634736 0.027455
C26   C     C_3   0.872247 0.800698 0.686090 -0.283389
C27   C     C_3   0.859801 0.713463 0.701528 -0.489147
C28   C     C_R   0.805711 0.000206 0.661057 0.003385
C29   C     C_R   0.194286 0.000177 0.338937 0.003376
C30   C     C_R   0.999859 0.805694 0.161068 0.003309
C31   C     C_R   0.999883 0.194289 0.838927 0.003338
C32   C     C_R   0.194332 0.999806 0.661068 0.003357
C33   C     C_R   0.805682 0.999827 0.338929 0.003345
C34   C     C_R   0.999852 0.612545 0.939272 0.559326
C35   C     C_1   0.000673 0.871595 0.806060 0.039616
C36   C     C_R   0.999854 0.387458 0.060729 0.559379
C37   C     C_R   0.387459 0.999853 0.439270 0.559350
C38   C     C_R   0.612536 0.999854 0.560731 0.559406
C39   C     C_R   0.000146 0.387453 0.939271 0.559324
C40   C     C_R   0.000148 0.612543 0.060727 0.559394
C41   C     C_R   0.612539 0.000147 0.439271 0.559363
C42   C     C_R   0.387465 0.000146 0.560729 0.559420
C43   C     C_R   0.057552 0.256365 0.164589 0.236523
C44   C     C_R   0.943073 0.805591 0.875050 0.280401
C45   C     C_R   0.743552 0.057512 0.664629 0.236572
C46   C     C_1   0.871618 0.000762 0.693915 0.039550
C47   C     C_R   0.194338 0.943193 0.375098 0.280373
C48   C     C_R   0.942484 0.743594 0.164604 0.236507
C49   C     C_R   0.056940 0.194410 0.875051 0.280379
C50   C     C_R   0.256531 0.942549 0.664660 0.236561
C51   C     C_R   0.805651 0.056798 0.375098 0.280389
C52   C     C_R   0.057610 0.743690 0.835448 0.236469
C53   C     C_R   0.943165 0.194349 0.124901 0.280367
C54   C     C_R   0.743582 0.942452 0.335397 0.236527
C55   C     C_R   0.194279 0.056680 0.624848 0.280380
C56   C     C_R   0.942381 0.256281 0.835452 0.236497
C57   C     C_1   0.128384 0.000728 0.306076 0.039568
C58   C     C_R   0.056813 0.805667 0.124892 0.280390
C59   C     C_R   0.256373 0.057568 0.335410 0.236548
C60   C     C_R   0.805718 0.943294 0.624857 0.280351
C61   C     C_R   0.054174 0.322764 0.133433 0.065218
C62   C     C_R   0.944728 0.744333 0.908957 0.049926
C63   C     C_R   0.677152 0.054103 0.633473 0.065232
C64   C     C_R   0.255622 0.944813 0.408988 0.049918
C65   C     C_R   0.945873 0.677196 0.133449 0.065209
C66   C     C_R   0.055284 0.255672 0.908954 0.049935
C67   C     C_R   0.322921 0.945966 0.633501 0.065212
C68   C     C_1   0.999307 0.871592 0.193932 0.039624
C69   C     C_R   0.744383 0.055166 0.408996 0.049915
C70   C     C_R   0.054232 0.677286 0.866598 0.065208
C71   C     C_R   0.944808 0.255621 0.091005 0.049927
C72   C     C_R   0.677185 0.945852 0.366552 0.065213
C73   C     C_R   0.255553 0.055055 0.590956 0.049892
C74   C     C_R   0.945744 0.322684 0.866606 0.065221
C75   C     C_R   0.055160 0.744402 0.090990 0.049904
C76   C     C_R   0.322776 0.054174 0.366564 0.065234
C77   C     C_R   0.744423 0.944898 0.590976 0.049920
C78   C     C_R   0.999339 0.321202 0.095556 -0.044104
C79   C     C_1   0.999352 0.128393 0.806061 0.039578
C80   C     C_R   0.999329 0.678799 0.904442 -0.044136
C81   C     C_R   0.678783 0.999344 0.595561 -0.044090
C82   C     C_R   0.321207 0.999339 0.404440 -0.044120
C83   C     C_R   0.000667 0.678793 0.095556 -0.044081
C84   C     C_R   0.000665 0.321192 0.904443 -0.044142
C85   C     C_R   0.321230 0.000660 0.595561 -0.044047
C86   C     C_R   0.678782 0.000662 0.404439 -0.044099
C87   C     C_1   0.000289 0.071556 0.220149 -0.020872
C88   C     C_1   0.000296 0.928434 0.779839 -0.020821
C89   C     C_1   0.928463 0.000351 0.720132 -0.020891
C90   C     C_1   0.128430 0.999239 0.693926 0.039627
C91   C     C_1   0.071542 0.000327 0.279857 -0.020883
C92   C     C_1   0.999689 0.928434 0.220151 -0.020819
C93   C     C_1   0.999738 0.071554 0.779840 -0.020869
C94   C     C_1   0.071584 0.999643 0.720140 -0.020826
C95   C     C_1   0.928422 0.999667 0.279851 -0.020841
C96   C     C_3   0.189938 0.230207 0.182965 -0.003927
C97   C     C_3   0.198116 0.137950 0.181929 -0.253846
C98   C     C_3   0.284906 0.112294 0.172149 -0.464272
C99   C     C_3   0.812420 0.849230 0.865068 0.027255
C100  C     C_3   0.800782 0.870496 0.813487 -0.283966
C101  C     C_1   0.871580 0.999270 0.306067 0.039605
C102  C     C_3   0.713610 0.857890 0.797979 -0.488734
C103  C     C_3   0.769451 0.189903 0.683120 -0.003879
C104  C     C_3   0.861690 0.198261 0.682042 -0.253953
C105  C     C_3   0.887152 0.285140 0.672349 -0.464319
C106  C     C_3   0.150541 0.812580 0.365164 0.027437
C107  C     C_3   0.128439 0.800723 0.313713 -0.283518
C108  C     C_3   0.140962 0.713514 0.298243 -0.488838
C109  C     C_3   0.810090 0.769651 0.183002 -0.003926
C110  C     C_3   0.801832 0.861900 0.181949 -0.253907
C111  C     C_3   0.715009 0.887471 0.172186 -0.464253
C112  C     C_3   0.999985 0.999996 0.250002 -0.013883
C113  C     C_3   0.187594 0.150779 0.865060 0.027305
C114  C     C_3   0.199286 0.129238 0.813518 -0.283806
C115  C     C_3   0.286466 0.141812 0.798017 -0.488746
C116  C     C_3   0.230787 0.810150 0.683200 -0.003882
C117  C     C_3   0.138562 0.801685 0.682080 -0.254036
C118  C     C_3   0.113219 0.714756 0.672431 -0.464307
C119  C     C_3   0.849456 0.187414 0.365194 0.027374
C120  C     C_3   0.871256 0.199244 0.313704 -0.283697
C121  C     C_3   0.858722 0.286459 0.298253 -0.488847
C122  C     C_3   0.190014 0.769989 0.817189 -0.003959
Cu1   Cu    Cu3+1 0.919200 0.500000 0.000000 0.926891
Cu2   Cu    Cu3+1 0.080800 0.500000 0.000000 0.926888
Cu3   Cu    Cu3+1 0.500000 0.919200 0.500000 0.926919
Cu4   Cu    Cu3+1 0.500000 0.080800 0.500000 0.926937
H1    H     H_    0.139913 0.387275 0.170272 0.250640
H2    H     H_    0.933332 0.557977 0.146153 0.215521
H3    H     H_    0.696226 0.205649 0.197890 0.145623
H4    H     H_    0.707151 0.123827 0.238995 0.151931
H5    H     H_    0.672094 0.103246 0.180616 0.144713
H6    H     H_    0.744698 0.763647 0.293038 0.147290
H7    H     H_    0.744103 0.796492 0.352170 0.143481
H8    H     H_    0.887598 0.820877 0.284079 0.211403
H9    H     H_    0.887031 0.841282 0.345806 0.167462
H10   H     H_    0.862435 0.694342 0.361785 0.141774
H11   H     H_    0.954231 0.711359 0.329410 0.151054
H12   H     H_    0.865783 0.674392 0.299620 0.169812
H13   H     H_    0.150811 0.294142 0.947446 0.239692
H14   H     H_    0.114797 0.230648 0.613375 0.161556
H15   H     H_    0.215204 0.202451 0.628888 0.124923
H16   H     H_    0.064130 0.182163 0.691813 0.182961
H17   H     H_    0.167024 0.159794 0.707907 0.152680
H18   H     H_    0.205257 0.303725 0.697698 0.145645
H19   H     H_    0.123235 0.292991 0.738696 0.151924
H20   H     H_    0.102939 0.327873 0.680240 0.144651
H21   H     H_    0.763448 0.254775 0.793288 0.147362
H22   H     H_    0.796496 0.255306 0.852385 0.143419
H23   H     H_    0.820989 0.112044 0.784136 0.211377
H24   H     H_    0.073678 0.253391 0.979056 0.238470
H25   H     H_    0.841616 0.112497 0.845841 0.167682
H26   H     H_    0.694678 0.136672 0.862015 0.141818
H27   H     H_    0.711825 0.045001 0.829538 0.151022
H28   H     H_    0.674514 0.133432 0.799871 0.169769
H29   H     H_    0.230877 0.885249 0.113655 0.161414
H30   H     H_    0.202678 0.784646 0.128758 0.125208
H31   H     H_    0.182049 0.935004 0.192241 0.182949
H32   H     H_    0.159777 0.831882 0.207917 0.152537
H33   H     H_    0.303853 0.794010 0.197621 0.145599
H34   H     H_    0.292780 0.875370 0.239035 0.151823
H35   H     H_    0.387668 0.860568 0.670462 0.250612
H36   H     H_    0.327815 0.896658 0.180726 0.144721
H37   H     H_    0.255186 0.236379 0.293062 0.147355
H38   H     H_    0.255761 0.203523 0.352193 0.143434
H39   H     H_    0.112323 0.179061 0.284065 0.211419
H40   H     H_    0.112862 0.158679 0.345796 0.167485
H41   H     H_    0.137370 0.305642 0.361760 0.141758
H42   H     H_    0.045599 0.288552 0.329369 0.151025
H43   H     H_    0.134037 0.325561 0.299592 0.169854
H44   H     H_    0.884806 0.769253 0.613327 0.161673
H45   H     H_    0.784656 0.797650 0.629235 0.124611
H46   H     H_    0.442171 0.933668 0.646187 0.215472
H47   H     H_    0.936473 0.817698 0.691556 0.183067
H48   H     H_    0.833823 0.840207 0.708039 0.152777
H49   H     H_    0.795255 0.696359 0.698043 0.145658
H50   H     H_    0.877857 0.706936 0.738646 0.152076
H51   H     H_    0.897254 0.672026 0.680110 0.144650
H52   H     H_    0.706021 0.150661 0.447546 0.239678
H53   H     H_    0.746683 0.073423 0.479109 0.238394
H54   H     H_    0.140105 0.612860 0.829815 0.250621
H55   H     H_    0.066993 0.558092 0.853889 0.215568
H56   H     H_    0.849312 0.294011 0.052464 0.239701
H57   H     H_    0.066804 0.441973 0.146141 0.215532
H58   H     H_    0.926532 0.253338 0.020893 0.238426
H59   H     H_    0.612606 0.860200 0.329686 0.250616
H60   H     H_    0.557966 0.933311 0.353852 0.215522
H61   H     H_    0.293813 0.150499 0.552332 0.239680
H62   H     H_    0.253236 0.073147 0.520830 0.238330
H63   H     H_    0.859818 0.387070 0.829839 0.250637
H64   H     H_    0.932930 0.441870 0.853892 0.215577
H65   H     H_    0.150614 0.706060 0.052400 0.239677
H66   H     H_    0.073335 0.746721 0.020870 0.238387
H67   H     H_    0.387312 0.139879 0.329718 0.250628
H68   H     H_    0.849216 0.705886 0.947462 0.239679
H69   H     H_    0.441987 0.066765 0.353858 0.215529
H70   H     H_    0.706090 0.849390 0.552428 0.239701
H71   H     H_    0.746675 0.926662 0.520861 0.238365
H72   H     H_    0.236380 0.255098 0.206913 0.147363
H73   H     H_    0.203495 0.255664 0.147787 0.143429
H74   H     H_    0.179008 0.112269 0.215941 0.211413
H75   H     H_    0.158564 0.112784 0.154217 0.167540
H76   H     H_    0.305509 0.137188 0.138195 0.141772
H77   H     H_    0.288407 0.045455 0.170621 0.151003
H78   H     H_    0.325503 0.133906 0.200356 0.169839
H79   H     H_    0.926370 0.746631 0.979061 0.238440
H80   H     H_    0.768878 0.885031 0.886062 0.161371
H81   H     H_    0.797217 0.784420 0.871116 0.125353
H82   H     H_    0.817977 0.934530 0.807488 0.183005
H83   H     H_    0.840316 0.831368 0.791967 0.152509
H84   H     H_    0.696222 0.793533 0.802133 0.145602
H85   H     H_    0.707414 0.874744 0.760648 0.151842
H86   H     H_    0.672179 0.896217 0.818884 0.144770
H87   H     H_    0.744510 0.236224 0.707129 0.147361
H88   H     H_    0.743913 0.203520 0.647969 0.143439
H89   H     H_    0.887466 0.179083 0.716019 0.211471
H90   H     H_    0.612503 0.139643 0.670383 0.250629
H91   H     H_    0.886884 0.158850 0.654273 0.167347
H92   H     H_    0.862158 0.305812 0.638433 0.141727
H93   H     H_    0.953978 0.288788 0.670788 0.151023
H94   H     H_    0.865506 0.325595 0.700616 0.169894
H95   H     H_    0.115144 0.769072 0.386418 0.161527
H96   H     H_    0.215483 0.797472 0.370870 0.124848
H97   H     H_    0.064269 0.817785 0.308047 0.183021
H98   H     H_    0.167127 0.840256 0.291922 0.152641
H99   H     H_    0.205453 0.696297 0.302008 0.145600
H100  H     H_    0.123401 0.707130 0.261024 0.151951
H101  H     H_    0.557921 0.066525 0.646177 0.215481
H102  H     H_    0.103136 0.672075 0.319455 0.144692
H103  H     H_    0.763687 0.744733 0.206964 0.147306
H104  H     H_    0.796528 0.744163 0.147832 0.143464
H105  H     H_    0.820948 0.887620 0.215951 0.211411
H106  H     H_    0.841341 0.887082 0.154223 0.167478
H107  H     H_    0.694398 0.862536 0.138244 0.141763
H108  H     H_    0.711442 0.954305 0.170644 0.151059
H109  H     H_    0.674457 0.865841 0.200410 0.169854
H110  H     H_    0.231154 0.115132 0.886136 0.161411
H111  H     H_    0.202736 0.215643 0.870991 0.125172
H112  H     H_    0.294025 0.849284 0.447497 0.239684
H113  H     H_    0.182134 0.065158 0.807627 0.183041
H114  H     H_    0.159745 0.168223 0.791909 0.152528
H115  H     H_    0.303821 0.206195 0.802076 0.145596
H116  H     H_    0.292707 0.124780 0.760716 0.151882
H117  H     H_    0.327895 0.103605 0.818997 0.144763
H118  H     H_    0.255750 0.763894 0.707242 0.147296
H119  H     H_    0.256387 0.796511 0.648068 0.143495
H120  H     H_    0.112711 0.820902 0.716029 0.211452
H121  H     H_    0.113365 0.841013 0.654271 0.167249
H122  H     H_    0.138318 0.694033 0.638551 0.141704
H123  H     H_    0.253367 0.926480 0.479096 0.238396
H124  H     H_    0.046401 0.711025 0.670818 0.151087
H125  H     H_    0.134846 0.674392 0.700748 0.169962
H126  H     H_    0.885018 0.230892 0.386372 0.161497
H127  H     H_    0.784572 0.202579 0.371029 0.125037
H128  H     H_    0.935370 0.182126 0.307913 0.183008
H129  H     H_    0.832402 0.159744 0.291995 0.152613
H130  H     H_    0.794283 0.303748 0.302163 0.145617
H131  H     H_    0.876029 0.292812 0.260997 0.151902
H132  H     H_    0.896737 0.327864 0.319372 0.144703
H133  H     H_    0.236544 0.745120 0.793292 0.147270
H134  H     H_    0.860222 0.612625 0.170316 0.250631
H135  H     H_    0.203498 0.744568 0.852386 0.143461
H136  H     H_    0.179083 0.887895 0.784174 0.211349
H137  H     H_    0.158451 0.887406 0.845877 0.167654
H138  H     H_    0.305380 0.863121 0.862054 0.141811
H139  H     H_    0.288289 0.954835 0.829609 0.151045
H140  H     H_    0.325547 0.866412 0.799911 0.169750
H141  H     H_    0.769047 0.115065 0.113625 0.161514
H142  H     H_    0.797406 0.215471 0.129021 0.124994
H143  H     H_    0.817831 0.064565 0.192053 0.183034
H144  H     H_    0.840225 0.167503 0.208024 0.152614
N1    N     N_3   0.104773 0.392586 0.140207 -0.604499
N2    N     N_3   0.892350 0.247982 0.051404 -0.586108
N3    N     N_3   0.607330 0.895304 0.359766 -0.604528
N4    N     N_3   0.247836 0.107402 0.551312 -0.586082
N5    N     N_3   0.895039 0.392439 0.859868 -0.604456
N6    N     N_3   0.107560 0.752077 0.051367 -0.586156
N7    N     N_3   0.392612 0.104750 0.359786 -0.604508
N8    N     N_3   0.752083 0.892467 0.551365 -0.586027
N9    N     N_3   0.892219 0.751947 0.948534 -0.586153
N10   N     N_3   0.607254 0.104582 0.640284 -0.604541
N11   N     N_3   0.247998 0.892323 0.448575 -0.586076
N12   N     N_3   0.895325 0.607341 0.140237 -0.604521
N13   N     N_3   0.107814 0.248075 0.948526 -0.586143
N14   N     N_3   0.392865 0.895559 0.640333 -0.604592
N15   N     N_3   0.752042 0.107613 0.448600 -0.586094
N16   N     N_3   0.104907 0.607510 0.859854 -0.604470
O1    O     O_R   0.931980 0.584070 0.954320 -0.518898
O2    O     O_R   0.068020 0.584070 0.954320 -0.470678
O3    O     O_R   0.415930 0.068020 0.545680 -0.518826
O4    O     O_R   0.584070 0.931980 0.454320 -0.470729
O5    O     O_R   0.068020 0.584070 0.045680 -0.518851
O6    O     O_R   0.931980 0.415930 0.954320 -0.470671
O7    O     O_R   0.584070 0.931980 0.545680 -0.518822
O8    O     O_R   0.415930 0.068020 0.454320 -0.470716
O9    O     O_3   0.113502 0.253940 0.200507 -0.595367
O10   O     O_3   0.891088 0.870654 0.880030 -0.527588
O11   O     O_3   0.745892 0.113368 0.700597 -0.595312
O12   O     O_R   0.068020 0.415930 0.045680 -0.470708
O13   O     O_3   0.129228 0.891284 0.380119 -0.527483
O14   O     O_3   0.886558 0.745993 0.200533 -0.595369
O15   O     O_3   0.108934 0.129356 0.880034 -0.527591
O16   O     O_3   0.254236 0.886736 0.700651 -0.595312
O17   O     O_3   0.870773 0.108694 0.380119 -0.527492
O18   O     O_3   0.113646 0.746180 0.799578 -0.595433
O19   O     O_3   0.891250 0.129241 0.119879 -0.527514
O20   O     O_3   0.745977 0.886520 0.299470 -0.595372
O21   O     O_3   0.129089 0.108477 0.619784 -0.527420
O22   O     O_3   0.886346 0.253782 0.799580 -0.595413
O23   O     O_R   0.415930 0.931980 0.454320 -0.518868
O24   O     O_3   0.108695 0.870801 0.119865 -0.527520
O25   O     O_3   0.253964 0.113504 0.299486 -0.595357
O26   O     O_3   0.870874 0.891455 0.619800 -0.527409
O27   O     O_R   0.584070 0.068020 0.545680 -0.470749
O28   O     O_R   0.068020 0.415930 0.954320 -0.518891
O29   O     O_R   0.931980 0.584070 0.045680 -0.470719
O30   O     O_R   0.584070 0.068020 0.454320 -0.518868
O31   O     O_R   0.415930 0.931980 0.545680 -0.470778
O32   O     O_R   0.931980 0.415930 0.045680 -0.518847

loop_
_geom_bond_atom_site_label_1
_geom_bond_atom_site_label_2
_ccdc_geom_bond_type
C25   H44   S    
C1    C87   T    
C96   H73   S    
H56   N2    S    
C116  H118  S    
C52   C70   A    
C24   C52   A    
C37   O8    A    
C21   H37   S    
C43   O9    S    
C75   N6    S    
C113  H110  S    
C38   O27   A    
C121  H131  S    
C52   O18   S    
C69   N15   S    
C19   C20   S    
C40   C83   S    
H2    N12   S    
C58   O24   S    
Cu2   O5    S    
C17   H27   S    
Cu4   O30   S    
C97   C98   S    
C100  H82   S    
H35   N14   S    
C18   H30   S    
Cu1   Cu2   S    
C46   C89   T    
C106  H96   S    
C41   O4    A    
C91   C112  S    
C96   H72   S    
C41   C86   S    
C21   O25   S    
C14   H19   S    
C28   C46   S    
C26   C27   S    
C98   H78   S    
H123  N11   S    
C76   N7    S    
C63   C81   A    
C23   H41   S    
C33   C101  S    
C30   C48   A    
C108  H100  S    
C10   H10   S    
C39   C84   S    
C79   C93   T    
C118  H125  S    
C5    C6    S    
C118  H122  S    
C63   N10   S    
C65   C83   A    
C106  H95   S    
H69   N7    S    
C106  C107  S    
C26   H48   S    
C4    H140  S    
C15   C16   S    
C115  H116  S    
C8    O20   S    
C100  H83   S    
C8    H7    S    
C111  H108  S    
C116  C117  S    
C102  H84   S    
C40   O5    A    
C48   O14   S    
C18   C19   S    
C109  H104  S    
C110  C111  S    
C7    H4    S    
Cu3   O31   S    
C34   C80   S    
C115  H115  S    
C22   H39   S    
C109  H103  S    
C64   N11   S    
Cu1   O1    S    
H134  N12   S    
C32   C90   S    
C74   N5    S    
C29   C59   A    
C41   O30   A    
C12   H16   S    
C16   C17   S    
C105  H93   S    
C20   H33   S    
C34   O2    A    
C8    H6    S    
C38   O7    A    
C111  H109  S    
C107  C108  S    
C109  O14   S    
C2    C88   S    
C16   H23   S    
C10   H11   S    
C77   C81   A    
C31   C56   A    
C20   H34   S    
C50   C67   A    
C103  H87   S    
C32   C55   A    
C13   C53   A    
Cu3   O4    S    
C3    C122  S    
C50   O16   S    
C121  H132  S    
C9    H8    S    
C25   H45   S    
C28   C60   A    
H63   N5    S    
C42   O3    A    
H68   N9    S    
C21   H38   S    
H1    N1    S    
C21   C22   S    
C34   O1    A    
C6    H143  S    
H90   N10   S    
C97   H74   S    
C31   C49   A    
C17   H28   S    
C119  H127  S    
C7    H3    S    
C104  C105  S    
C68   C92   T    
C58   C75   A    
C90   C94   T    
H46   N14   S    
C107  H97   S    
C117  H121  S    
H52   N15   S    
H67   N7    S    
C60   C77   A    
C106  O13   S    
C14   H18   S    
C28   C45   A    
C67   C85   A    
C24   C35   S    
C56   C74   A    
C49   C66   A    
C18   O24   S    
C99   H80   S    
C70   C80   A    
C72   N3    S    
C19   H31   S    
C54   O20   S    
C98   H77   S    
C2    C94   S    
C11   O21   S    
C113  C114  S    
C99   O10   S    
C56   O22   S    
C27   H49   S    
C47   C64   A    
C8    C9    S    
C87   C112  S    
C108  H102  S    
C26   H47   S    
C44   C62   A    
C25   C26   S    
C15   O22   S    
C48   C65   A    
H60   N3    S    
H53   N15   S    
C3    H136  S    
C99   H81   S    
C15   H21   S    
C45   O11   S    
C77   N8    S    
C2    C89   S    
C47   O13   S    
C11   H14   S    
C117  H120  S    
C5    O19   S    
H59   N3    S    
Cu4   O3    S    
C35   C88   T    
C122  H133  S    
C36   O12   A    
C99   C100  S    
C42   O31   A    
C25   O26   S    
C116  O16   S    
C61   C78   A    
C4    H138  S    
C55   C73   A    
C20   H36   S    
C96   C97   S    
H79   N9    S    
C100  C102  S    
C29   C57   S    
C42   C85   S    
Cu1   O32   S    
Cu2   O28   S    
Cu1   O6    S    
C11   H15   S    
C103  H88   S    
C64   C82   A    
H55   N16   S    
C65   N12   S    
C110  H106  S    
C59   O25   S    
C115  H117  S    
H71   N8    S    
C9    H9    S    
C36   O32   A    
C29   C47   A    
C5    H141  S    
C3    H137  S    
H64   N5    S    
C38   C81   S    
C118  H124  S    
Cu3   Cu4   S    
C24   C44   A    
C105  H94   S    
C122  O18   S    
C37   C82   S    
C17   H26   S    
C1    C13   S    
C62   N9    S    
C31   C79   S    
Cu3   O23   S    
C3    C4    S    
C6    H144  S    
Cu2   O2    S    
H65   N6    S    
C13   C43   A    
Cu2   O12   S    
C120  C121  S    
C43   C61   A    
C121  H130  S    
C70   N16   S    
C107  H98   S    
C9    C10   S    
C62   C80   A    
C33   C54   A    
C103  O11   S    
C57   C91   T    
C39   O6    A    
C19   H32   S    
C44   O10   S    
C98   H76   S    
C2    C93   S    
C92   C112  S    
C27   H51   S    
C104  H89   S    
C74   C84   A    
C67   N14   S    
C27   H50   S    
C60   O26   S    
Cu3   O7    S    
C119  C120  S    
C102  H85   S    
C122  H135  S    
C114  C115  S    
C6    C7    S    
H57   N1    S    
C97   H75   S    
C72   C86   A    
C33   C51   A    
C10   H12   S    
C14   H20   S    
C69   C86   A    
C12   H17   S    
H13   N13   S    
C95   C112  S    
C37   O23   A    
C49   O15   S    
C4    H139  S    
C96   O9    S    
C73   C85   A    
H112  N11   S    
C36   C78   S    
C117  C118  S    
H66   N6    S    
C51   O17   S    
C75   C83   A    
C71   N2    S    
Cu1   O29   S    
H62   N4    S    
C76   C82   A    
C30   C58   A    
H101  N10   S    
C113  H111  S    
C111  H107  S    
C45   C63   A    
C32   C50   A    
C16   H25   S    
H24   N13   S    
C71   C78   A    
H54   N16   S    
C66   N13   S    
C23   H43   S    
C120  H128  S    
C104  H91   S    
C120  H129  S    
H70   N8    S    
C110  H105  S    
C18   H29   S    
C66   C84   A    
C23   H42   S    
C22   H40   S    
H61   N4    S    
C95   C101  T    
C12   C14   S    
C54   C72   A    
C116  H119  S    
C5    H142  S    
C113  O15   S    
C105  H92   S    
C108  H99   S    
C102  H86   S    
C15   H22   S    
C103  C104  S    
C40   O29   A    
H58   N2    S    
C22   C23   S    
C119  H126  S    
C51   C69   A    
C73   N4    S    
C119  O17   S    
C109  C110  S    
C39   O28   A    
C55   O21   S    
C59   C76   A    
C61   N1    S    
Cu4   O27   S    
C30   C68   S    
C7    H5    S    
C114  H114  S    
C11   C12   S    
C53   O19   S    
C114  H113  S    
Cu4   O8    S    
C53   C71   A    
