data_mof_unit_9813.cif
_audit_creation_date              2012-10-26T20:03:45-0400
_audit_creation_method            fapswitch 2.2
_symmetry_space_group_name_H-M    P1
_symmetry_Int_Tables_number       1
_space_group_crystal_system       triclinic
_cell_length_a                    12.438939
_cell_length_b                    13.173937
_cell_length_c                    15.809863
_cell_angle_alpha                 75.229083
_cell_angle_beta                  100.682855
_cell_angle_gamma                 117.200712
_cell_volume                      2220.9527622

loop_
_atom_site_label
_atom_site_type_symbol
_atom_type_description
_atom_site_fract_x
_atom_site_fract_y
_atom_site_fract_z
_atom_type_partial_charge
C1    C     C_R   0.855190 0.286293 0.508389 0.516681
C2    C     C_R   0.228358 0.838735 0.466128 0.014964
C3    C     C_R   0.808711 0.080082 0.571318 -0.132213
C4    C     C_R   0.999530 0.499409 0.659868 0.533434
C5    C     C_R   0.726325 0.964096 0.590996 -0.136701
C6    C     C_R   0.605613 0.928950 0.558181 -0.102296
C7    C     C_R   0.565517 0.009307 0.501293 0.044657
C8    C     C_R   0.653218 0.124503 0.473218 0.028940
C9    C     C_R   0.441716 0.979002 0.470371 0.030737
C10   C     C_R   0.409976 0.059695 0.405731 0.017457
C11   C     C_R   0.499703 0.167601 0.371734 -0.141323
C12   C     C_3   0.999737 0.499630 0.917312 0.049903
C13   C     C_R   0.619636 0.198998 0.403984 -0.111695
C14   C     C_R   0.348256 0.871161 0.502165 -0.119137
C15   C     C_R   0.197902 0.920628 0.402190 0.083044
C16   C     C_R   0.144786 0.714403 0.486870 0.568257
C17   C     C_R   0.772697 0.161855 0.514627 -0.001254
C18   C     C_R   0.351575 0.342081 0.653272 -0.164548
C19   C     C_R   0.743285 0.610863 0.365220 0.058759
C20   C     C_R   0.628944 0.579366 0.320798 -0.126418
C21   C     C_R   0.527311 0.512552 0.368399 -0.048718
C22   C     C_R   0.538786 0.495330 0.460480 0.029509
C23   C     C_3   0.112359 0.567602 0.030050 -0.091337
C24   C     C_R   0.652750 0.499843 0.499192 0.171008
C25   C     C_R   0.439365 0.456112 0.514317 -0.014876
C26   C     C_R   0.447127 0.390000 0.599257 -0.003516
C27   C     C_R   0.550789 0.371447 0.629805 -0.169032
C28   C     C_R   0.000133 0.500132 0.340187 0.566959
C29   C     C_R   0.652234 0.426680 0.581424 -0.097946
C30   C     C_R   0.338552 0.487003 0.491568 0.380677
C31   C     C_R   0.251137 0.365521 0.626563 -0.000856
C32   C     C_3   0.965221 0.390558 0.046430 -0.097626
C33   C     C_3   0.887600 0.431938 0.970163 -0.102357
C34   C     C_3   0.000212 0.499910 0.082879 0.051615
C35   C     C_1   0.999372 0.499406 0.749730 -0.036384
C36   C     C_1   0.000263 0.500110 0.250368 -0.000637
C37   C     C_3   0.077364 0.458247 0.992017 -0.096658
C38   C     C_3   0.034739 0.608986 0.953776 -0.102969
C39   C     C_3   0.922596 0.541293 0.008184 -0.105898
C40   C     C_1   0.999454 0.499477 0.825468 -0.063773
C41   C     C_1   0.000329 0.500052 0.174673 -0.042252
C42   C     C_R   0.288881 0.030784 0.373821 -0.076983
Cu1   Cu    Cu3+1 0.098270 0.475420 0.519690 1.023144
Cu2   Cu    Cu3+1 0.901730 0.524580 0.480310 0.907382
H1    H     H_    0.795391 0.376295 0.944131 0.104584
H2    H     H_    0.822184 0.657860 0.327886 0.125487
H3    H     H_    0.936726 0.300961 0.085919 0.113247
H4    H     H_    0.441332 0.473219 0.332989 0.175226
H5    H     H_    0.619200 0.601251 0.249882 0.106253
H6    H     H_    0.724046 0.402345 0.607989 0.175362
H7    H     H_    0.859104 0.575356 0.016291 0.104204
H8    H     H_    0.063241 0.698593 0.914308 0.106584
H9    H     H_    0.204545 0.623213 0.056142 0.124362
H10   H     H_    0.140862 0.424178 0.983935 0.108330
H11   H     H_    0.477139 0.228268 0.319860 0.103595
H12   H     H_    0.366552 0.808935 0.554328 0.119832
H13   H     H_    0.265201 0.092763 0.324200 0.133348
H14   H     H_    0.284752 0.723770 0.312722 0.350252
H15   H     H_    0.049937 0.823349 0.330778 0.242276
H16   H     H_    0.019421 0.871385 0.410191 0.256366
H17   H     H_    0.899971 0.106395 0.602658 0.127232
H18   H     H_    0.546840 0.837793 0.576937 0.121098
H19   H     H_    0.755274 0.901502 0.634440 0.120445
H20   H     H_    0.685834 0.281518 0.372285 0.148048
H21   H     H_    0.177847 0.328188 0.668906 0.128180
H22   H     H_    0.554877 0.316023 0.692954 0.111058
H23   H     H_    0.355429 0.287821 0.717010 0.101615
N1    N     N_R   0.246280 0.438200 0.549540 -0.250592
N2    N     N_R   0.754330 0.561180 0.450980 -0.241068
N3    N     N_3   0.077517 0.893626 0.361731 -0.634351
O1    O     O_R   0.972510 0.318130 0.524770 -0.509260
O2    O     O_2   0.291986 0.529080 0.315395 -0.344717
O3    O     O_3   0.269897 0.678060 0.373234 -0.489417
O4    O     O_R   0.806530 0.359650 0.491510 -0.520541
O5    O     O_R   0.082970 0.479240 0.637550 -0.512138
O6    O     O_R   0.916990 0.520750 0.604290 -0.514521
O7    O     O_R   0.193470 0.640350 0.508490 -0.430111
O8    O     O_R   0.027490 0.681870 0.475230 -0.513097
O9    O     O_R   0.083010 0.479250 0.395710 -0.400240
O10   O     O_R   0.917030 0.520760 0.362450 -0.537121
O11   O     O_2   0.471780 0.680627 0.377370 -0.315981
S1    S     S_3+6 0.342274 0.593878 0.389905 0.016442

loop_
_geom_bond_atom_site_label_1
_geom_bond_atom_site_label_2
_ccdc_geom_bond_type
C14   H12   S    
C30   S1    S    
C8    C13   A    
C27   C29   A    
C33   H1    S    
C39   H7    S    
C19   C20   A    
C18   C26   A    
Cu1   Cu2   S    
O11   S1    D    
C19   H2    S    
C7    C8    A    
C26   C27   A    
C33   C39   S    
C1    O4    A    
C38   C39   S    
C38   H8    S    
Cu1   O9    S    
C5    H19   S    
C31   H21   S    
C16   O7    A    
C12   C37   S    
Cu2   O6    S    
C28   O9    A    
C24   C29   A    
C4    O5    A    
Cu1   N1    S    
C22   C25   A    
C2    C16   S    
C9    C10   A    
C21   H4    S    
C4    C35   S    
C21   C22   A    
C36   C41   T    
C34   C41   S    
C28   O10   A    
C42   H13   S    
C24   N2    A    
C23   H9    S    
C29   H6    S    
C3    H17   S    
Cu1   O5    S    
C31   N1    A    
C34   C39   S    
Cu2   O10   S    
C18   H23   S    
C23   C37   S    
C32   C34   S    
C12   C40   S    
C9    C14   A    
C20   H5    S    
H16   N3    S    
C23   C34   S    
Cu2   N2    S    
C1    O1    A    
C32   C37   S    
Cu2   O4    S    
C2    C15   A    
C37   H10   S    
C32   H3    S    
C22   C24   A    
C19   N2    A    
O3    S1    S    
C11   H11   S    
C25   C30   A    
C7    C9    A    
C15   N3    S    
C10   C42   A    
Cu1   O1    S    
C15   C42   A    
C3    C5    A    
C6    C7    A    
Cu1   O7    S    
C23   C38   S    
C1    C17   S    
C8    C17   A    
C32   C33   S    
C6    H18   S    
Cu2   O8    S    
C35   C40   T    
C25   C26   A    
C27   H22   S    
C11   C13   A    
C5    C6    A    
C13   H20   S    
C3    C17   A    
C16   O8    A    
C12   C38   S    
C2    C14   A    
O2    S1    D    
C4    O6    A    
C10   C11   A    
H15   N3    S    
C20   C21   A    
C28   C36   S    
C18   C31   A    
C12   C33   S    
C30   N1    A    
H14   O3    S    
