data_mof_unit_5366.cif
_audit_creation_date              2013-03-05T16:00:38-0500
_audit_creation_method            fapswitch 2.2
_symmetry_space_group_name_H-M    P1
_symmetry_Int_Tables_number       1
_space_group_crystal_system       triclinic
_cell_length_a                    8.37727
_cell_length_b                    12.868265
_cell_length_c                    19.069329
_cell_angle_alpha                 100.595137
_cell_angle_beta                  90.594844
_cell_angle_gamma                 98.752911
_cell_volume                      1995.55340749

loop_
_atom_site_label
_atom_site_type_symbol
_atom_site_description
_atom_site_fract_x
_atom_site_fract_y
_atom_site_fract_z
_atom_type_partial_charge
P1    P     P_3+3 0.042930 0.392230 0.337410 0.466193
O1    O     O_2   0.875110 0.423180 0.326290 -0.344635
O2    O     O_3   0.123410 0.433040 0.414950 -0.425789
O3    O     O_3   0.661010 0.625070 0.369680 -0.313643
O4    O     O_2   0.693172 0.496369 0.250955 -0.429920
O5    O     O_3   0.999305 0.253095 0.324108 -0.534599
O6    O     O_3   0.736001 0.691137 0.231513 -0.629834
C1    C     C_3   0.676876 0.795605 0.146052 -1.021085
H1    H     H_    0.645783 0.873275 0.137311 0.287996
H2    H     H_    0.797035 0.787455 0.123708 0.249809
P2    P     P_3+3 0.672230 0.754900 0.555730 0.499426
P3    P     P_3+3 0.136990 0.821282 0.407445 0.509710
O7    O     O_2   0.847800 0.768730 0.534310 -0.358123
O8    O     O_3   0.082250 0.684470 0.405440 -0.424233
O9    O     O_2   0.004801 0.877772 0.447362 -0.353584
O10   O     O_3   0.718549 0.794013 0.647888 -0.555050
O11   O     O_3   0.123078 0.842841 0.319305 -0.465881
C2    C     C_3   0.105865 0.742790 0.272745 0.609112
H3    H     H_    0.995621 0.690309 0.284241 0.128447
H4    H     H_    0.210056 0.702459 0.280276 0.055186
C3    C     C_3   0.093757 0.755321 0.194623 -0.911544
H5    H     H_    0.002723 0.690603 0.164311 0.213672
H6    H     H_    0.061065 0.833913 0.189956 0.306801
C4    C     C_3   0.181054 0.792929 0.621254 0.420118
H7    H     H_    0.299803 0.797559 0.597231 -0.010821
H8    H     H_    0.092352 0.746831 0.580108 0.165095
C5    C     C_3   0.140459 0.905401 0.641042 -0.901462
H9    H     H_    0.229894 0.956330 0.680949 0.253875
H10   H     H_    0.141502 0.941545 0.592565 0.241126
H11   H     H_    0.019393 0.902804 0.664231 0.269539
Ba1   Ba    Ba6+2 0.853180 0.547790 0.465300 1.605243
C6    C     C_3   0.967850 0.223353 0.390165 0.291832
H12   H     H_    0.862706 0.257749 0.413577 0.095471
H13   H     H_    0.073911 0.249351 0.427678 0.153672
C7    C     C_3   0.931971 0.103214 0.378542 -0.687664
H14   H     H_    0.809278 0.077163 0.353020 0.281755
H15   H     H_    0.936181 0.074736 0.429503 0.217010
H16   H     H_    0.024934 0.068461 0.344692 0.294577
C8    C     C_3   0.579766 0.800790 0.687346 0.430630
H17   H     H_    0.601212 0.774436 0.738445 0.101462
H18   H     H_    0.474423 0.746177 0.660852 0.127931
C9    C     C_3   0.551167 0.916096 0.705076 -1.124863
H19   H     H_    0.663337 0.967626 0.729620 0.266579
H20   H     H_    0.453416 0.922777 0.743676 0.268132
H21   H     H_    0.516860 0.943762 0.656164 0.242179
P4    P     P_3+3 0.146790 0.607860 0.662600 0.491390
O12   O     O_2   0.314600 0.576860 0.673750 -0.357488
O13   O     O_3   0.066300 0.567050 0.585060 -0.400782
O14   O     O_3   0.528700 0.375020 0.630330 -0.315200
O15   O     O_3   0.185030 0.748453 0.683144 -0.573245
P5    P     P_3+3 0.059849 0.177326 0.592991 0.456379
O16   O     O_3   0.611760 0.365720 0.463870 -0.394184
O17   O     O_3   0.107460 0.315620 0.594570 -0.352129
O18   O     O_2   0.179762 0.123128 0.543339 -0.391247
O19   O     O_3   0.116066 0.155290 0.676911 -0.478215
Ba2   Ba    Ba6+2 0.336650 0.452300 0.534710 1.597369
P6    P     P_3+3 0.621542 0.599609 0.276637 0.475938
C10   C     C_3   0.679335 0.788964 0.226326 1.052587
H22   H     H_    0.588402 0.730885 0.114859 0.221940
O20   O     O_3   0.577950 0.634370 0.536140 -0.369766
C11   C     C_3   0.462227 0.267761 0.319036 0.446491
H23   H     H_    0.342895 0.285947 0.338116 0.076652
H24   H     H_    0.553630 0.341536 0.330924 0.124304
C12   C     C_3   0.447371 0.230900 0.238456 -0.916783
H25   H     H_    0.354602 0.158171 0.224436 0.280148
H26   H     H_    0.411107 0.295092 0.212929 0.202694
H27   H     H_    0.565343 0.212451 0.217752 0.271506
P7    P     P_3+3 0.522241 0.229213 0.443339 0.436405
O21   O     O_2   0.341900 0.231310 0.465740 -0.386911
O22   O     O_3   0.509965 0.186267 0.350559 -0.545845
H28   H     H_    0.209104 0.748343 0.168024 0.257254
C13   C     C_3   0.982229 0.160769 0.720267 0.401487
H29   H     H_    0.931774 0.235285 0.719125 0.063243
H30   H     H_    0.887393 0.090269 0.702032 0.039141
C14   C     C_3   0.034217 0.160011 0.796756 -0.938126
H31   H     H_    0.128242 0.230283 0.816914 0.280956
H32   H     H_    0.928605 0.163599 0.831347 0.214779
H33   H     H_    0.083333 0.085237 0.799207 0.254574
P8    P     P_3+3 0.556512 0.386329 0.722633 0.468965
C15   C     C_3   0.511146 0.192366 0.747274 0.491800
H34   H     H_    0.639029 0.205066 0.731556 -0.027662
O23   O     O_2   0.475622 0.485345 0.749503 -0.398949
O24   O     O_3   0.432341 0.282471 0.752376 -0.487698
H35   H     H_    0.445558 0.127239 0.706034 0.116218
H36   H     H_    0.541148 0.225618 0.862856 0.261066
C16   C     C_3   0.504923 0.156153 0.819022 -1.046157
H37   H     H_    0.588780 0.097911 0.821112 0.237950
H38   H     H_    0.380393 0.118337 0.827674 0.270840
C17   C     C_R   0.079328 0.537242 0.801594 -0.307969
H39   H     H_    0.188036 0.590667 0.822783 0.156524
C18   C     C_R   0.024550 0.542128 0.731473 0.257191
C19   C     C_R   0.852100 0.398182 0.807318 -0.388677
H40   H     H_    0.801410 0.325057 0.823850 0.146772
C20   C     C_R   0.775858 0.427516 0.749700 0.134946
C21   C     C_R   0.342909 0.566465 0.184202 -0.367632
H41   H     H_    0.398252 0.629157 0.158439 0.138872
C22   C     C_R   0.408187 0.559792 0.250855 0.308129
C23   C     C_R   0.128923 0.424905 0.196949 -0.311817
H42   H     H_    0.030269 0.361547 0.176913 0.162811
C24   C     C_R   0.170417 0.444755 0.270782 0.275895
C25   C     C_R   0.991931 0.464196 0.842862 0.135578
C26   C     C_R   0.865212 0.499273 0.713489 -0.070666
C27   C     C_R   0.209230 0.491731 0.151548 0.096930
C28   C     C_R   0.316107 0.505711 0.295679 -0.438887
H43   H     H_    0.360794 0.508758 0.349632 0.156050
C29   C     C_R   0.767466 0.394233 0.961540 -0.186304
C30   C     C_R   0.667073 0.362010 0.013729 -0.124863
C31   C     C_R   0.715014 0.395963 0.084567 -0.089985
C32   C     C_R   0.868193 0.453376 0.102061 -0.156640
C33   C     C_R   0.987411 0.457356 0.050334 0.056223
C34   C     C_R   0.933617 0.436543 0.976149 0.109083
C35   C     C_R   0.154208 0.484536 0.072408 -0.061928
C36   C     C_R   0.265821 0.499180 0.017179 0.114708
C37   C     C_R   0.211715 0.481747 0.943422 0.040258
C38   C     C_R   0.044820 0.458124 0.921071 -0.072896
C39   C     C_R   0.434218 0.529729 0.032103 -0.189467
C40   C     C_R   0.538445 0.560062 0.981017 -0.135800
C41   C     C_R   0.489000 0.531341 0.910204 -0.092997
C42   C     C_R   0.330764 0.482095 0.891988 -0.134920
H44   H     H_    0.703555 0.391097 0.912892 0.136714
H45   H     H_    0.543475 0.324155 0.999713 0.137683
H46   H     H_    0.629490 0.383841 0.125506 0.152123
H47   H     H_    0.893287 0.492571 0.156765 0.177779
H48   H     H_    0.493689 0.525224 0.080874 0.146255
H49   H     H_    0.664150 0.591738 0.995503 0.144608
H50   H     H_    0.577696 0.540983 0.870372 0.154881
H51   H     H_    0.299738 0.444399 0.837550 0.200027
C43   C     C_R   0.756305 0.183725 0.532681 -0.463363
C44   C     C_R   0.428876 0.810494 0.476898 -0.397138
C45   C     C_R   0.400700 0.984348 0.452632 -0.117013
C46   C     C_R   0.337795 0.876932 0.449720 0.247661
C47   C     C_R   0.578237 0.851077 0.512724 0.251776
C48   C     C_R   0.640735 0.962648 0.519504 -0.014201
C49   C     C_R   0.550968 0.029417 0.487768 -0.051335
C50   C     C_R   0.612839 0.139923 0.493105 0.260777
C51   C     C_R   0.849560 0.118962 0.560456 0.132002
C52   C     C_R   0.790462 0.009490 0.555358 -0.213915
H52   H     H_    0.329127 0.031779 0.427943 0.180899
H53   H     H_    0.863732 0.961893 0.578390 0.178352
H54   H     H_    0.802940 0.267919 0.536803 0.161946
H55   H     H_    0.379470 0.726654 0.472429 0.147898
N1    N     N_R   0.795716 0.876320 0.265687 0.225181
O25   O     O_R   0.816151 0.881736 0.333914 -0.348484
O26   O     O_R   0.863236 0.954870 0.236270 -0.433158
N2    N     N_R   0.520225 0.801991 0.255884 0.169146
O27   O     O_R   0.437841 0.865424 0.230231 -0.421724
O28   O     O_R   0.497557 0.793923 0.322085 -0.446821
I1    I     I_    0.749507 0.571062 0.646777 -0.128618

loop_
_geom_bond_atom_site_label_1
_geom_bond_atom_site_label_2
_geom_bond_distance
_ccdc_geom_bond_type
C11   O22   1.405521 S    
C1    H1    1.110940 S    
O5    C6    1.398625 S    
C48   C52   1.415845 A    
P3    C46   1.839947 S    
C5    H10   1.108147 S    
C2    C3    1.531598 S    
C7    H14   1.109255 S    
C4    C5    1.518031 S    
P1    Ba1   3.425676 S    
O8    Ba1   2.799204 S    
C15   H35   1.109607 S    
P2    C47   1.865668 S    
N2    O27   1.301225 A    
C10   N2    1.473528 S    
C8    H18   1.095148 S    
H36   C16   1.107813 S    
C39   C40   1.384746 A    
C52   H53   1.073556 S    
C3    H28   1.104034 S    
C7    H15   1.101875 S    
P5    C51   1.858940 S    
C4    H8    1.096474 S    
P1    O1    1.541214 D    
C43   C51   1.391851 A    
C1    H22   1.103441 S    
C15   H34   1.111596 S    
C16   H38   1.109466 S    
C44   H55   1.082638 S    
C29   C30   1.390203 A    
C23   C27   1.432280 A    
C24   C28   1.374742 A    
C31   C32   1.384096 A    
C2    H4    1.102039 S    
C2    H3    1.107203 S    
P2    O10   1.758823 S    
C11   H24   1.111304 S    
C33   C34   1.444564 A    
C35   C36   1.434829 A    
C15   C16   1.523266 S    
C26   I1    2.022478 S    
C41   C42   1.390415 A    
C21   H41   1.069481 S    
P7    O21   1.577081 D    
P3    O11   1.758644 S    
C30   C31   1.376672 A    
Ba1   Ba2   4.654794 S    
C17   C18   1.424607 A    
Ba1   O16   2.848428 S    
O6    C10   1.430574 S    
C17   C25   1.453762 A    
C37   C42   1.406132 A    
O16   P7    1.772408 S    
C36   C39   1.416815 A    
C1    C10   1.548869 S    
P2    Ba1   3.459525 S    
C3    H5    1.108975 S    
C5    H11   1.108916 S    
C45   C49   1.409726 A    
C9    H20   1.109263 S    
C15   O24   1.408033 S    
P1    C24   1.826489 S    
C28   H43   1.083004 S    
N2    O28   1.299116 A    
C21   C27   1.415708 A    
C37   C38   1.428096 A    
C8    C9    1.516154 S    
C29   C34   1.420193 A    
C4    O15   1.405332 S    
P4    O13   1.582019 S    
P1    O5    1.742254 S    
O3    Ba1   2.828168 S    
C6    C7    1.503560 S    
C7    H16   1.110593 S    
C4    H7    1.097486 S    
P8    C20   1.872721 S    
C13   H30   1.110867 S    
C43   C50   1.396527 A    
C8    H17   1.110487 S    
C16   H37   1.107898 S    
C47   C48   1.433081 A    
P4    C18   1.913604 S    
Ba2   O20   2.847839 S    
O1    Ba1   2.858069 S    
P1    O2    1.581991 S    
C9    H21   1.107683 S    
C6    H13   1.105177 S    
Ba1   O20   2.945388 S    
O3    P6    1.762327 S    
C11   C12   1.520400 S    
C14   H31   1.111308 S    
C12   H27   1.110854 S    
O2    Ba2   2.835565 S    
C10   N1    1.455522 S    
P3    O9    1.546978 D    
P6    C22   1.819119 S    
C19   C20   1.403203 A    
O11   C2    1.409665 S    
O2    Ba1   2.961114 S    
C14   H32   1.110566 S    
C19   C25   1.422024 A    
P7    O22   1.750895 S    
P3    O8    1.743671 S    
C23   H42   1.080527 S    
C23   C24   1.413840 A    
Ba1   O13   2.834954 S    
C3    H6    1.105714 S    
C48   C49   1.431221 A    
C25   C38   1.570452 S    
N1    O26   1.302854 A    
C9    H19   1.108538 S    
C30   H45   1.083375 S    
C18   C26   1.378539 A    
P2    O20   1.605295 S    
C45   H52   1.079295 S    
C36   C37   1.440072 A    
O17   Ba2   2.799803 S    
O13   Ba2   2.961961 S    
P4    O12   1.541508 D    
C39   H48   1.065606 S    
C29   H44   1.057465 S    
O7    Ba1   2.912296 S    
P7    C50   1.856943 S    
C32   H47   1.075391 S    
O19   C13   1.402657 S    
C31   H46   1.081436 S    
C13   H29   1.108791 S    
P8    O23   1.541144 D    
C21   C22   1.400681 A    
C49   C50   1.422150 A    
O14   Ba2   2.827547 S    
P4    O15   1.757729 S    
O4    P6    1.540893 D    
P5    O18   1.543421 D    
C12   H25   1.110699 S    
C44   C47   1.399009 A    
C45   C46   1.393172 A    
C43   H54   1.082512 S    
C32   C33   1.412979 A    
C6    H12   1.106902 S    
P8    O24   1.748654 S    
P2    O7    1.523583 D    
C13   C14   1.520067 S    
C19   H40   1.074919 S    
P5    O19   1.747870 S    
C11   H23   1.110841 S    
C14   H33   1.110844 S    
C33   C35   1.427196 A    
C22   C28   1.370773 A    
O10   C8    1.396549 S    
O14   P8    1.749455 S    
C20   C26   1.387300 A    
C1    H2    1.109239 S    
Ba2   O21   2.912483 S    
P4    Ba2   3.426190 S    
C5    H9    1.106919 S    
N1    O25   1.298177 A    
C27   C35   1.555554 S    
C34   C38   1.448079 A    
C41   H50   1.078294 S    
P5    O17   1.758125 S    
C17   H39   1.079301 S    
C40   C41   1.374747 A    
C40   H49   1.083193 S    
O6    P6    1.758732 S    
C51   C52   1.405501 A    
O16   Ba2   2.944541 S    
C12   H26   1.110290 S    
O12   Ba2   2.858443 S    
C44   C46   1.391031 A    
C42   H51   1.073000 S    
