data_mof_unit_12798.cif
_audit_creation_date              2012-12-10T19:44:58-0500
_audit_creation_method            fapswitch 2.2
_symmetry_space_group_name_H-M    P1
_symmetry_Int_Tables_number       1
_space_group_crystal_system       triclinic
_cell_length_a                    15.080007
_cell_length_b                    10.833325
_cell_length_c                    13.682151
_cell_angle_alpha                 90.106973
_cell_angle_beta                  89.87798
_cell_angle_gamma                 89.747739
_cell_volume                      2235.17605194

loop_
_atom_site_label
_atom_site_type_symbol
_atom_type_description
_atom_site_fract_x
_atom_site_fract_y
_atom_site_fract_z
_atom_type_partial_charge
C1    C     C_R   0.497563 0.262145 0.499718 0.796303
C2    C     C_R   0.502437 0.737854 0.500282 0.796306
C3    C     C_R   0.045833 0.483623 0.677659 -0.207965
C4    C     C_R   0.954167 0.516327 0.322339 -0.207965
C5    C     C_R   0.306983 0.249939 0.260775 -0.115414
C6    C     C_R   0.693040 0.750051 0.739194 -0.115410
C7    C     C_R   0.344215 0.191420 0.342061 -0.094545
C8    C     C_R   0.655796 0.808571 0.657914 -0.094534
C9    C     C_R   0.421811 0.120122 0.331740 0.126985
C10   C     C_R   0.578206 0.879877 0.668252 0.126980
C11   C     C_R   0.460258 0.106051 0.238722 -0.164648
C12   C     C_R   0.539778 0.893959 0.761278 -0.164659
C13   C     C_R   0.422736 0.164673 0.157668 -0.147773
C14   C     C_R   0.577311 0.835334 0.842326 -0.147761
C15   C     C_R   0.346464 0.237120 0.168775 -0.110109
C16   C     C_R   0.653576 0.762878 0.831202 -0.110115
C17   C     C_R   0.469085 0.933192 0.419767 -0.237582
C18   C     C_R   0.530917 0.066808 0.580232 -0.237580
C19   C     C_R   0.504327 0.871727 0.500857 -0.081379
C20   C     C_R   0.495674 0.128273 0.499143 -0.081375
C21   C     C_R   0.536545 0.938999 0.581929 0.000259
C22   C     C_R   0.463460 0.061001 0.418069 0.000254
C23   C     C_R   0.328451 0.500143 0.500085 0.811656
C24   C     C_R   0.671549 0.499851 0.499916 0.811654
C25   C     C_R   0.556972 0.424321 0.793037 0.020360
C26   C     C_R   0.443029 0.575681 0.206963 0.020358
C27   C     C_R   0.443016 0.576045 0.793188 0.042483
C28   C     C_R   0.556986 0.423959 0.206812 0.042498
C29   C     C_R   0.441462 0.578858 0.896616 -0.010053
C30   C     C_R   0.558543 0.421149 0.103384 -0.010042
C31   C     C_R   0.499877 0.500381 0.948184 0.031619
C32   C     C_R   0.500127 0.499625 0.051816 0.031613
C33   C     C_R   0.558121 0.422533 0.895997 -0.026885
C34   C     C_R   0.441882 0.577472 0.104002 -0.026893
C35   C     C_R   0.383379 0.657456 0.949488 0.152325
C36   C     C_R   0.616629 0.342557 0.050512 0.152312
C37   C     C_R   0.384025 0.655594 0.052673 -0.253227
C38   C     C_R   0.615983 0.344416 0.947327 -0.253243
C39   C     C_R   0.814887 0.507862 0.411196 -0.242980
C40   C     C_R   0.185113 0.492106 0.588804 -0.242980
C41   C     C_R   0.768370 0.499593 0.499833 -0.076579
C42   C     C_R   0.231630 0.500385 0.500166 -0.076579
C43   C     C_R   0.814549 0.490976 0.588476 -0.261840
C44   C     C_R   0.185451 0.508991 0.411524 -0.261835
C45   C     C_R   0.906904 0.491360 0.589191 0.109765
C46   C     C_R   0.093096 0.508597 0.410808 0.109765
C47   C     C_R   0.953522 0.499856 0.499958 0.063796
C48   C     C_R   0.046478 0.500100 0.500041 0.063795
C49   C     C_R   0.907280 0.508030 0.410636 0.106538
C50   C     C_R   0.092720 0.491927 0.589363 0.106538
C51   C     C_R   0.953378 0.483329 0.677573 -0.218998
C52   C     C_R   0.046622 0.516622 0.322426 -0.218998
Cu1   Cu    Cu3+1 0.500010 0.499980 0.597420 0.942956
Cu2   Cu    Cu3+1 0.499990 0.500020 0.402580 0.942956
H1    H     H_    0.779331 0.514426 0.342580 0.159824
H2    H     H_    0.220669 0.485546 0.657420 0.159823
H3    H     H_    0.443009 0.881293 0.358399 0.153009
H4    H     H_    0.556994 0.118707 0.641600 0.153006
H5    H     H_    0.601416 0.365034 0.751862 0.122289
H6    H     H_    0.398585 0.634968 0.248138 0.122291
H7    H     H_    0.399068 0.634728 0.751382 0.154013
H8    H     H_    0.600935 0.365274 0.248617 0.154017
H9    H     H_    0.339482 0.715791 0.093043 0.133774
H10   H     H_    0.660526 0.284221 0.906957 0.133775
H11   H     H_    0.778746 0.483554 0.657004 0.149492
H12   H     H_    0.221253 0.516416 0.342996 0.149494
H13   H     H_    0.918224 0.476870 0.746529 0.140566
H14   H     H_    0.081776 0.523079 0.253469 0.140567
H15   H     H_    0.080659 0.477342 0.746685 0.146527
H16   H     H_    0.919341 0.522605 0.253314 0.146528
H17   H     H_    0.317912 0.283177 0.106076 0.126805
H18   H     H_    0.682137 0.716818 0.893896 0.126804
H19   H     H_    0.247569 0.305321 0.269085 0.121914
H20   H     H_    0.752449 0.694662 0.730872 0.121919
H21   H     H_    0.313305 0.202669 0.413081 0.104184
H22   H     H_    0.686692 0.797315 0.586888 0.104176
H23   H     H_    0.519936 0.051270 0.229352 0.122098
H24   H     H_    0.480106 0.948749 0.770661 0.122096
H25   H     H_    0.453190 0.154723 0.086357 0.132087
H26   H     H_    0.546871 0.845291 0.913643 0.132085
N1    N     N_R   0.499960 0.499900 0.743810 -0.189067
N2    N     N_R   0.500040 0.500100 0.256190 -0.189069
O1    O     O_R   0.500000 0.319630 0.582270 -0.590477
O2    O     O_R   0.500000 0.680370 0.417730 -0.590476
O3    O     O_R   0.499990 0.319660 0.417730 -0.573975
O4    O     O_R   0.500010 0.680340 0.582270 -0.573974
O5    O     O_R   0.370260 0.499960 0.582280 -0.590981
O6    O     O_R   0.629740 0.500040 0.417720 -0.590982
O7    O     O_R   0.370250 0.499990 0.417740 -0.589043
O8    O     O_R   0.629750 0.500010 0.582260 -0.589043
N3    N     N_3   0.323855 0.738707 0.898436 -0.612124
H27   H     H_    0.362162 0.807875 0.866277 0.205133
H28   H     H_    0.281004 0.782956 0.947558 0.218892
N4    N     N_3   0.676161 0.261315 0.101564 -0.612136
H29   H     H_    0.637861 0.192122 0.133700 0.205136
H30   H     H_    0.719031 0.217099 0.052444 0.218895

loop_
_geom_bond_atom_site_label_1
_geom_bond_atom_site_label_2
_ccdc_geom_bond_type
Cu2   O6    S    
C13   H25   S    
C27   C29   A    
C18   C21   A    
C44   H12   S    
C16   H18   S    
C4    H16   S    
C47   C49   A    
C35   N3    S    
Cu1   Cu2   S    
C23   C42   S    
C4    C52   A    
C19   C21   A    
C9    C22   S    
C45   C51   A    
C34   C37   A    
C46   C52   A    
C8    H22   S    
Cu1   N1    S    
C27   H7    S    
C2    O2    A    
C26   C34   A    
C39   H1    S    
C31   C32   A    
C40   H2    S    
C12   H24   S    
C23   O7    A    
Cu1   O4    S    
C14   H26   S    
C11   H23   S    
C52   H14   S    
C3    H15   S    
C48   C50   A    
C26   N2    A    
C23   O5    A    
C25   N1    A    
C24   C41   S    
C41   C43   A    
C42   C44   A    
Cu2   O2    S    
C37   H9    S    
C3    C50   A    
C44   C46   A    
C6    H20   S    
C38   H10   S    
C45   C47   A    
C10   C21   S    
C1    O3    A    
C46   C48   A    
C28   N2    A    
C27   N1    A    
Cu2   O7    S    
C39   C41   A    
N3    H27   S    
C5    C7    A    
C3    C51   A    
C7    H21   S    
C32   C34   A    
N3    H28   S    
C24   O6    A    
C47   C48   A    
C43   H11   S    
C31   C33   A    
Cu1   O5    S    
C51   H13   S    
N4    H30   S    
C9    C11   A    
C10   C12   A    
C8    C10   A    
C39   C49   A    
C20   C22   A    
C13   C15   A    
C14   C16   A    
Cu2   N2    S    
C7    C9    A    
C1    C20   S    
C35   C37   A    
C2    C19   S    
C33   C38   A    
C12   C14   A    
C40   C42   A    
C24   O8    A    
Cu2   O3    S    
C6    C8    A    
C1    O1    A    
C15   H17   S    
C29   C35   A    
C17   C22   A    
C30   C36   A    
C4    C49   A    
Cu1   O1    S    
C36   C38   A    
C43   C45   A    
C30   C32   A    
C11   C13   A    
C40   C50   A    
C28   C30   A    
C17   C19   A    
C18   H4    S    
C2    O4    A    
C18   C20   A    
C5    H19   S    
N4    H29   S    
C5    C15   A    
C6    C16   A    
C36   N4    S    
C29   C31   A    
C17   H3    S    
Cu1   O8    S    
C25   H5    S    
C26   H6    S    
C25   C33   A    
C28   H8    S    
