data_mof_unit_61725.cif
_audit_creation_date              2012-10-26T20:16:52-0400
_audit_creation_method            fapswitch 2.2
_symmetry_space_group_name_H-M    P1
_symmetry_Int_Tables_number       1
_space_group_crystal_system       triclinic
_cell_length_a                    10.914781
_cell_length_b                    10.888482
_cell_length_c                    10.442531
_cell_angle_alpha                 92.096135
_cell_angle_beta                  90.984049
_cell_angle_gamma                 86.716773
_cell_volume                      1238.0392154

loop_
_atom_site_label
_atom_site_type_symbol
_atom_type_description
_atom_site_fract_x
_atom_site_fract_y
_atom_site_fract_z
_atom_type_partial_charge
C1    C     C_R   0.498614 0.261674 0.497629 0.590468
C2    C     C_R   0.433359 0.851777 0.814219 -0.075109
C3    C     C_R   0.629358 0.111801 0.297848 0.019812
C4    C     C_R   0.370688 0.888197 0.702167 0.019842
C5    C     C_R   0.758096 0.105658 0.301231 -0.137854
C6    C     C_R   0.241964 0.894172 0.698725 -0.137873
C7    C     C_R   0.823967 0.128340 0.191423 0.019420
C8    C     C_R   0.176085 0.871479 0.808526 0.019461
C9    C     C_R   0.760012 0.165992 0.080299 -0.060940
C10   C     C_R   0.240026 0.834001 0.919710 -0.060887
C11   C     C_R   0.571409 0.927607 0.410391 -0.001179
C12   C     C_R   0.501390 0.738325 0.502370 0.590387
C13   C     C_R   0.428574 0.072390 0.589587 -0.001171
C14   C     C_R   0.506594 0.871777 0.506650 0.031729
C15   C     C_R   0.493407 0.128222 0.493342 0.031707
C16   C     C_R   0.261421 0.500571 0.498641 0.565179
C17   C     C_R   0.738579 0.499446 0.501359 0.565145
C18   C     C_R   0.438173 0.943992 0.598549 -0.053996
C19   C     C_R   0.561840 0.056009 0.401450 -0.054026
C20   C     C_1   0.500009 0.500005 0.071993 0.070601
C21   C     C_1   0.499987 0.499995 0.928007 0.070629
C22   C     C_R   0.149122 0.522208 0.039721 -0.090413
C23   C     C_R   0.872090 0.499717 0.503770 -0.001583
C24   C     C_R   0.850900 0.477854 0.960302 -0.090314
C25   C     C_R   0.102142 0.545070 0.163225 0.027160
C26   C     C_R   0.897935 0.455008 0.836812 0.027104
C27   C     C_R   0.116348 0.452023 0.254827 -0.022841
C28   C     C_R   0.883652 0.548031 0.745178 -0.022858
C29   C     C_R   0.179514 0.337984 0.221554 0.073134
C30   C     C_R   0.820384 0.662031 0.778416 0.073254
C31   C     C_R   0.226255 0.318887 0.097332 -0.017675
C32   C     C_R   0.773603 0.681112 0.902628 -0.017586
C33   C     C_R   0.210407 0.410004 0.007323 -0.119251
C34   C     C_R   0.127911 0.500339 0.496225 -0.001637
C35   C     C_R   0.789512 0.590020 0.992661 -0.119148
C36   C     C_R   0.933165 0.473033 0.388580 -0.145752
C37   C     C_R   0.066835 0.527053 0.611409 -0.145963
C38   C     C_2   0.958194 0.103133 0.192468 0.274029
C39   C     C_2   0.041850 0.896496 0.807403 0.273837
C40   C     C_2   0.652692 0.853199 0.319435 0.247245
C41   C     C_2   0.347229 0.146787 0.680496 0.247178
C42   C     C_2   0.039094 0.666453 0.196453 0.220282
C43   C     C_2   0.961133 0.333674 0.803639 0.220154
C44   C     C_2   0.196645 0.238656 0.315278 0.235852
C45   C     C_R   0.939898 0.526462 0.617012 -0.082395
C46   C     C_2   0.803205 0.761341 0.684671 0.235906
C47   C     C_R   0.060102 0.473605 0.382984 -0.082349
C48   C     C_R   0.631929 0.178005 0.078540 -0.152852
C49   C     C_R   0.368104 0.822158 0.921532 -0.152865
C50   C     C_R   0.566674 0.148384 0.185852 -0.075023
Cu1   Cu    Cu3+1 0.500000 0.500000 0.625300 1.012705
Cu2   Cu    Cu3+1 0.500000 0.500000 0.374700 1.012635
H1    H     H_    0.245698 0.393427 0.911598 0.149717
H2    H     H_    0.532388 0.850106 0.819725 0.164178
H3    H     H_    0.004874 0.074734 0.280008 0.111228
H4    H     H_    0.995180 0.924763 0.719816 0.111111
H5    H     H_    0.652238 0.873991 0.218540 0.114808
H6    H     H_    0.347550 0.125934 0.781362 0.114894
H7    H     H_    0.020575 0.693951 0.295430 0.134240
H8    H     H_    0.979978 0.306302 0.704672 0.134406
H9    H     H_    0.157798 0.249932 0.410027 0.137093
H10   H     H_    0.842045 0.750062 0.589918 0.137085
H11   H     H_    0.274128 0.232607 0.068947 0.155979
H12   H     H_    0.754194 0.606589 0.088381 0.149747
H13   H     H_    0.725652 0.767363 0.930985 0.155836
H14   H     H_    0.881968 0.452109 0.301257 0.141086
H15   H     H_    0.118033 0.547987 0.698727 0.141045
H16   H     H_    0.808382 0.182879 0.993922 0.201493
H17   H     H_    0.191641 0.817115 0.006083 0.201409
H18   H     H_    0.806404 0.073413 0.386314 0.109097
H19   H     H_    0.193662 0.926288 0.613595 0.108990
H20   H     H_    0.138243 0.591188 0.967697 0.147741
H21   H     H_    0.861824 0.408898 0.032352 0.147765
H22   H     H_    0.583086 0.205480 0.992157 0.114536
H23   H     H_    0.416936 0.794822 0.007961 0.114518
H24   H     H_    0.467629 0.150197 0.180393 0.164160
N1    N     N_1   0.500010 0.499990 0.186410 -0.199247
N2    N     N_1   0.499990 0.500010 0.813590 -0.199228
O1    O     O_R   0.499990 0.319650 0.605810 -0.481734
O2    O     O_2   0.982081 0.889052 0.904175 -0.410414
O3    O     O_2   0.724425 0.771974 0.357659 -0.517490
O4    O     O_2   0.275584 0.228075 0.642257 -0.517560
O5    O     O_2   0.005730 0.737346 0.113463 -0.477168
O6    O     O_2   0.994239 0.262659 0.886671 -0.477229
O7    O     O_2   0.253505 0.141811 0.287427 -0.534622
O8    O     O_2   0.746327 0.858184 0.712513 -0.534599
O9    O     O_R   0.500010 0.680350 0.394190 -0.481824
O10   O     O_R   0.499990 0.319640 0.394190 -0.496740
O11   O     O_R   0.500010 0.680360 0.605810 -0.496686
O12   O     O_R   0.319640 0.500010 0.605810 -0.481058
O13   O     O_R   0.680360 0.499990 0.394190 -0.481074
O14   O     O_R   0.319650 0.500010 0.394190 -0.508227
O15   O     O_R   0.680350 0.499990 0.605810 -0.508222
O16   O     O_2   0.017944 0.110570 0.095680 -0.410355

loop_
_geom_bond_atom_site_label_1
_geom_bond_atom_site_label_2
_ccdc_geom_bond_type
C16   O12   A    
C23   C45   A    
C27   C29   A    
C34   C37   A    
C14   C18   A    
C17   O13   A    
C13   C41   S    
C15   C19   A    
C11   C19   A    
C17   C23   S    
C20   N1    T    
C46   H10   S    
C24   C26   A    
C41   H6    S    
Cu1   O12   S    
C11   C14   A    
C36   H14   S    
C24   H21   S    
C36   C47   A    
C16   C34   S    
C38   H3    S    
C22   C25   A    
C21   N2    T    
C49   H23   S    
C3    C19   S    
C35   H12   S    
C1    C15   S    
C8    C39   S    
C4    C18   S    
C1    O10   A    
C48   C50   A    
C48   H22   S    
C43   O6    D    
C22   H20   S    
C3    C50   A    
C26   C43   S    
C33   H1    S    
C6    H19   S    
C28   C45   S    
C24   C35   A    
Cu1   Cu2   S    
C32   C35   A    
C31   H11   S    
C12   O11   A    
Cu2   O10   S    
C4    C6    A    
C2    H2    S    
C5    C7    A    
C6    C8    A    
C42   H7    S    
C2    C4    A    
C5    H18   S    
C2    C49   A    
C50   H24   S    
C39   H4    S    
C38   O16   D    
C31   C33   A    
C43   H8    S    
Cu1   O15   S    
C13   C18   A    
C12   C14   S    
C16   O14   A    
C13   C15   A    
C29   C44   S    
C1    O1    A    
Cu2   O14   S    
C17   O15   A    
C37   C45   A    
C44   O7    D    
C27   C47   S    
C7    C9    A    
C22   C33   A    
C40   H5    S    
C12   O9    A    
C40   O3    D    
C30   C46   S    
Cu2   O9    S    
C42   O5    D    
C3    C5    A    
C25   C42   S    
C44   H9    S    
C25   C27   A    
C26   C28   A    
C39   O2    D    
C28   C30   A    
C9    H16   S    
C29   C31   A    
Cu1   O11   S    
C30   C32   A    
C41   O4    D    
C37   H15   S    
C7    C38   S    
C11   C40   S    
Cu1   O1    S    
Cu1   N2    S    
C10   H17   S    
C20   C21   S    
C9    C48   A    
C8    C10   A    
C23   C36   A    
Cu2   O13   S    
C34   C47   A    
C10   C49   A    
Cu2   N1    S    
C32   H13   S    
C46   O8    D    
