data_mof_unit_45383.cif
_audit_creation_date              2012-12-11T15:26:39-0500
_audit_creation_method            fapswitch 2.2
_symmetry_space_group_name_H-M    P1
_symmetry_Int_Tables_number       1
_space_group_crystal_system       triclinic
_cell_length_a                    7.223421
_cell_length_b                    12.139175
_cell_length_c                    29.098885
_cell_angle_alpha                 90.002189
_cell_angle_beta                  89.962335
_cell_angle_gamma                 89.766793
_cell_volume                      2551.55395466

loop_
_atom_site_label
_atom_site_type_symbol
_atom_type_description
_atom_site_fract_x
_atom_site_fract_y
_atom_site_fract_z
_atom_type_partial_charge
O1    O     O_R   0.647170 0.849180 0.201220 -0.537281
O2    O     O_R   0.352830 0.150820 0.798780 -0.537281
O3    O     O_R   0.352830 0.150820 0.701220 -0.537274
O4    O     O_R   0.647170 0.849180 0.298780 -0.537273
O5    O     O_R   0.147170 0.650820 0.298780 -0.536863
O6    O     O_R   0.852830 0.349180 0.701220 -0.536863
O7    O     O_R   0.852830 0.349180 0.798780 -0.536852
O8    O     O_R   0.147170 0.650820 0.201220 -0.536852
O9    O     O_R   0.317430 0.862210 0.298450 -0.540006
O10   O     O_R   0.682570 0.137790 0.701550 -0.540006
O11   O     O_R   0.682570 0.137790 0.798450 -0.539965
O12   O     O_R   0.317430 0.862210 0.201550 -0.539965
O13   O     O_R   0.817430 0.637790 0.201550 -0.540172
O14   O     O_R   0.182570 0.362210 0.798450 -0.540172
O15   O     O_R   0.182570 0.362210 0.701550 -0.540182
O16   O     O_R   0.817430 0.637790 0.298450 -0.540182
C1    C     C_R   0.485398 0.887803 0.313345 0.682607
C2    C     C_R   0.514602 0.112197 0.686655 0.682607
C3    C     C_R   0.514515 0.112198 0.813343 0.682586
C4    C     C_R   0.485485 0.887802 0.186657 0.682586
C5    C     C_R   0.986096 0.612231 0.186673 0.682344
C6    C     C_R   0.013904 0.387769 0.813326 0.682344
C7    C     C_R   0.014002 0.387752 0.686669 0.682320
C8    C     C_R   0.985998 0.612248 0.313331 0.682320
O17   O     O_3   0.480630 0.680630 0.250000 -0.376785
O18   O     O_3   0.519370 0.319370 0.750000 -0.376785
O19   O     O_3   0.980630 0.819370 0.250000 -0.376858
O20   O     O_3   0.019370 0.180630 0.750000 -0.376858
V1    V     V_3+5 0.205800 0.762860 0.250000 1.424172
V2    V     V_3+5 0.794200 0.237140 0.750000 1.424172
V3    V     V_3+5 0.705800 0.737140 0.250000 1.422810
V4    V     V_3+5 0.294200 0.262860 0.750000 1.422810
C9    C     C_R   0.994779 0.534691 0.351729 -0.025393
C10   C     C_R   0.005221 0.465309 0.648271 -0.025393
C11   C     C_R   0.004730 0.465323 0.851727 -0.025480
C12   C     C_R   0.995270 0.534677 0.148273 -0.025480
C13   C     C_R   0.491482 0.965554 0.148285 -0.025999
C14   C     C_R   0.508518 0.034446 0.851715 -0.025999
C15   C     C_R   0.508917 0.034422 0.648287 -0.026135
C16   C     C_R   0.491083 0.965578 0.351713 -0.026135
C17   C     C_R   0.019268 0.348621 0.380231 -0.169069
C18   C     C_R   0.980732 0.651379 0.619769 -0.169069
C19   C     C_R   0.976400 0.651205 0.880253 -0.169065
C20   C     C_R   0.023600 0.348795 0.119747 -0.169065
C21   C     C_R   0.473554 0.151739 0.119593 -0.169526
C22   C     C_R   0.526446 0.848261 0.880407 -0.169526
C23   C     C_R   0.529420 0.848343 0.619558 -0.169418
C24   C     C_R   0.470579 0.151657 0.380442 -0.169418
C25   C     C_R   0.009899 0.421845 0.343488 -0.179145
C26   C     C_R   0.990101 0.578155 0.656512 -0.179145
C27   C     C_R   0.986867 0.578037 0.843500 -0.179103
C28   C     C_R   0.013133 0.421963 0.156500 -0.179103
C29   C     C_R   0.476352 0.078474 0.156381 -0.178771
C30   C     C_R   0.523648 0.921526 0.843619 -0.178771
C31   C     C_R   0.525898 0.921579 0.656354 -0.178740
C32   C     C_R   0.474102 0.078421 0.343646 -0.178740
C33   C     C_R   0.989260 0.574656 0.396817 -0.217564
C34   C     C_R   0.010740 0.425344 0.603183 -0.217564
C35   C     C_R   0.011758 0.425429 0.896809 -0.217533
C36   C     C_R   0.988242 0.574571 0.103191 -0.217533
C37   C     C_R   0.502778 0.925556 0.103259 -0.217625
C38   C     C_R   0.497222 0.074444 0.896741 -0.217625
C39   C     C_R   0.496545 0.074378 0.603276 -0.217700
C40   C     C_R   0.503454 0.925622 0.396724 -0.217700
C41   C     C_R   0.998941 0.502153 0.434938 0.081656
C42   C     C_R   0.001059 0.497847 0.565062 0.081656
C43   C     C_R   0.000747 0.497858 0.934938 0.081632
C44   C     C_R   0.999253 0.502142 0.065062 0.081632
C45   C     C_R   0.497386 0.998030 0.065067 0.081698
C46   C     C_R   0.502614 0.001970 0.934933 0.081698
C47   C     C_R   0.502837 0.001953 0.565068 0.081598
C48   C     C_R   0.497163 0.998047 0.434932 0.081598
C49   C     C_R   0.013864 0.387567 0.425668 0.130666
C50   C     C_R   0.986136 0.612433 0.574332 0.130666
C51   C     C_R   0.983183 0.612319 0.925684 0.130756
C52   C     C_R   0.016816 0.387681 0.074316 0.130756
C53   C     C_R   0.483297 0.112704 0.074218 0.130757
C54   C     C_R   0.516702 0.887296 0.925782 0.130757
C55   C     C_R   0.518732 0.887350 0.574195 0.130778
C56   C     C_R   0.481268 0.112650 0.425805 0.130778
C57   C     C_R   0.994640 0.539306 0.481682 0.053596
C58   C     C_R   0.005360 0.460694 0.518318 0.053596
C59   C     C_R   0.006115 0.460737 0.981676 0.053596
C60   C     C_R   0.993884 0.539263 0.018323 0.053596
C61   C     C_R   0.503732 0.960722 0.018356 0.053682
C62   C     C_R   0.496268 0.039278 0.981644 0.053682
C63   C     C_R   0.495751 0.039247 0.518364 0.053619
C64   C     C_R   0.504249 0.960753 0.481636 0.053619
C65   C     C_R   0.019773 0.347681 0.506984 -0.194368
C66   C     C_R   0.980226 0.652319 0.493016 -0.194368
C67   C     C_R   0.976998 0.652168 0.007005 -0.194274
C68   C     C_R   0.023002 0.347832 0.992995 -0.194274
C69   C     C_R   0.483417 0.152409 0.992873 -0.194447
C70   C     C_R   0.516582 0.847591 0.007127 -0.194447
C71   C     C_R   0.518808 0.847691 0.492844 -0.194403
C72   C     C_R   0.481192 0.152309 0.507156 -0.194403
C73   C     C_R   0.023596 0.312331 0.461675 -0.200411
C74   C     C_R   0.976404 0.687669 0.538325 -0.200411
C75   C     C_R   0.972107 0.687483 0.961700 -0.200455
C76   C     C_R   0.027892 0.312517 0.038300 -0.200455
C77   C     C_R   0.477503 0.187906 0.038148 -0.200418
C78   C     C_R   0.522497 0.812094 0.961852 -0.200418
C79   C     C_R   0.525475 0.812202 0.538111 -0.200124
C80   C     C_R   0.474524 0.187798 0.461889 -0.200124
H1    H     H_    0.034909 0.224760 0.454762 0.139618
H2    H     H_    0.965091 0.775240 0.545238 0.139618
H3    H     H_    0.958859 0.774965 0.954799 0.139759
H4    H     H_    0.041141 0.225034 0.045201 0.139759
H5    H     H_    0.467035 0.275550 0.044979 0.139626
H6    H     H_    0.532965 0.724450 0.955021 0.139626
H7    H     H_    0.537318 0.724614 0.544924 0.139638
H8    H     H_    0.462682 0.275386 0.455076 0.139638
H9    H     H_    0.985421 0.609399 0.691375 0.100882
H10   H     H_    0.014578 0.390601 0.308625 0.100882
H11   H     H_    0.019132 0.390779 0.191357 0.100891
H12   H     H_    0.980868 0.609221 0.808643 0.100891
H13   H     H_    0.534015 0.890272 0.808830 0.101141
H14   H     H_    0.465985 0.109728 0.191170 0.101141
H15   H     H_    0.462823 0.109636 0.308873 0.101205
H16   H     H_    0.537176 0.890363 0.691127 0.101205
H17   H     H_    0.031099 0.261203 0.373129 0.124611
H18   H     H_    0.968901 0.738797 0.626871 0.124611
H19   H     H_    0.962493 0.738523 0.873163 0.124634
H20   H     H_    0.037507 0.261477 0.126837 0.124634
H21   H     H_    0.461830 0.239206 0.126600 0.124632
H22   H     H_    0.538169 0.760794 0.873400 0.124632
H23   H     H_    0.542577 0.760937 0.626545 0.124683
H24   H     H_    0.457423 0.239063 0.373455 0.124683
H25   H     H_    0.022286 0.337354 0.599371 0.096390
H26   H     H_    0.977714 0.662646 0.400629 0.096390
H27   H     H_    0.974740 0.662468 0.099389 0.096421
H28   H     H_    0.025260 0.337532 0.900611 0.096421
H29   H     H_    0.487366 0.162522 0.900473 0.096802
H30   H     H_    0.512634 0.837478 0.099527 0.096802
H31   H     H_    0.514691 0.837597 0.400439 0.096902
H32   H     H_    0.485309 0.162403 0.599561 0.096902
H33   H     H_    0.028623 0.283396 0.532338 0.129775
H34   H     H_    0.971377 0.716604 0.467662 0.129775
H35   H     H_    0.966951 0.716394 0.032366 0.129754
H36   H     H_    0.033049 0.283606 0.967634 0.129754
H37   H     H_    0.477145 0.216668 0.967461 0.129589
H38   H     H_    0.522855 0.783332 0.032539 0.129589
H39   H     H_    0.525913 0.783492 0.467417 0.129575
H40   H     H_    0.474087 0.216508 0.532583 0.129575

loop_
_geom_bond_atom_site_label_1
_geom_bond_atom_site_label_2
_ccdc_geom_bond_type
O17   V3    S    
C63   C64   A    
C71   H39   S    
O12   V1    S    
C46   C54   A    
C53   C77   A    
C42   C58   A    
C23   C55   A    
C19   C27   A    
C47   C55   A    
C57   C58   A    
C45   C61   A    
O15   V4    S    
C50   C74   A    
C5    C12   S    
C61   C62   A    
O16   V3    S    
C43   C59   A    
C6    C11   S    
O11   C3    A    
C58   C65   A    
O12   C4    A    
C56   C80   A    
O8    V1    S    
C38   H29   S    
C11   C35   A    
C3    C14   S    
C76   H4    S    
C34   H25   S    
C9    C25   A    
C42   C50   A    
O1    V3    S    
C41   C49   A    
O19   V1    S    
C38   C46   A    
O3    C2    A    
O2    V4    S    
C17   H17   S    
C20   C52   A    
C23   C31   A    
C66   H34   S    
C45   C53   A    
C34   C42   A    
C15   C31   A    
O11   V2    S    
C21   H21   S    
C16   C32   A    
C60   C67   A    
C12   C28   A    
O9    V1    S    
C13   C29   A    
C20   C28   A    
O15   C7    A    
C25   H10   S    
C64   C71   A    
C21   C29   A    
O16   C8    A    
O7    V2    S    
C55   C79   A    
C75   H3    S    
C36   H27   S    
C17   C25   A    
C48   C64   A    
C71   C79   A    
C37   H30   S    
O5    V1    S    
C31   H16   S    
C19   C51   A    
C35   H28   S    
C10   C26   A    
C18   C50   A    
C70   H38   S    
C33   H26   S    
C52   C76   A    
C69   C77   A    
C22   C54   A    
C29   H14   S    
C20   H20   S    
C22   H22   S    
C65   C73   A    
C1    C16   S    
C44   C60   A    
C49   C73   A    
C2    C15   S    
C59   C68   A    
C62   C69   A    
C72   H40   S    
C61   C70   A    
O10   V2    S    
C35   C43   A    
C41   C57   A    
C59   C60   A    
C14   C30   A    
C7    C10   S    
C63   C72   A    
C22   C30   A    
C51   C75   A    
O8    C5    A    
O13   C5    A    
C18   H18   S    
C36   C44   A    
C18   C26   A    
C67   H35   S    
C57   C66   A    
O9    C1    A    
O6    V2    S    
C39   C47   A    
C65   H33   S    
C72   C80   A    
C11   C27   A    
C32   H15   S    
C47   C63   A    
C78   H6    S    
C43   C51   A    
O4    C1    A    
C46   C62   A    
C19   H19   S    
C69   H37   S    
C68   C76   A    
C80   H8    S    
C28   H11   S    
C37   C45   A    
C24   C32   A    
O1    C4    A    
C9    C33   A    
O2    C3    A    
O13   V3    S    
C8    C9    S    
C33   C41   A    
C12   C36   A    
C74   H2    S    
C13   C37   A    
C23   H23   S    
O18   V4    S    
C79   H7    S    
C44   C52   A    
O7    C6    A    
C15   C39   A    
C27   H12   S    
C16   C40   A    
C26   H9    S    
C39   H32   S    
O14   C6    A    
O20   V2    S    
C73   H1    S    
C48   C56   A    
C4    C13   S    
C24   C56   A    
O5    C8    A    
C24   H24   S    
O10   C2    A    
O6    C7    A    
C40   C48   A    
O3    V4    S    
C40   H31   S    
O4    V3    S    
C17   C49   A    
O14   V4    S    
C70   C78   A    
C30   H13   S    
C10   C34   A    
C21   C53   A    
C54   C78   A    
C67   C75   A    
C77   H5    S    
C66   C74   A    
C14   C38   A    
C68   H36   S    
