data_mof_unit_18827.cif
_audit_creation_date              2012-12-10T19:59:28-0500
_audit_creation_method            fapswitch 2.2
_symmetry_space_group_name_H-M    P1
_symmetry_Int_Tables_number       1
_space_group_crystal_system       triclinic
_cell_length_a                    15.011701
_cell_length_b                    14.152794
_cell_length_c                    10.71154
_cell_angle_alpha                 89.803967
_cell_angle_beta                  90.094722
_cell_angle_gamma                 89.97553
_cell_volume                      2275.73049333

loop_
_atom_site_label
_atom_site_type_symbol
_atom_type_description
_atom_site_fract_x
_atom_site_fract_y
_atom_site_fract_z
_atom_type_partial_charge
C1    C     C_R   0.327525 0.499992 0.500422 0.985872
C2    C     C_R   0.475592 0.104610 0.607084 -0.250251
C3    C     C_R   0.524436 0.204455 0.395264 0.031847
C4    C     C_R   0.475461 0.204038 0.604783 0.056523
C5    C     C_R   0.499935 0.053226 0.500108 0.129827
C6    C     C_R   0.531138 0.894843 0.603703 -0.265294
C7    C     C_R   0.469099 0.895423 0.396352 -0.276619
C8    C     C_R   0.531250 0.795442 0.601280 0.025433
C9    C     C_R   0.469265 0.796039 0.398612 0.073811
C10   C     C_R   0.499997 0.946757 0.500100 0.143769
C11   C     C_R   0.497206 0.499944 0.259874 0.964740
C12   C     C_R   0.671859 0.499905 0.499250 1.022196
C13   C     C_R   0.498791 0.499799 0.740193 1.027164
C14   C     C_R   0.463955 0.580381 0.062881 0.229998
C15   C     C_R   0.465386 0.580296 0.935436 0.136689
C16   C     C_R   0.485463 0.498283 0.128360 -0.106926
C17   C     C_R   0.488000 0.498210 0.871679 -0.052820
C18   C     C_R   0.492434 0.412085 0.064817 -0.205350
C19   C     C_R   0.494019 0.412101 0.936189 -0.182736
C20   C     C_3   0.503084 0.677851 0.928804 -0.489960
C21   C     C_3   0.500672 0.678315 0.070240 -0.480466
C22   C     C_R   0.089376 0.549983 0.420544 -0.217249
C23   C     C_R   0.186934 0.433743 0.583536 -0.085398
C24   C     C_R   0.905892 0.494197 0.611200 -0.208105
C25   C     C_R   0.181371 0.557248 0.420969 0.452556
C26   C     C_R   0.813895 0.501992 0.612341 0.357955
C27   C     C_R   0.231004 0.498780 0.503390 -0.255475
C28   C     C_R   0.767343 0.498803 0.497961 -0.234716
C29   C     C_2   0.233896 0.375415 0.678573 0.956778
C30   C     C_2   0.766638 0.484681 0.260811 0.931946
C31   C     C_R   0.812517 0.485658 0.383717 -0.108356
C32   C     C_R   0.094816 0.426515 0.577500 -0.184999
C33   C     C_R   0.904501 0.476147 0.385858 -0.173962
C34   C     C_R   0.046749 0.484666 0.497216 0.032340
C35   C     C_R   0.950677 0.482168 0.498484 0.046864
C36   C     C_R   0.524258 0.105062 0.393081 -0.258842
H1    H     H_    0.503198 0.345812 0.113426 0.171970
H2    H     H_    0.567811 0.681382 0.113991 0.227414
H3    H     H_    0.050057 0.595982 0.361066 0.193831
H4    H     H_    0.943235 0.499723 0.697479 0.192231
H5    H     H_    0.059879 0.377370 0.637989 0.185863
H6    H     H_    0.940906 0.467313 0.299268 0.188683
H7    H     H_    0.544502 0.069078 0.308727 0.145071
H8    H     H_    0.455337 0.068256 0.691469 0.146215
H9    H     H_    0.544454 0.243061 0.312736 0.130985
H10   H     H_    0.455437 0.242354 0.687240 0.128971
H11   H     H_    0.273635 0.784091 0.334372 0.370417
H12   H     H_    0.505611 0.345877 0.888451 0.171588
H13   H     H_    0.739753 0.666293 0.731450 0.350787
H14   H     H_    0.329312 0.367264 0.810359 0.336444
H15   H     H_    0.673073 0.541329 0.148555 0.350191
H16   H     H_    0.556740 0.930748 0.685305 0.145159
H17   H     H_    0.443481 0.931742 0.314737 0.142297
H18   H     H_    0.556806 0.756657 0.680598 0.144377
H19   H     H_    0.443992 0.757582 0.319421 0.147162
H20   H     H_    0.571840 0.679798 0.891099 0.256441
H21   H     H_    0.451196 0.729302 0.107295 0.215458
H22   H     H_    0.455820 0.728916 0.885621 0.213592
N1    N     N_R   0.500000 0.252470 0.500000 -0.100914
N2    N     N_R   0.500000 0.747550 0.500000 -0.092038
O1    O     O_R   0.369060 0.579480 0.500010 -0.549860
O2    O     O_2   0.162720 0.671785 0.220819 -0.294440
O3    O     O_3   0.266412 0.733047 0.397034 -0.543706
O4    O     O_2   0.698821 0.433126 0.779514 -0.282901
O5    O     O_2   0.824629 0.522736 0.863125 -0.256030
O6    O     O_3   0.697293 0.615298 0.753145 -0.588468
O7    O     O_2   0.208883 0.294721 0.699996 -0.612984
O8    O     O_R   0.304277 0.413675 0.747134 -0.820912
O9    O     O_2   0.793717 0.433103 0.177657 -0.562029
O10   O     O_R   0.695363 0.545710 0.237737 -0.821278
O11   O     O_R   0.630940 0.579480 0.499990 -0.581472
O12   O     O_R   0.369050 0.420520 0.500010 -0.625248
O13   O     O_R   0.630950 0.420520 0.499990 -0.613602
O14   O     O_R   0.499990 0.579490 0.316780 -0.602812
O15   O     O_R   0.500010 0.579490 0.683220 -0.627877
O16   O     O_R   0.499980 0.420540 0.316780 -0.655025
O17   O     O_R   0.500020 0.420540 0.683220 -0.630639
O18   O     O_2   0.306912 0.594258 0.248792 -0.340410
S1    S     S_3+6 0.230144 0.639217 0.315680 0.018915
S2    S     S_3+6 0.758950 0.516300 0.757381 0.023074
Zn1   Zn    Zn3+2 0.500000 0.606140 0.500000 1.040697
Zn2   Zn    Zn3+2 0.500000 0.393860 0.500000 0.996028

loop_
_geom_bond_atom_site_label_1
_geom_bond_atom_site_label_2
_ccdc_geom_bond_type
C7    C10   A    
N1    Zn2   S    
C20   H20   S    
C4    H10   S    
C12   C28   S    
C33   H6    S    
C3    C36   A    
C14   C21   S    
C18   H1    S    
C24   C26   A    
C18   C19   A    
C11   O16   A    
H11   O3    S    
C30   C31   S    
C5    C36   A    
C15   C17   A    
C34   C35   S    
C11   C16   S    
C33   C35   A    
C29   O7    D    
C21   H2    S    
C13   O15   A    
C2    H8    S    
C22   C25   A    
C32   H5    S    
C31   C33   A    
C9    H19   S    
H15   O10   S    
C23   C27   A    
O5    S2    D    
C12   O13   A    
O4    S2    D    
C30   O10   S    
C15   C20   S    
C22   C34   A    
C13   O17   A    
C1    O12   A    
H13   O6    S    
C24   C35   A    
O2    S1    D    
O16   Zn2   S    
C19   H12   S    
O15   Zn1   S    
C6    C8    A    
C3    H9    S    
C26   S2    S    
C32   C34   A    
C2    C4    A    
C21   H21   S    
C29   O8    S    
N2    Zn1   S    
C12   O11   A    
C14   C16   A    
C2    C5    A    
C7    H17   S    
O14   Zn1   S    
C8    H18   S    
C23   C29   S    
O13   Zn2   S    
C30   O9    D    
C7    C9    A    
C24   H4    S    
C25   S1    S    
C28   C31   A    
C11   O14   A    
C1    O1    A    
C6    C10   A    
O3    S1    S    
C25   C27   A    
O6    S2    S    
C26   C28   A    
C13   C17   S    
C9    N2    A    
C23   C32   A    
C5    C10   S    
O1    Zn1   S    
C8    N2    A    
O18   S1    D    
H14   O8    S    
O17   Zn2   S    
C22   H3    S    
C4    N1    A    
C17   C19   A    
C20   C21   S    
C16   C18   A    
C1    C27   S    
C14   C15   A    
C36   H7    S    
C6    H16   S    
C20   H22   S    
O12   Zn2   S    
O11   Zn1   S    
C3    N1    A    
