data_mof_unit_49459.cif
_audit_creation_date              2012-12-10T18:47:42-0500
_audit_creation_method            fapswitch 2.2
_symmetry_space_group_name_H-M    P1
_symmetry_Int_Tables_number       1
_space_group_crystal_system       triclinic
_cell_length_a                    9.854678
_cell_length_b                    10.65701
_cell_length_c                    15.289111
_cell_angle_alpha                 90.450632
_cell_angle_beta                  68.117821
_cell_angle_gamma                 90.041574
_cell_volume                      1489.94762283

loop_
_atom_site_label
_atom_site_type_symbol
_atom_type_description
_atom_site_fract_x
_atom_site_fract_y
_atom_site_fract_z
_atom_type_partial_charge
C1    C     C_R   0.497717 0.739631 0.504199 0.887361
C2    C     C_R   0.501805 0.260182 0.496288 0.890227
C3    C     C_R   0.298272 0.444993 0.117823 0.432858
C4    C     C_R   0.613579 0.318234 0.917615 0.389164
C5    C     C_R   0.201124 0.476353 0.074824 -0.254995
C6    C     C_R   0.718844 0.307308 0.957956 -0.151176
C7    C     C_R   0.533328 0.940322 0.572939 0.164097
C8    C     C_R   0.460289 0.058979 0.430689 0.175333
C9    C     C_R   0.537054 0.069447 0.566079 -0.252777
C10   C     C_R   0.458443 0.930094 0.436879 -0.254789
C11   C     C_R   0.501092 0.127573 0.496130 -0.072826
C12   C     C_R   0.496037 0.872028 0.505976 -0.067241
C13   C     C_R   0.964117 0.571947 0.437730 -0.045762
C14   C     C_R   0.035951 0.427886 0.562164 -0.075904
C15   C     C_R   0.107860 0.572051 0.437792 -0.013536
C16   C     C_R   0.892186 0.427808 0.562128 -0.057906
C17   C     C_R   0.408705 0.499109 0.676597 0.893535
C18   C     C_R   0.591221 0.499012 0.323182 0.882690
C19   C     C_R   0.349937 0.491272 0.779225 -0.173251
C20   C     C_R   0.645058 0.474073 0.221690 -0.114973
C21   C     C_R   0.155026 0.526447 0.930876 0.504159
C22   C     C_R   0.804938 0.355494 0.085428 0.528792
C23   C     C_R   0.205836 0.525919 0.832649 -0.185653
C24   C     C_R   0.776744 0.410144 0.174837 -0.329668
C25   C     C_R   0.440939 0.448800 0.823651 -0.255230
C26   C     C_R   0.545538 0.488599 0.177817 -0.221222
C27   C     C_R   0.389431 0.434468 0.921267 0.048731
C28   C     C_R   0.561346 0.421766 0.095987 -0.015121
C29   C     C_R   0.247178 0.480259 0.976417 -0.028033
C30   C     C_R   0.696754 0.362344 0.045588 0.041604
C31   C     C_R   0.482901 0.388423 0.965378 -0.066510
C32   C     C_R   0.447054 0.418365 0.061214 -0.075190
H1    H     H_    0.089621 0.496951 0.120140 0.167081
H2    H     H_    0.817961 0.254994 0.920108 0.215102
H3    H     H_    0.450487 0.547380 0.211478 0.196775
H4    H     H_    0.554394 0.430448 0.781195 0.209498
H5    H     H_    0.852990 0.396560 0.209830 0.161214
H6    H     H_    0.135017 0.560083 0.798197 0.176806
H7    H     H_    0.563892 0.125597 0.616948 0.155341
H8    H     H_    0.432018 0.874012 0.385791 0.146303
H9    H     H_    0.938542 0.629467 0.387906 0.131411
H10   H     H_    0.061597 0.370221 0.611891 0.143669
H11   H     H_    0.190994 0.629740 0.388003 0.133715
H12   H     H_    0.809105 0.369969 0.611829 0.151840
N1    N     N_R   0.142780 0.500030 0.500020 -0.089572
N2    N     N_R   0.857220 0.499970 0.499980 -0.089543
O1    O     O_R   0.385370 0.683250 0.500010 -0.621392
O2    O     O_R   0.614630 0.316750 0.499990 -0.615013
O3    O     O_R   0.614700 0.683220 0.500000 -0.623899
O4    O     O_R   0.385300 0.316780 0.500000 -0.621514
O5    O     O_R   0.319830 0.500020 0.632250 -0.615038
O6    O     O_R   0.680170 0.499980 0.367750 -0.607981
O7    O     O_R   0.549160 0.499990 0.632240 -0.613887
O8    O     O_R   0.450840 0.500010 0.367760 -0.612248
Zn1   Zn    Zn3+2 0.346870 0.500020 0.500000 0.943811
Zn2   Zn    Zn3+2 0.653130 0.499980 0.500000 0.946925
O9    O     O_3   0.017101 0.575203 0.978360 -0.764857
H13   H     H_    0.014800 0.616524 0.036986 0.323802
O10   O     O_3   0.932730 0.289870 0.038588 -0.778679
H14   H     H_    0.991981 0.287878 0.078607 0.335046
O11   O     O_3   0.240603 0.431497 0.214477 -0.795913
H15   H     H_    0.299758 0.368131 0.231703 0.339716
O12   O     O_3   0.636785 0.249472 0.836474 -0.795801
H16   H     H_    0.540176 0.225581 0.835379 0.336502
C33   C     C_3   0.561829 0.879951 0.654088 -0.418666
C34   C     C_3   0.419963 0.833528 0.729335 -0.828399
H17   H     H_    0.345151 0.913893 0.760033 0.265359
H18   H     H_    0.364110 0.765205 0.699154 0.243839
H19   H     H_    0.444426 0.786867 0.786501 0.254671
H20   H     H_    0.641442 0.801795 0.628880 0.231505
H21   H     H_    0.612142 0.948598 0.688094 0.216209
C35   C     C_3   0.429739 0.117768 0.349860 -0.433888
C36   C     C_3   0.572178 0.150575 0.269744 -0.838912
H22   H     H_    0.637564 0.215728 0.295129 0.253650
H23   H     H_    0.637339 0.064251 0.241350 0.265755
H24   H     H_    0.547500 0.195744 0.212229 0.251967
H25   H     H_    0.368484 0.051367 0.321791 0.205538
H26   H     H_    0.359134 0.201960 0.372709 0.235361

loop_
_geom_bond_atom_site_label_1
_geom_bond_atom_site_label_2
_ccdc_geom_bond_type
C34   H18   S    
C27   C29   A    
C36   H22   S    
O2    Zn2   S    
C17   O5    A    
C13   H9    S    
C18   O6    A    
C4    O12   S    
C22   C24   A    
C13   N2    A    
C34   H19   S    
C33   H20   S    
C9    H7    S    
C10   H8    S    
C35   H26   S    
C2    O4    A    
C20   C24   A    
C5    H1    S    
C16   H12   S    
O5    Zn1   S    
C14   H10   S    
C34   H17   S    
O10   H14   S    
C36   H23   S    
C3    C32   A    
C1    C12   S    
C2    C11   S    
C14   N1    A    
C5    C29   A    
C3    O11   S    
C21   C23   A    
C7    C12   A    
C8    C35   S    
C27   C31   A    
C28   C32   A    
C4    C6    A    
C16   N2    A    
C22   O10   S    
C1    O1    A    
C2    O2    A    
C33   H21   S    
C21   C29   A    
C6    H2    S    
C19   C23   A    
C21   O9    S    
C35   H25   S    
C7    C33   S    
C31   C32   A    
C24   H5    S    
C9    C11   A    
C10   C12   A    
C6    C30   A    
C13   C15   A    
C36   H24   S    
C14   C16   A    
C15   N1    A    
O3    Zn2   S    
C17   O7    A    
O1    Zn1   S    
O7    Zn2   S    
C7    C9    A    
O8    Zn1   S    
C22   C30   A    
C35   C36   S    
C3    C5    A    
C25   C27   A    
C23   H6    S    
C26   C28   A    
O4    Zn1   S    
C28   C30   A    
C15   H11   S    
O9    H13   S    
C20   C26   A    
C8    C11   A    
C17   C19   S    
C18   C20   S    
O11   H15   S    
C19   C25   A    
C4    C31   A    
C18   O8    A    
C25   H4    S    
O12   H16   S    
C26   H3    S    
N1    Zn1   S    
C8    C10   A    
C33   C34   S    
N2    Zn2   S    
C1    O3    A    
O6    Zn2   S    
