data_mof_unit_45923.cif
_audit_creation_date              2012-12-11T15:19:37-0500
_audit_creation_method            fapswitch 2.2
_symmetry_space_group_name_H-M    P1
_symmetry_Int_Tables_number       1
_space_group_crystal_system       triclinic
_cell_length_a                    19.910658
_cell_length_b                    6.877328
_cell_length_c                    18.279179
_cell_angle_alpha                 89.53496
_cell_angle_beta                  104.157245
_cell_angle_gamma                 90.549224
_cell_volume                      2426.83133947

loop_
_atom_site_label
_atom_site_type_symbol
_atom_type_description
_atom_site_fract_x
_atom_site_fract_y
_atom_site_fract_z
_atom_type_partial_charge
O1    O     O_R   0.312200 0.620210 0.189560 -0.513464
O2    O     O_R   0.687800 0.379790 0.810440 -0.514969
O3    O     O_R   0.187800 0.120210 0.310440 -0.548359
O4    O     O_R   0.812200 0.879790 0.689560 -0.544766
O5    O     O_R   0.171590 0.286140 0.165000 -0.536562
O6    O     O_R   0.828410 0.713860 0.835000 -0.537493
O7    O     O_R   0.328410 0.786140 0.335000 -0.537795
O8    O     O_R   0.671590 0.213860 0.665000 -0.538708
C1    C     C_R   0.145771 0.459503 0.143682 0.712842
C2    C     C_R   0.854053 0.540702 0.856563 0.725615
C3    C     C_R   0.353925 0.959756 0.356705 0.713235
C4    C     C_R   0.646069 0.040245 0.643299 0.708472
O9    O     O_R   0.310670 0.290220 0.180540 -0.541032
O10   O     O_R   0.689330 0.709780 0.819460 -0.542356
O11   O     O_R   0.189330 0.790220 0.319460 -0.539401
O12   O     O_R   0.810670 0.209780 0.680540 -0.523456
O13   O     O_R   0.327870 0.124170 0.326080 -0.537548
O14   O     O_R   0.672130 0.875830 0.673920 -0.538957
O15   O     O_R   0.172130 0.624170 0.173920 -0.525364
O16   O     O_R   0.827870 0.375830 0.826080 -0.532107
C5    C     C_R   0.333178 0.460654 0.166322 0.734061
C6    C     C_R   0.666814 0.539348 0.833670 0.729541
C7    C     C_R   0.167131 0.957907 0.334161 0.757612
C8    C     C_R   0.832324 0.041521 0.665280 0.753950
O17   O     O_3   0.255480 0.455050 0.297740 -0.380198
O18   O     O_3   0.744520 0.544950 0.702260 -0.371020
O19   O     O_3   0.244520 0.955050 0.202260 -0.354161
O20   O     O_3   0.755480 0.044950 0.797740 -0.359356
V1    V     V_3+5 0.248980 0.178550 0.241140 1.434672
V2    V     V_3+5 0.751020 0.821450 0.758860 1.445817
V3    V     V_3+5 0.251020 0.678550 0.258860 1.455024
V4    V     V_3+5 0.748980 0.321450 0.741140 1.480145
C9    C     C_R   0.942213 0.149328 0.630668 0.365885
C10   C     C_R   0.059277 0.837803 0.371296 0.349262
C11   C     C_R   0.572651 0.359561 0.879578 0.359989
C12   C     C_R   0.427326 0.640455 0.120396 0.359921
C13   C     C_R   0.881456 0.033130 0.615762 -0.169151
C14   C     C_R   0.117501 0.964521 0.383250 -0.173260
C15   C     C_R   0.616295 0.525230 0.881592 -0.185280
C16   C     C_R   0.383684 0.474781 0.118387 -0.186757
C17   C     C_R   0.868960 0.902849 0.555042 -0.282569
C18   C     C_R   0.127378 0.103327 0.440987 -0.319034
C19   C     C_R   0.611476 0.679626 0.929904 -0.263805
C20   C     C_R   0.388493 0.320398 0.070065 -0.266234
C21   C     C_R   0.915214 0.889790 0.508229 0.108563
C22   C     C_R   0.080735 0.117732 0.487198 0.107225
C23   C     C_R   0.565917 0.669725 0.977338 0.090819
C24   C     C_R   0.434047 0.330306 0.022624 0.091753
C25   C     C_R   0.974702 0.010133 0.521380 0.017741
C26   C     C_R   0.022008 0.994694 0.474820 0.025690
C27   C     C_R   0.523052 0.504812 0.976025 0.018532
C28   C     C_R   0.476913 0.495219 0.023937 0.018852
C29   C     C_R   0.987423 0.144119 0.581554 -0.000883
C30   C     C_R   0.010176 0.857425 0.415719 0.005450
C31   C     C_R   0.526379 0.349200 0.927203 -0.001272
C32   C     C_R   0.473589 0.650826 0.072763 -0.001915
C33   C     C_R   0.902551 0.759241 0.447874 -0.175336
C34   C     C_R   0.091549 0.255186 0.545269 -0.197809
C35   C     C_R   0.562862 0.822430 0.026529 -0.179473
C36   C     C_R   0.437100 0.177604 0.973431 -0.182215
C37   C     C_R   0.948950 0.744492 0.401846 -0.166681
C38   C     C_R   0.045670 0.267874 0.592020 -0.169875
C39   C     C_R   0.516946 0.813895 0.073210 -0.170144
C40   C     C_R   0.483019 0.186135 0.926754 -0.171074
H1    H     H_    0.822964 0.811359 0.544288 0.138714
H2    H     H_    0.171902 0.200248 0.450094 0.135082
H3    H     H_    0.644295 0.807124 0.931674 0.169798
H4    H     H_    0.355674 0.192902 0.068296 0.169169
H5    H     H_    0.856576 0.667823 0.436191 0.123514
H6    H     H_    0.135921 0.352536 0.554917 0.120581
H7    H     H_    0.595556 0.950115 0.028371 0.137839
H8    H     H_    0.404405 0.049922 0.971588 0.136512
H9    H     H_    0.936470 0.643268 0.355455 0.158168
H10   H     H_    0.055972 0.375428 0.636400 0.157644
H11   H     H_    0.515301 0.936909 0.109130 0.169382
H12   H     H_    0.484666 0.063116 0.890837 0.169035
C41   C     C_1   0.583587 0.027076 0.581070 -0.206116
C42   C     C_1   0.416406 0.972925 0.418935 -0.208101
C43   C     C_1   0.916177 0.528767 0.919318 -0.204609
C44   C     C_1   0.083061 0.472635 0.081715 -0.193084
C45   C     C_1   0.531039 0.010702 0.529946 -0.004148
C46   C     C_1   0.468954 0.989299 0.470060 -0.004228
C47   C     C_1   0.968493 0.512339 0.970754 0.006605
C48   C     C_1   0.030467 0.489834 0.030711 0.014918
O21   O     O_3   0.959185 0.258157 0.696032 -0.555659
C49   C     C_3   0.004301 0.146423 0.752338 0.065728
H13   H     H_    0.056673 0.140033 0.741069 0.125172
H14   H     H_    0.984495 0.995015 0.755869 0.110256
C50   C     C_3   0.011188 0.239967 0.828722 -0.692254
H15   H     H_    0.960889 0.228864 0.844361 0.223746
H16   H     H_    0.050976 0.162815 0.872174 0.176156
H17   H     H_    0.026641 0.395213 0.826816 0.222110
O22   O     O_3   0.045746 0.714645 0.309717 -0.558445
C51   C     C_3   0.062100 0.521016 0.333860 0.082089
H18   H     H_    0.048814 0.483835 0.388142 0.115437
H19   H     H_    0.118319 0.495554 0.340984 0.152373
C52   C     C_3   0.021789 0.383467 0.273793 -0.669836
H20   H     H_    0.034773 0.413164 0.219134 0.212660
H21   H     H_    0.034752 0.230582 0.290390 0.186800
H22   H     H_    0.965285 0.403314 0.266650 0.209093
O23   O     O_3   0.576960 0.203476 0.833614 -0.549080
C53   C     C_3   0.527738 0.225337 0.763746 0.093974
H23   H     H_    0.551771 0.307242 0.723907 0.125529
H24   H     H_    0.479898 0.303162 0.768151 0.098453
C54   C     C_3   0.505713 0.024871 0.731311 -0.720810
H25   H     H_    0.475573 0.947362 0.766367 0.202535
H26   H     H_    0.472750 0.039594 0.673055 0.180492
H27   H     H_    0.551851 0.936820 0.730248 0.224991
O24   O     O_3   0.423019 0.796537 0.166361 -0.549033
C55   C     C_3   0.472241 0.774665 0.236229 0.094123
H28   H     H_    0.520082 0.696849 0.231821 0.099489
H29   H     H_    0.448207 0.692749 0.276066 0.126190
C56   C     C_3   0.494262 0.975130 0.268668 -0.718844
H30   H     H_    0.448121 0.063170 0.269735 0.225026
H31   H     H_    0.527223 0.960400 0.326925 0.180879
H32   H     H_    0.524396 0.052648 0.233610 0.203159

loop_
_geom_bond_atom_site_label_1
_geom_bond_atom_site_label_2
_ccdc_geom_bond_type
C34   C38   A    
O1    C5    A    
O23   C53   S    
O19   V1    S    
O13   V1    S    
O3    C7    A    
C10   O22   S    
C44   C48   T    
O15   V3    S    
C45   C46   S    
O21   C49   S    
O7    C3    A    
C54   H26   S    
C21   C33   A    
O22   C51   S    
C13   C17   A    
O9    V1    S    
C14   C18   A    
O4    C8    A    
C49   H14   S    
C36   H8    S    
C52   H20   S    
O1    V3    S    
C53   C54   S    
O2    V4    S    
C18   C22   A    
C33   C37   A    
O3    V1    S    
C9    O21   S    
C55   H28   S    
C12   C16   A    
C1    O15   A    
C2    O16   A    
O2    C6    A    
O14   V2    S    
C21   C25   A    
C50   H16   S    
C16   C20   A    
C56   H32   S    
O11   C7    A    
O12   C8    A    
C22   C34   A    
O17   V1    S    
C51   H18   S    
O10   V2    S    
C52   H21   S    
C24   C36   A    
O5    V1    S    
C9    C29   A    
C54   H27   S    
O7    V3    S    
C11   C31   A    
C27   C28   A    
O8    V4    S    
O20   V4    S    
C4    C41   S    
C49   H13   S    
C34   H6    S    
C15   C19   A    
C51   C52   S    
C37   H9    S    
O19   V3    S    
C9    C13   A    
C1    C44   S    
C11   C15   A    
O5    C1    A    
C12   C32   A    
C3    C42   S    
C29   C38   A    
C42   C46   T    
C47   C48   S    
C41   C45   T    
O8    C4    A    
C31   C40   A    
C8    C13   S    
C40   H12   S    
C32   C39   A    
O9    C5    A    
C26   C30   A    
C50   H17   S    
C51   H19   S    
C55   C56   S    
O6    V2    S    
C10   C30   A    
C20   H4    S    
C52   H22   S    
C56   H30   S    
O16   V4    S    
C3    O13   A    
C10   C14   A    
O17   V3    S    
C11   O23   S    
C49   C50   S    
O6    C2    A    
C23   C27   A    
C2    C43   S    
O11   V3    S    
O18   V4    S    
C30   C37   A    
O12   V4    S    
C7    C14   S    
C54   H25   S    
C22   C26   A    
C35   C39   A    
C53   H24   S    
C36   C40   A    
O10   C6    A    
O20   V2    S    
O24   C55   S    
C43   C47   T    
C5    C16   S    
C39   H11   S    
C25   C29   A    
C6    C15   S    
C27   C31   A    
C17   H1    S    
C53   H23   S    
C55   H29   S    
C23   C35   A    
C28   C32   A    
C24   C28   A    
C19   H3    S    
C25   C26   A    
C4    O14   A    
C12   O24   S    
C18   H2    S    
C17   C21   A    
C38   H10   S    
C33   H5    S    
C50   H15   S    
C19   C23   A    
O4    V2    S    
C20   C24   A    
C35   H7    S    
C56   H31   S    
O18   V2    S    
