data_mof_unit_66192.cif
_audit_creation_date              2013-03-05T15:42:18-0500
_audit_creation_method            fapswitch 2.2
_symmetry_space_group_name_H-M    P1
_symmetry_Int_Tables_number       1
_space_group_crystal_system       triclinic
_cell_length_a                    16.909434
_cell_length_b                    6.952375
_cell_length_c                    15.3213
_cell_angle_alpha                 90.000105
_cell_angle_beta                  93.625229
_cell_angle_gamma                 90.000145
_cell_volume                      1797.57895662

loop_
_atom_site_label
_atom_site_type_symbol
_atom_site_description
_atom_site_fract_x
_atom_site_fract_y
_atom_site_fract_z
_atom_type_partial_charge
O1    O     O_R   0.414560 0.494300 0.417030 -0.542300
O2    O     O_R   0.585440 0.994300 0.582970 -0.542102
O3    O     O_R   0.577160 0.822630 0.413790 -0.556921
O4    O     O_R   0.422840 0.322630 0.586210 -0.557016
C1    C     C_R   0.604235 0.655208 0.393259 0.847348
C2    C     C_R   0.395765 0.155208 0.606742 0.846911
O5    O     O_R   0.414660 0.823920 0.406630 -0.526518
O6    O     O_R   0.585340 0.323920 0.593370 -0.526454
O7    O     O_R   0.421790 0.995650 0.575760 -0.558940
O8    O     O_R   0.578210 0.495650 0.424240 -0.558832
C3    C     C_R   0.386328 0.655467 0.385383 0.850294
C4    C     C_R   0.613685 0.155465 0.614597 0.850354
O9    O     O_3   0.502530 0.661260 0.555500 -0.255019
O10   O     O_3   0.497470 0.161260 0.444500 -0.255038
V1    V     V_3+5 0.499530 0.935570 0.489700 1.240163
V2    V     V_3+5 0.500470 0.435570 0.510300 1.240169
C5    C     C_2   0.793378 0.265161 0.778431 -0.183754
C6    C     C_2   0.206544 0.764964 0.221661 -0.183759
C7    C     C_2   0.809863 0.112852 0.831775 0.148887
C8    C     C_2   0.190188 0.612911 0.168129 0.149308
H1    H     H_    0.836048 0.382005 0.777991 0.121270
H2    H     H_    0.163729 0.881457 0.222308 0.120866
C9    C     C_2   0.719249 0.291758 0.721396 0.362254
C10   C     C_2   0.280716 0.791757 0.278604 0.362373
C11   C     C_2   0.683707 0.141984 0.677723 -0.226355
C12   C     C_2   0.316316 0.641996 0.322238 -0.226521
H3    H     H_    0.709823 0.000039 0.685238 0.143266
H4    H     H_    0.290220 0.500033 0.314685 0.143100
C13   C     C_1   0.166471 0.119209 0.831405 -0.125572
C14   C     C_1   0.833530 0.619209 0.168596 -0.125674
C15   C     C_1   0.218970 0.127503 0.780159 0.030596
C16   C     C_1   0.781031 0.627503 0.219842 0.030578
C17   C     C_1   0.280924 0.137448 0.719992 0.029856
C18   C     C_1   0.719077 0.637449 0.280009 0.029916
C19   C     C_1   0.333402 0.145759 0.668721 -0.123123
C20   C     C_1   0.666599 0.645760 0.331280 -0.123006
O11   O     O_R   0.921850 0.770730 0.075840 -0.547873
O12   O     O_R   0.078150 0.270730 0.924160 -0.547803
O13   O     O_R   0.085350 0.439650 0.093390 -0.524493
O14   O     O_R   0.914650 0.939650 0.906610 -0.524449
C21   C     C_R   0.114858 0.607787 0.112825 0.791393
C22   C     C_R   0.885157 0.107787 0.887148 0.791394
O15   O     O_R   0.922860 0.441090 0.086230 -0.558590
O16   O     O_R   0.077140 0.941090 0.913770 -0.558597
O17   O     O_R   0.914540 0.269530 0.917020 -0.569574
O18   O     O_R   0.085460 0.769530 0.082980 -0.569495
C23   C     C_R   0.895931 0.609815 0.106661 0.844894
C24   C     C_R   0.104069 0.109815 0.893339 0.845051
O19   O     O_3   0.997510 0.602520 0.944550 -0.270229
O20   O     O_3   0.002490 0.102520 0.055450 -0.270229
V3    V     V_3+5 0.000460 0.328160 0.010290 1.201799
V4    V     V_3+5 0.999540 0.828160 0.989710 1.201806
N1    N     N_R   0.751509 0.966157 0.845120 0.094593
O21   O     O_R   0.773199 0.788217 0.857671 -0.295782
O22   O     O_R   0.679216 0.014793 0.859840 -0.309142
N2    N     N_R   0.248699 0.466748 0.154490 0.094900
O23   O     O_R   0.227157 0.288949 0.141218 -0.295270
O24   O     O_R   0.320986 0.516012 0.140077 -0.309164
N3    N     N_R   0.690662 0.484547 0.708803 0.118332
O25   O     O_R   0.736920 0.615362 0.678998 -0.372991
O26   O     O_R   0.624558 0.536148 0.741096 -0.278075
N4    N     N_R   0.309299 0.984616 0.291076 0.118064
O27   O     O_R   0.262657 0.116084 0.319541 -0.372713
O28   O     O_R   0.375741 0.035598 0.259371 -0.278362

loop_
_geom_bond_atom_site_label_1
_geom_bond_atom_site_label_2
_geom_bond_distance
_ccdc_geom_bond_type
O4    V2    1.971140 S    
O20   V4    2.156155 S    
C21   O18   1.300752 A    
C15   C17   1.440206 S    
O19   V3    2.156159 S    
N4    O27   1.300449 A    
O11   C23   1.301085 A    
O13   V3    2.012764 S    
O1    C3    1.299707 A    
C7    C22   1.485053 S    
C8    N2    1.442670 S    
C4    C11   1.483687 S    
O6    C4    1.299007 A    
O19   V4    1.714012 S    
O2    C4    1.299658 A    
O16   V4    1.971046 S    
C2    O7    1.294589 A    
O5    V1    2.012694 S    
O20   V3    1.714014 S    
O7    V1    1.964753 S    
C1    O8    1.294588 A    
C13   C15   1.223103 T    
O1    V2    2.014101 S    
O8    V2    1.964753 S    
N1    O21   1.301155 A    
N2    O23   1.301029 A    
C9    N3    1.433742 S    
O2    V1    2.014098 S    
C7    N1    1.442604 S    
C5    C9    1.493484 S    
O15   C23   1.303605 A    
O15   V3    1.971046 S    
C6    C10   1.493489 S    
O14   V4    2.012768 S    
C12   H4    1.084336 S    
C17   C19   1.223105 T    
N2    O24   1.301660 A    
C8    C21   1.485022 S    
C18   C20   1.223106 T    
N1    O22   1.301700 A    
O9    V1    2.156274 S    
O10   V2    2.156271 S    
N3    O26   1.301098 A    
C11   H3    1.084310 S    
O17   V3    2.014072 S    
C13   C24   1.464490 S    
N4    O28   1.301096 A    
C14   C16   1.223104 T    
C1    C20   1.464493 S    
O18   V4    2.014077 S    
C14   C23   1.464489 S    
N3    O25   1.301029 A    
C9    C11   1.357327 D    
O3    V1    1.971142 S    
C2    C19   1.464492 S    
O13   C21   1.298185 A    
C6    C8    1.355739 D    
O4    C2    1.296768 A    
O6    V2    2.012699 S    
O9    V2    1.714574 S    
O11   V4    1.961083 S    
O10   V1    1.714576 S    
O5    C3    1.298981 A    
C10   N4    1.433957 S    
O12   V3    1.961085 S    
C3    C12   1.483723 S    
C5    C7    1.355789 D    
C6    H2    1.086778 S    
O12   C24   1.301083 A    
C5    H1    1.086811 S    
O16   C24   1.303604 A    
C10   C12   1.357393 D    
O14   C22   1.298178 A    
O3    C1    1.296768 A    
C22   O17   1.300794 A    
C16   C18   1.440205 S    
