data_mof_unit_35641.cif
_audit_creation_date              2012-12-10T20:27:52-0500
_audit_creation_method            fapswitch 2.2
_symmetry_space_group_name_H-M    P1
_symmetry_Int_Tables_number       1
_space_group_crystal_system       triclinic
_cell_length_a                    12.87816
_cell_length_b                    10.672198
_cell_length_c                    9.870455
_cell_angle_alpha                 90.114882
_cell_angle_beta                  97.898192
_cell_angle_gamma                 90.28455
_cell_volume                      1343.6880027

loop_
_atom_site_label
_atom_site_type_symbol
_atom_type_description
_atom_site_fract_x
_atom_site_fract_y
_atom_site_fract_z
_atom_type_partial_charge
C1    C     C_R   0.499793 0.260198 0.500025 0.901121
C2    C     C_R   0.029062 0.513942 0.560623 0.179035
C3    C     C_R   0.969101 0.467513 0.440923 0.087988
C4    C     C_R   0.862175 0.457855 0.434837 -0.206414
C5    C     C_R   0.873043 0.540068 0.666382 -0.164305
C6    C     C_R   0.981174 0.548313 0.674110 -0.161569
C7    C     C_R   0.540160 0.063938 0.616155 0.034859
C8    C     C_R   0.494094 0.128217 0.500903 -0.121931
C9    C     C_R   0.436442 0.064041 0.391490 -0.188900
C10   C     C_R   0.436101 0.934460 0.391244 -0.221202
C11   C     C_R   0.492490 0.871271 0.501429 -0.081505
C12   C     C_R   0.297664 0.496657 0.471759 0.934480
C13   C     C_R   0.538159 0.935930 0.616881 0.124272
C14   C     C_3   0.647385 0.926173 0.690117 -0.567492
C15   C     C_3   0.650508 0.068544 0.689173 -0.190874
C16   C     C_R   0.451926 0.405361 0.062290 0.368408
C17   C     C_R   0.539414 0.598613 0.079246 -0.134455
C18   C     C_R   0.539450 0.598609 0.935385 -0.129525
C19   C     C_R   0.451871 0.405533 0.919708 0.230548
C20   C     C_3   0.480834 0.270817 0.918404 -0.532883
C21   C     C_3   0.480474 0.270074 0.071684 -0.519190
C22   C     C_R   0.499232 0.739662 0.500100 0.870708
C23   C     C_R   0.701827 0.499184 0.527636 0.881054
C24   C     C_R   0.814036 0.497297 0.545297 -0.014037
C25   C     C_R   0.184352 0.489340 0.452571 -0.213912
C26   C     C_R   0.015953 0.433065 0.327615 -0.277441
C27   C     C_R   0.123818 0.442472 0.331353 0.477022
C28   C     C_R   0.135785 0.525756 0.564820 -0.316316
H1    H     H_    0.816103 0.422038 0.342366 0.156149
H2    H     H_    0.701569 0.879728 0.627191 0.189126
H3    H     H_    0.656125 0.109538 0.793390 0.180932
H4    H     H_    0.573689 0.676852 0.139643 0.155348
H5    H     H_    0.573769 0.676802 0.887622 0.148897
H6    H     H_    0.417719 0.212136 0.861572 0.222236
H7    H     H_    0.560078 0.257184 0.888942 0.219239
H8    H     H_    0.416497 0.211044 0.101976 0.236844
H9    H     H_    0.559168 0.253780 0.130747 0.208821
H10   H     H_    0.835601 0.570356 0.752552 0.159504
H11   H     H_    0.967890 0.398031 0.236586 0.204190
H12   H     H_    0.026865 0.583316 0.767023 0.161099
H13   H     H_    0.181187 0.563071 0.656980 0.191477
H14   H     H_    0.394555 0.113398 0.305659 0.198480
H15   H     H_    0.394906 0.884154 0.304422 0.176232
H16   H     H_    0.648726 0.886521 0.794379 0.203197
N1    N     N_R   0.499290 0.499140 0.142710 -0.115877
N2    N     N_R   0.499290 0.499180 0.857070 -0.115040
O1    O     O_R   0.500010 0.316790 0.614690 -0.617849
O2    O     O_R   0.500000 0.316760 0.385350 -0.616193
O3    O     O_R   0.346360 0.499990 0.595720 -0.626188
O4    O     O_R   0.346350 0.499960 0.366370 -0.533148
O5    O     O_R   0.500000 0.683240 0.614650 -0.622048
O6    O     O_R   0.499990 0.683210 0.385310 -0.631382
O7    O     O_R   0.653650 0.500040 0.633630 -0.611029
O8    O     O_R   0.653640 0.500010 0.404280 -0.637822
Zn1   Zn    Zn3+2 0.500010 0.500020 0.653130 0.965849
Zn2   Zn    Zn3+2 0.499990 0.499980 0.346870 1.000720
C29   C     C_2   0.728627 0.121620 0.604093 0.440848
H17   H     H_    0.729754 0.089134 0.499981 0.063895
O9    O     O_2   0.791110 0.201834 0.651677 -0.561679
S1    S     S_3+6 0.176860 0.389444 0.184833 0.002140
O10   O     O_2   0.223860 0.498620 0.118334 -0.319021
O11   O     O_2   0.259965 0.293682 0.227215 -0.348929
O12   O     O_3   0.083214 0.323639 0.070726 -0.562159
H18   H     H_    0.119175 0.301085 0.991638 0.385596

loop_
_geom_bond_atom_site_label_1
_geom_bond_atom_site_label_2
_ccdc_geom_bond_type
C16   N1    A    
N2    Zn1   S    
C12   O4    A    
C23   C24   S    
C1    O2    A    
C15   H3    S    
C16   C21   S    
C8    C9    A    
C25   C27   A    
C1    C8    S    
C15   C29   S    
C9    C10   A    
C11   C22   S    
C4    H1    S    
C9    H14   S    
C12   C25   S    
C20   H6    S    
C7    C15   S    
C2    C3    A    
C29   H17   S    
C19   N2    A    
C7    C8    A    
C21   H8    S    
O3    Zn1   S    
C13   C14   S    
C25   C28   A    
C11   C13   A    
C26   C27   A    
C2    C6    A    
C5    C24   A    
C14   H2    S    
C16   C19   A    
C18   N2    A    
C23   O7    A    
S1    O11   D    
C17   N1    A    
C17   C18   A    
C22   O6    A    
O5    Zn1   S    
C27   S1    S    
O7    Zn1   S    
C5    C6    A    
C4    C24   A    
C18   H5    S    
O8    Zn2   S    
C26   H11   S    
C29   O9    D    
C12   O3    A    
S1    O12   S    
C10   C11   A    
O12   H18   S    
O6    Zn2   S    
C28   H13   S    
C7    C13   A    
C6    H12   S    
C21   H9    S    
C20   C21   S    
C23   O8    A    
C14   H16   S    
C17   H4    S    
O2    Zn2   S    
O1    Zn1   S    
C14   C15   S    
C1    O1    A    
C2    C28   A    
S1    O10   D    
C10   H15   S    
C5    H10   S    
C20   H7    S    
C3    C26   A    
O4    Zn2   S    
C3    C4    A    
C19   C20   S    
N1    Zn2   S    
C22   O5    A    
