data_mof_unit_61600.cif
_audit_creation_date              2012-12-10T18:18:08-0500
_audit_creation_method            fapswitch 2.2
_symmetry_space_group_name_H-M    P1
_symmetry_Int_Tables_number       1
_space_group_crystal_system       triclinic
_cell_length_a                    19.394129
_cell_length_b                    14.667738
_cell_length_c                    15.904342
_cell_angle_alpha                 89.72146
_cell_angle_beta                  89.975483
_cell_angle_gamma                 90.022135
_cell_volume                      4524.22218851

loop_
_atom_site_label
_atom_site_type_symbol
_atom_type_description
_atom_site_fract_x
_atom_site_fract_y
_atom_site_fract_z
_atom_type_partial_charge
C1    C     C_R   0.500186 0.500212 0.339769 0.811794
C2    C     C_R   0.929616 0.500171 0.501723 0.378807
C3    C     C_R   0.182582 0.579387 0.522560 0.521605
C4    C     C_R   0.182345 0.420667 0.480076 0.527005
C5    C     C_R   0.254451 0.579367 0.522079 0.480442
C6    C     C_R   0.254212 0.420616 0.479693 0.490021
C7    C     C_R   0.291081 0.499996 0.500582 -0.481256
C8    C     C_R   0.145663 0.500054 0.501500 -0.405353
C9    C     C_3   0.548672 0.576434 0.047430 1.014811
C10   C     C_3   0.428698 0.508022 0.047268 1.052108
C11   C     C_3   0.430036 0.498589 0.950355 -0.509375
C12   C     C_3   0.544556 0.578086 0.950087 -0.520651
C13   C     C_1   0.501423 0.498827 0.749572 -0.186477
C14   C     C_3   0.503218 0.497347 0.082733 -0.306597
C15   C     C_3   0.505385 0.492899 0.917197 -0.150158
C16   C     C_R   0.632907 0.500017 0.500021 0.792223
C17   C     C_3   0.540973 0.402802 0.952671 0.339801
C18   C     C_3   0.533042 0.404142 0.052271 0.940569
C19   C     C_1   0.503231 0.496534 0.824965 0.059567
C20   C     C_1   0.501893 0.499861 0.174889 0.291825
C21   C     C_1   0.500967 0.500559 0.250284 -0.067342
C22   C     C_3   0.530597 0.053642 0.588911 0.715427
C23   C     C_3   0.530488 0.944366 0.587616 0.733710
C24   C     C_3   0.543888 0.055289 0.428834 0.662912
C25   C     C_3   0.541815 0.946578 0.426574 0.650889
C26   C     C_3   0.497762 0.092157 0.504102 -0.314412
C27   C     C_3   0.497335 0.907690 0.503093 -0.290773
C28   C     C_3   0.421039 0.945114 0.494857 -0.107903
C29   C     C_3   0.422374 0.052910 0.491774 -0.061500
C30   C     C_1   0.498088 0.804672 0.501880 0.319342
C31   C     C_1   0.498142 0.195314 0.502380 0.335400
C32   C     C_R   0.500107 0.499767 0.660104 0.813247
C33   C     C_R   0.367127 0.499991 0.500087 0.958466
C34   C     C_R   0.745200 0.582611 0.496861 -0.151216
C35   C     C_R   0.745174 0.417561 0.504584 -0.153579
C36   C     C_R   0.817029 0.582660 0.497251 -0.118909
C37   C     C_R   0.816999 0.417599 0.505167 -0.121460
C38   C     C_R   0.853646 0.500149 0.501428 0.052211
C39   C     C_R   0.708679 0.500061 0.500445 -0.056445
C40   C     C_R   0.069519 0.500124 0.501763 0.572334
Cu1   Cu    Cu3+1 0.500090 0.589920 0.499910 1.025420
Cu2   Cu    Cu3+1 0.500090 0.410080 0.499910 1.045082
H1    H     H_    0.718335 0.647255 0.493616 0.187898
H2    H     H_    0.718290 0.352886 0.507505 0.188688
H3    H     H_    0.408932 0.067731 0.425616 0.134250
H4    H     H_    0.401525 0.920875 0.433331 0.158166
H5    H     H_    0.843753 0.647427 0.494396 0.179397
H6    H     H_    0.843698 0.352859 0.508356 0.179344
H7    H     H_    0.517212 0.640929 0.929028 0.226764
H8    H     H_    0.403079 0.557927 0.921325 0.224540
H9    H     H_    0.400798 0.436818 0.931208 0.223810
H10   H     H_    0.597175 0.582181 0.922545 0.209878
N1    N     N_R   0.965222 0.421007 0.509818 -0.215444
N2    N     N_R   0.965305 0.579322 0.493713 -0.214661
N3    N     N_R   0.033781 0.421018 0.509877 -0.128622
N4    N     N_R   0.033871 0.579267 0.493695 -0.125878
N5    N     N_1   0.498600 0.724970 0.501390 -0.166753
N6    N     N_1   0.498600 0.275030 0.501390 -0.149765
O1    O     O_R   0.500080 0.575970 0.379360 -0.582305
O2    O     O_R   0.500080 0.424030 0.379360 -0.547223
O3    O     O_R   0.599930 0.575960 0.499920 -0.577020
O4    O     O_R   0.599930 0.424040 0.499920 -0.571187
O5    O     O_R   0.500070 0.575900 0.620490 -0.572855
O6    O     O_R   0.500070 0.424100 0.620490 -0.587709
O7    O     O_R   0.400220 0.575910 0.499940 -0.525991
O8    O     O_R   0.400220 0.424090 0.499940 -0.533493
N7    N     N_2   0.614756 0.400113 0.930453 -0.384751
H11   H     H_    0.646772 0.442395 0.964227 0.316787
C41   C     C_3   0.636288 0.391621 0.843439 -0.628546
H12   H     H_    0.641414 0.460175 0.814222 0.217033
H13   H     H_    0.599853 0.349921 0.806153 0.228363
H14   H     H_    0.687529 0.358047 0.841326 0.246247
N8    N     N_2   0.506340 0.321120 0.919978 -0.390984
H15   H     H_    0.485776 0.325795 0.860371 0.242782
C42   C     C_3   0.537481 0.232745 0.936599 -0.471742
H16   H     H_    0.577416 0.217531 0.888762 0.191914
H17   H     H_    0.497096 0.179257 0.933610 0.209883
H18   H     H_    0.561766 0.229757 0.999690 0.281646
F1    F     F_    0.599076 0.916419 0.590240 -0.544062
F2    F     F_    0.598736 0.083276 0.592570 -0.539347
N9    N     N_2   0.523336 0.097150 0.348428 -0.476762
H19   H     H_    0.476178 0.079535 0.323889 0.215120
C43   C     C_3   0.575802 0.106883 0.284002 -0.410923
H20   H     H_    0.552578 0.136602 0.226215 0.216882
H21   H     H_    0.598455 0.039564 0.268347 0.234294
H22   H     H_    0.617031 0.153936 0.305328 0.268183
N10   N     N_2   0.516429 0.913952 0.345052 -0.510957
H23   H     H_    0.466136 0.925706 0.327776 0.209465
C44   C     C_3   0.549062 0.836549 0.305032 -0.452047
H24   H     H_    0.526036 0.825957 0.241905 0.233642
H25   H     H_    0.541279 0.773684 0.342716 0.225764
H26   H     H_    0.605030 0.849320 0.296192 0.267699
F3    F     F_    0.611680 0.081975 0.443674 -0.526098
F4    F     F_    0.609277 0.915788 0.436044 -0.535658
N11   N     N_2   0.367528 0.101999 0.536392 -0.383796
H27   H     H_    0.353553 0.164043 0.510696 0.299239
C45   C     C_3   0.348005 0.090498 0.623727 -0.515688
H28   H     H_    0.357781 0.154579 0.658583 0.198129
H29   H     H_    0.375301 0.034279 0.654968 0.248933
H30   H     H_    0.291864 0.076464 0.627267 0.235729
N12   N     N_2   0.373528 0.907606 0.557504 -0.404227
H31   H     H_    0.389144 0.848004 0.586193 0.291164
C46   C     C_3   0.302103 0.900340 0.531359 -0.481939
H32   H     H_    0.269263 0.885926 0.587052 0.245509
H33   H     H_    0.296187 0.843705 0.485761 0.252063
H34   H     H_    0.284018 0.964581 0.501547 0.245083
N13   N     N_2   0.496563 0.090959 0.663305 -0.494604
H35   H     H_    0.476010 0.155058 0.655065 0.250356
C47   C     C_3   0.534766 0.087812 0.741694 -0.599781
H36   H     H_    0.498391 0.095951 0.794973 0.204725
H37   H     H_    0.573016 0.144210 0.743438 0.250891
H38   H     H_    0.562436 0.022305 0.749701 0.267810
N14   N     N_2   0.495124 0.903755 0.660276 -0.495122
H39   H     H_    0.455438 0.936985 0.689884 0.255151
C48   C     C_3   0.527743 0.830927 0.707643 -0.537943
H40   H     H_    0.489217 0.798024 0.749621 0.208042
H41   H     H_    0.570179 0.858680 0.746681 0.246362
H42   H     H_    0.548541 0.778067 0.664886 0.255780
F5    F     F_    0.149401 0.656858 0.545610 -0.576752
F6    F     F_    0.148918 0.343209 0.457457 -0.564013
F7    F     F_    0.287943 0.656899 0.544399 -0.611872
F8    F     F_    0.287453 0.342969 0.457211 -0.593450
F9    F     F_    0.526411 0.659621 0.078482 -0.604060
F10   F     F_    0.402062 0.592635 0.068410 -0.596673
F11   F     F_    0.385068 0.442511 0.081208 -0.577283
F12   F     F_    0.616655 0.565178 0.072358 -0.619742
F13   F     F_    0.595917 0.387619 0.091312 -0.623681
F14   F     F_    0.488884 0.335365 0.079342 -0.603610

loop_
_geom_bond_atom_site_label_1
_geom_bond_atom_site_label_2
_ccdc_geom_bond_type
N10   H23   S    
C1    C21   S    
N12   H31   S    
N13   C47   S    
Cu1   Cu2   S    
C14   C18   S    
C13   C32   S    
N11   H27   S    
Cu1   O3    S    
C4    C8    A    
Cu2   N6    S    
C12   H7    S    
C33   O7    A    
C15   C19   S    
N8    C42   S    
C28   H4    S    
C31   N6    T    
C28   C29   S    
C35   C37   A    
C24   C26   S    
C10   F10   S    
C47   H37   S    
C48   H40   S    
C30   N5    T    
C5    F7    S    
C25   N10   S    
C36   H5    S    
N8    H15   S    
C41   H13   S    
C18   F14   S    
C11   C15   S    
C28   N12   S    
C48   H41   S    
N13   H35   S    
C23   C27   S    
C44   H25   S    
C10   F11   S    
Cu2   O4    S    
C40   N3    A    
C26   C31   S    
N12   C46   S    
C27   C30   S    
C17   N8    S    
C7    C33   S    
C16   O4    A    
N9    C43   S    
C33   O8    A    
C45   H28   S    
N1    N3    A    
N2    N4    A    
C17   N7    S    
C13   C19   T    
N7    H11   S    
C14   C20   S    
C3    F5    S    
C24   C25   S    
Cu1   O1    S    
C4    C6    A    
C3    C8    A    
C10   C14   S    
C1    O2    A    
Cu2   O2    S    
C5    C7    A    
C9    C14   S    
Cu1   O7    S    
C40   N4    A    
N9    H19   S    
C34   C39   A    
C29   H3    S    
C37   H6    S    
C41   H14   S    
C35   C39   A    
C42   H16   S    
C37   C38   A    
C18   F13   S    
C23   N14   S    
C2    C38   S    
C43   H20   S    
C12   C15   S    
C48   H42   S    
C17   C18   S    
C46   H33   S    
C44   H26   S    
C35   H2    S    
C42   H17   S    
C32   O6    A    
C24   N9    S    
C43   H21   S    
C10   C11   S    
N10   C44   S    
C2    N2    A    
C47   H38   S    
C16   O3    A    
Cu1   O5    S    
Cu2   O6    S    
C46   H32   S    
C45   H30   S    
C29   N11   S    
N14   H39   S    
C15   C17   S    
C45   H29   S    
C34   H1    S    
C32   O5    A    
C3    C5    A    
C2    N1    A    
N11   C45   S    
C6    C7    A    
C25   C27   S    
C12   H10   S    
C9    F12   S    
C23   F1    S    
C1    O1    A    
Cu1   N5    S    
C11   H8    S    
C47   H36   S    
C36   C38   A    
C9    F9    S    
C46   H34   S    
C34   C36   A    
C41   H12   S    
C42   H18   S    
C11   H9    S    
C9    C12   S    
C16   C39   S    
C22   F2    S    
C25   F4    S    
C43   H22   S    
C20   C21   T    
C26   C29   S    
C22   C26   S    
C27   C28   S    
Cu2   O8    S    
C6    F8    S    
C22   C23   S    
C4    F6    S    
C8    C40   S    
N7    C41   S    
C44   H24   S    
C24   F3    S    
C22   N13   S    
N14   C48   S    
