data_mof_unit_60216.cif
_audit_creation_date              2012-10-26T17:17:39-0400
_audit_creation_method            fapswitch 2.2
_symmetry_space_group_name_H-M    P1
_symmetry_Int_Tables_number       1
_space_group_crystal_system       triclinic
_cell_length_a                    21.863492
_cell_length_b                    21.863492
_cell_length_c                    29.363903
_cell_angle_alpha                 90.000017
_cell_angle_beta                  90.000016
_cell_angle_gamma                 89.999672
_cell_volume                      14036.306294

loop_
_atom_site_label
_atom_site_type_symbol
_atom_type_description
_atom_site_fract_x
_atom_site_fract_y
_atom_site_fract_z
_atom_type_partial_charge
C1    C     C_R   0.500000 0.118792 0.499999 0.522685
C2    C     C_R   0.717695 0.453888 0.476412 -0.008178
C3    C     C_R   0.191958 0.574091 0.433638 0.050400
C4    C     C_R   0.425909 0.808042 0.566362 0.050400
C5    C     C_R   0.808039 0.574090 0.566367 0.050388
C6    C     C_R   0.574082 0.191960 0.566369 0.050393
C7    C     C_R   0.191965 0.425872 0.566345 0.050376
C8    C     C_R   0.925905 0.691961 0.933638 0.050397
C9    C     C_R   0.308039 0.925889 0.933645 0.050380
C10   C     C_R   0.074088 0.308038 0.933633 0.050392
C11   C     C_R   0.691960 0.074088 0.933633 0.050384
C12   C     C_R   0.925912 0.308039 0.066367 0.050384
C13   C     C_R   0.546120 0.717690 0.476420 -0.008168
C14   C     C_R   0.308039 0.074094 0.066362 0.050397
C15   C     C_R   0.074111 0.691961 0.066354 0.050380
C16   C     C_R   0.691962 0.925912 0.066367 0.050392
C17   C     C_R   0.372524 0.221400 0.418478 -0.094928
C18   C     C_R   0.778603 0.372533 0.418473 -0.094927
C19   C     C_R   0.627522 0.778594 0.418518 -0.094924
C20   C     C_R   0.221393 0.627480 0.418485 -0.094929
C21   C     C_R   0.372520 0.778607 0.581515 -0.094929
C22   C     C_R   0.778600 0.627475 0.581521 -0.094928
C23   C     C_R   0.627467 0.221397 0.581527 -0.094927
C24   C     C_R   0.282303 0.546117 0.476416 -0.008185
C25   C     C_R   0.221405 0.372478 0.581482 -0.094924
C26   C     C_R   0.872517 0.721398 0.918485 -0.094928
C27   C     C_R   0.278603 0.872496 0.918502 -0.094923
C28   C     C_R   0.127475 0.278600 0.918478 -0.094927
C29   C     C_R   0.721397 0.127475 0.918479 -0.094925
C30   C     C_R   0.872525 0.278603 0.081521 -0.094925
C31   C     C_R   0.278602 0.127482 0.081515 -0.094928
C32   C     C_R   0.127505 0.721397 0.081497 -0.094923
C33   C     C_R   0.721400 0.872525 0.081522 -0.094927
C34   C     C_R   0.360158 0.281084 0.431604 -0.135189
C35   C     C_R   0.453883 0.717696 0.523584 -0.008184
C36   C     C_R   0.718921 0.360160 0.431603 -0.135183
C37   C     C_R   0.639875 0.718908 0.431643 -0.135195
C38   C     C_R   0.281075 0.639851 0.431614 -0.135180
C39   C     C_R   0.360149 0.718925 0.568386 -0.135180
C40   C     C_R   0.718916 0.639842 0.568396 -0.135190
C41   C     C_R   0.639840 0.281079 0.568397 -0.135183
C42   C     C_R   0.281092 0.360125 0.568357 -0.135195
C43   C     C_R   0.860148 0.781080 0.931614 -0.135181
C44   C     C_R   0.218918 0.860136 0.931628 -0.135188
C45   C     C_R   0.139843 0.218917 0.931606 -0.135185
C46   C     C_R   0.717694 0.546111 0.523591 -0.008177
C47   C     C_R   0.781079 0.139845 0.931608 -0.135185
C48   C     C_R   0.860155 0.218921 0.068392 -0.135185
C49   C     C_R   0.218919 0.139851 0.068386 -0.135181
C50   C     C_R   0.139865 0.781082 0.068371 -0.135188
C51   C     C_R   0.781083 0.860157 0.068395 -0.135185
C52   C     C_R   0.402403 0.312663 0.457958 -0.105634
C53   C     C_R   0.687342 0.402400 0.457962 -0.105626
C54   C     C_R   0.597612 0.687331 0.457982 -0.105634
C55   C     C_R   0.312656 0.597607 0.457968 -0.105634
C56   C     C_R   0.402393 0.687344 0.542032 -0.105634
C57   C     C_R   0.546112 0.282305 0.523588 -0.008178
C58   C     C_R   0.687337 0.597597 0.542042 -0.105634
C59   C     C_R   0.597600 0.312658 0.542038 -0.105626
C60   C     C_R   0.312669 0.402387 0.542018 -0.105634
C61   C     C_R   0.902393 0.812660 0.957969 -0.105630
C62   C     C_R   0.187337 0.902391 0.957973 -0.105635
C63   C     C_R   0.097601 0.187338 0.957962 -0.105629
C64   C     C_R   0.812659 0.097602 0.957964 -0.105628
C65   C     C_R   0.902398 0.187341 0.042036 -0.105628
C66   C     C_R   0.187340 0.097606 0.042031 -0.105630
C67   C     C_R   0.097609 0.812663 0.042026 -0.105635
C68   C     C_R   0.282309 0.453880 0.523580 -0.008168
C69   C     C_R   0.812661 0.902399 0.042038 -0.105629
C70   C     C_3   0.450715 0.141283 0.403780 -0.257249
C71   C     C_3   0.462301 0.163803 0.355136 -0.453906
C72   C     C_3   0.858712 0.450731 0.403776 -0.257247
C73   C     C_3   0.836180 0.462335 0.355136 -0.453901
C74   C     C_3   0.549348 0.858723 0.403799 -0.257253
C75   C     C_3   0.537836 0.836234 0.355140 -0.453943
C76   C     C_3   0.141287 0.549280 0.403781 -0.257239
C77   C     C_3   0.163821 0.537681 0.355141 -0.453898
C78   C     C_3   0.450720 0.858713 0.596219 -0.257239
C79   C     C_R   0.953883 0.782305 0.976416 -0.008180
C80   C     C_3   0.462319 0.836179 0.644859 -0.453898
C81   C     C_3   0.858717 0.549285 0.596220 -0.257249
C82   C     C_3   0.836197 0.537699 0.644864 -0.453906
C83   C     C_3   0.549269 0.141288 0.596224 -0.257248
C84   C     C_3   0.537665 0.163819 0.644864 -0.453902
C85   C     C_3   0.141277 0.450652 0.596200 -0.257253
C86   C     C_3   0.163766 0.462164 0.644860 -0.453943
C87   C     C_3   0.950714 0.641288 0.903780 -0.257241
C88   C     C_3   0.962308 0.663818 0.855139 -0.453900
C89   C     C_3   0.358720 0.950684 0.903789 -0.257213
C90   C     C_R   0.217693 0.953882 0.976416 -0.008176
C91   C     C_3   0.336213 0.962221 0.855131 -0.453874
C92   C     C_3   0.049279 0.358714 0.903778 -0.257252
C93   C     C_3   0.037688 0.336190 0.855136 -0.453909
C94   C     C_3   0.641285 0.049279 0.903779 -0.257233
C95   C     C_3   0.663805 0.037700 0.855132 -0.453882
C96   C     C_3   0.950721 0.358715 0.096220 -0.257233
C97   C     C_3   0.962300 0.336195 0.144868 -0.453882
C98   C     C_3   0.358712 0.049285 0.096220 -0.257240
C99   C     C_3   0.336182 0.037691 0.144861 -0.453900
C100  C     C_3   0.049317 0.641280 0.096210 -0.257213
C101  C     C_R   0.046113 0.217694 0.976412 -0.008177
C102  C     C_3   0.037782 0.663786 0.144869 -0.453874
C103  C     C_3   0.641286 0.950721 0.096222 -0.257252
C104  C     C_3   0.663810 0.962312 0.144864 -0.453909
C105  C     C_R   0.881208 0.500000 0.500001 0.522686
C106  C     C_R   0.782305 0.046113 0.976412 -0.008177
C107  C     C_R   0.953887 0.217695 0.023588 -0.008177
C108  C     C_R   0.217695 0.046117 0.023585 -0.008180
C109  C     C_R   0.046118 0.782307 0.023583 -0.008176
C110  C     C_R   0.782306 0.953887 0.023588 -0.008177
C111  C     C_R   0.460349 0.218772 0.469894 0.014278
C112  C     C_R   0.781229 0.460351 0.469895 0.014281
C113  C     C_R   0.539666 0.781225 0.469903 0.014271
C114  C     C_R   0.218770 0.539653 0.469899 0.014286
C115  C     C_R   0.460347 0.781230 0.530101 0.014286
C116  C     C_R   0.500001 0.881207 0.499997 0.522687
C117  C     C_R   0.781228 0.539651 0.530106 0.014278
C118  C     C_R   0.539648 0.218771 0.530105 0.014281
C119  C     C_R   0.218775 0.460333 0.530097 0.014271
C120  C     C_R   0.960345 0.718772 0.969898 0.014283
C121  C     C_R   0.281228 0.960340 0.969900 0.014269
C122  C     C_R   0.039651 0.281228 0.969895 0.014280
C123  C     C_R   0.718772 0.039651 0.969895 0.014276
C124  C     C_R   0.960349 0.281228 0.030105 0.014276
C125  C     C_R   0.281228 0.039655 0.030102 0.014283
C126  C     C_R   0.039660 0.718773 0.030100 0.014269
C127  C     C_R   0.118792 0.499999 0.500003 0.522687
C128  C     C_R   0.718772 0.960348 0.030105 0.014280
C129  C     C_R   0.500001 0.314112 0.499999 -0.025253
C130  C     C_R   0.685888 0.499999 0.500001 -0.025253
C131  C     C_R   0.499998 0.685887 0.500000 -0.025244
C132  C     C_R   0.314113 0.500002 0.500000 -0.025244
C133  C     C_R   0.999999 0.814112 0.000000 -0.025247
C134  C     C_R   0.185887 0.000001 1.000000 -0.025247
C135  C     C_R   0.000000 0.185888 1.000000 -0.025251
C136  C     C_R   0.814112 1.000000 0.000000 -0.025250
C137  C     C_R   0.499999 0.185960 0.499999 -0.034798
C138  C     C_R   1.000000 0.618792 0.000002 0.522687
C139  C     C_R   0.814040 0.500001 0.500001 -0.034798
C140  C     C_R   0.500004 0.814039 0.499999 -0.034802
C141  C     C_R   0.185961 0.499996 0.500001 -0.034802
C142  C     C_R   0.000001 0.685961 0.000000 -0.034804
C143  C     C_R   0.314039 0.999999 1.000000 -0.034804
C144  C     C_R   0.000000 0.314040 1.000000 -0.034800
C145  C     C_R   0.685960 0.999999 0.000000 -0.034800
C146  C     C_R   0.619596 0.499999 0.500000 0.534418
C147  C     C_R   0.499995 0.619596 0.500000 0.534419
C148  C     C_R   0.380404 0.500005 0.500000 0.534419
C149  C     C_R   0.381208 1.000000 0.999998 0.522687
C150  C     C_R   0.500001 0.380404 0.500000 0.534418
C151  C     C_R   0.119596 0.000002 1.000000 0.534419
C152  C     C_R   1.000000 0.119596 1.000000 0.534419
C153  C     C_R   0.880404 0.000000 0.000000 0.534419
C154  C     C_R   0.999998 0.880404 0.000000 0.534420
C155  C     C_R   0.500000 0.999998 0.415443 0.510009
C156  C     C_R   0.000000 0.500000 0.415443 0.509998
C157  C     C_R   0.500000 1.000000 0.584557 0.509998
C158  C     C_R   0.000001 0.500000 0.584557 0.510009
C159  C     C_R   1.000000 0.500000 0.915443 0.510001
C160  C     C_R   0.000000 0.381207 0.000000 0.522687
C161  C     C_R   0.499999 0.000000 0.915443 0.510006
C162  C     C_R   1.000000 0.500001 0.084557 0.510006
C163  C     C_R   0.499999 0.000000 0.084557 0.510001
C164  C     C_1   0.499999 0.999999 0.364138 -0.061729
C165  C     C_1   0.000001 0.500000 0.364138 -0.061741
C166  C     C_1   0.500000 0.999999 0.635862 -0.061742
C167  C     C_1   0.000001 0.500000 0.635862 -0.061730
C168  C     C_1   1.000000 0.500001 0.864138 -0.061740
C169  C     C_1   0.500000 1.000000 0.864138 -0.061734
C170  C     C_1   1.000000 0.500000 0.135862 -0.061734
C171  C     C_R   0.618792 1.000000 1.000000 0.522687
C172  C     C_1   0.499999 0.000000 0.135862 -0.061740
C173  C     C_1   0.499999 1.000000 0.321645 -0.058571
C174  C     C_1   0.000001 0.500000 0.321645 -0.058556
C175  C     C_1   0.500000 0.999999 0.678355 -0.058556
C176  C     C_1   0.000000 0.500001 0.678355 -0.058571
C177  C     C_1   1.000000 0.500001 0.821645 -0.058560
C178  C     C_1   0.500000 1.000000 0.821645 -0.058563
C179  C     C_1   0.000000 0.500000 0.178355 -0.058563
C180  C     C_1   0.499999 0.000000 0.178355 -0.058560
C181  C     C_1   0.499999 0.000000 0.271246 -0.015719
C182  C     C_R   0.453888 0.282306 0.476409 -0.008177
C183  C     C_1   0.000001 0.500000 0.271246 -0.015717
C184  C     C_1   0.500000 0.999999 0.728754 -0.015717
C185  C     C_1   1.000000 0.500001 0.728754 -0.015719
C186  C     C_1   1.000000 0.500001 0.771246 -0.015715
C187  C     C_1   0.500000 1.000000 0.771246 -0.015720
C188  C     C_1   0.000000 0.500000 0.228754 -0.015720
C189  C     C_1   0.499998 0.000000 0.228754 -0.015715
C190  C     C_R   0.425910 0.191961 0.433633 0.050388
C191  C     C_R   0.808040 0.425918 0.433631 0.050393
C192  C     C_R   0.574128 0.808035 0.433654 0.050376
Cu1   Cu    Cu3+1 0.561800 0.000000 0.500000 0.902239
Cu2   Cu    Cu3+1 0.500000 0.500000 0.457520 0.913743
Cu3   Cu    Cu3+1 0.000000 0.000000 0.042480 0.913744
Cu4   Cu    Cu3+1 0.000000 0.000000 0.957520 0.913744
Cu5   Cu    Cu3+1 0.000000 0.561800 0.500000 0.902267
Cu6   Cu    Cu3+1 0.438200 0.000000 0.500000 0.902268
Cu7   Cu    Cu3+1 1.000000 0.438200 0.500000 0.902240
Cu8   Cu    Cu3+1 0.061800 0.500000 0.000000 0.902245
Cu9   Cu    Cu3+1 0.500000 0.061800 0.000000 0.902266
Cu10  Cu    Cu3+1 0.938200 0.500000 0.000000 0.902266
Cu11  Cu    Cu3+1 0.500000 0.938200 0.000000 0.902246
Cu12  Cu    Cu3+1 0.500000 0.500000 0.542480 0.913743
H1    H     H_    0.656896 0.199912 0.606520 0.108003
H2    H     H_    0.300087 0.156916 0.106505 0.108000
H3    H     H_    0.008559 0.294544 0.855615 0.161105
H4    H     H_    0.013590 0.372003 0.835322 0.150516
H5    H     H_    0.004542 0.375352 0.916050 0.157252
H6    H     H_    0.082527 0.397023 0.902957 0.169413
H7    H     H_    0.674175 0.081375 0.837475 0.145712
H8    H     H_    0.705476 0.008599 0.855604 0.161103
H9    H     H_    0.628004 0.013575 0.835325 0.150515
H10   H     H_    0.624655 0.004536 0.916049 0.157240
H11   H     H_    0.602970 0.082524 0.902965 0.169420
H12   H     H_    0.918624 0.325825 0.162525 0.145711
H13   H     H_    0.843092 0.300089 0.106511 0.108006
H14   H     H_    0.991400 0.294525 0.144396 0.161103
H15   H     H_    0.986425 0.371995 0.164675 0.150515
H16   H     H_    0.995464 0.375345 0.083950 0.157240
H17   H     H_    0.917476 0.397030 0.097035 0.169420
H18   H     H_    0.325772 0.081357 0.162516 0.145728
H19   H     H_    0.294536 0.008562 0.144378 0.161103
H20   H     H_    0.371991 0.013592 0.164677 0.150513
H21   H     H_    0.375353 0.004549 0.083947 0.157254
H22   H     H_    0.397022 0.082534 0.097044 0.169403
H23   H     H_    0.081475 0.674127 0.162512 0.145693
H24   H     H_    0.699915 0.843093 0.106512 0.108003
H25   H     H_    0.008698 0.705471 0.144420 0.161104
H26   H     H_    0.013654 0.627988 0.164678 0.150517
H27   H     H_    0.004559 0.624664 0.083955 0.157216
H28   H     H_    0.082557 0.602958 0.097003 0.169453
H29   H     H_    0.674218 0.918647 0.162518 0.145729
H30   H     H_    0.705456 0.991441 0.144385 0.161105
H31   H     H_    0.627998 0.986410 0.164678 0.150516
H32   H     H_    0.624648 0.995458 0.083949 0.157252
H33   H     H_    0.602977 0.917473 0.097043 0.169413
H34   H     H_    0.156907 0.300085 0.893488 0.108003
H35   H     H_    0.300091 0.843050 0.893521 0.108006
H36   H     H_    0.843084 0.699913 0.893495 0.108000
H37   H     H_    0.699911 0.156908 0.893489 0.108006
H38   H     H_    0.320245 0.304425 0.418411 0.115864
H39   H     H_    0.695582 0.320246 0.418409 0.115861
H40   H     H_    0.679794 0.695565 0.418463 0.115868
H41   H     H_    0.800086 0.656909 0.606509 0.108005
H42   H     H_    0.304413 0.679767 0.418422 0.115867
H43   H     H_    0.320233 0.695587 0.581578 0.115867
H44   H     H_    0.695575 0.679755 0.581589 0.115864
H45   H     H_    0.679754 0.304418 0.581591 0.115861
H46   H     H_    0.304435 0.320205 0.581537 0.115868
H47   H     H_    0.820232 0.804420 0.918423 0.115863
H48   H     H_    0.195578 0.820217 0.918444 0.115867
H49   H     H_    0.179758 0.195576 0.918413 0.115864
H50   H     H_    0.804419 0.179760 0.918416 0.115862
H51   H     H_    0.820240 0.195581 0.081584 0.115862
H52   H     H_    0.343089 0.800093 0.606506 0.108001
H53   H     H_    0.195579 0.179767 0.081577 0.115863
H54   H     H_    0.179784 0.804422 0.081555 0.115867
H55   H     H_    0.804423 0.820242 0.081587 0.115864
H56   H     H_    0.393962 0.360672 0.463993 0.128188
H57   H     H_    0.639334 0.393955 0.464002 0.128172
H58   H     H_    0.606046 0.639320 0.464017 0.128184
H59   H     H_    0.360665 0.606050 0.464005 0.128162
H60   H     H_    0.393950 0.639335 0.535995 0.128162
H61   H     H_    0.639328 0.606038 0.536007 0.128188
H62   H     H_    0.606045 0.360666 0.535998 0.128172
H63   H     H_    0.199919 0.343025 0.606456 0.108013
H64   H     H_    0.360680 0.393954 0.535983 0.128185
H65   H     H_    0.893951 0.860669 0.964007 0.128169
H66   H     H_    0.139327 0.893954 0.964009 0.128177
H67   H     H_    0.106043 0.139329 0.964000 0.128175
H68   H     H_    0.860668 0.106045 0.964003 0.128173
H69   H     H_    0.893955 0.139332 0.035997 0.128173
H70   H     H_    0.139331 0.106049 0.035993 0.128169
H71   H     H_    0.106046 0.860673 0.035990 0.128177
H72   H     H_    0.860670 0.893957 0.036000 0.128176
H73   H     H_    0.418635 0.174208 0.337485 0.145728
H74   H     H_    0.656975 0.800081 0.393544 0.108013
H75   H     H_    0.491430 0.205450 0.355611 0.161103
H76   H     H_    0.486397 0.127988 0.335322 0.150517
H77   H     H_    0.495453 0.124645 0.416051 0.157253
H78   H     H_    0.417467 0.102973 0.402963 0.169418
H79   H     H_    0.825775 0.418673 0.337476 0.145729
H80   H     H_    0.794531 0.491460 0.355623 0.161105
H81   H     H_    0.871987 0.486442 0.335322 0.150511
H82   H     H_    0.875353 0.495465 0.416052 0.157255
H83   H     H_    0.897021 0.417482 0.402947 0.169400
H84   H     H_    0.581531 0.825888 0.337512 0.145706
H85   H     H_    0.800087 0.343104 0.393480 0.108003
H86   H     H_    0.508752 0.794559 0.355577 0.161127
H87   H     H_    0.513728 0.872040 0.335327 0.150526
H88   H     H_    0.504589 0.875338 0.416043 0.157225
H89   H     H_    0.582584 0.897041 0.403021 0.169490
H90   H     H_    0.174229 0.581346 0.337484 0.145729
H91   H     H_    0.205469 0.508554 0.355627 0.161102
H92   H     H_    0.128014 0.513577 0.335325 0.150510
H93   H     H_    0.124646 0.504545 0.416055 0.157258
H94   H     H_    0.102977 0.582529 0.402953 0.169400
H95   H     H_    0.418654 0.825771 0.662516 0.145730
H96   H     H_    0.343091 0.199914 0.393491 0.108005
H97   H     H_    0.491446 0.794530 0.644373 0.161102
H98   H     H_    0.486423 0.871986 0.664675 0.150510
H99   H     H_    0.495455 0.875354 0.583945 0.157258
H100  H     H_    0.417471 0.897023 0.597047 0.169400
H101  H     H_    0.825792 0.581366 0.662515 0.145728
H102  H     H_    0.794550 0.508570 0.644389 0.161104
H103  H     H_    0.872012 0.513603 0.664678 0.150517
H104  H     H_    0.875355 0.504547 0.583949 0.157253
H105  H     H_    0.897026 0.582533 0.597037 0.169417
H106  H     H_    0.581327 0.174224 0.662524 0.145730
H107  H     H_    0.199907 0.656911 0.393494 0.108001
H108  H     H_    0.508540 0.205468 0.644377 0.161105
H109  H     H_    0.513558 0.128013 0.664678 0.150512
H110  H     H_    0.504535 0.124647 0.583947 0.157255
H111  H     H_    0.582518 0.102979 0.597053 0.169400
H112  H     H_    0.174113 0.418469 0.662488 0.145706
H113  H     H_    0.205441 0.491249 0.644423 0.161126
H114  H     H_    0.127960 0.486272 0.664673 0.150526
H115  H     H_    0.124662 0.495411 0.583957 0.157225
H116  H     H_    0.102959 0.417416 0.596979 0.169490
H117  H     H_    0.918642 0.674228 0.837484 0.145728
H118  H     H_    0.156951 0.699909 0.106478 0.108006
H119  H     H_    0.991437 0.705464 0.855622 0.161103
H120  H     H_    0.986407 0.628009 0.835322 0.150513
H121  H     H_    0.995451 0.624647 0.916053 0.157254
H122  H     H_    0.917465 0.602978 0.902956 0.169404
H123  H     H_    0.325872 0.918528 0.837487 0.145694
H124  H     H_    0.294529 0.991305 0.855581 0.161104
H125  H     H_    0.372012 0.986348 0.835322 0.150517
H126  H     H_    0.375336 0.995441 0.916045 0.157217
H127  H     H_    0.397041 0.917444 0.902996 0.169452
H128  H     H_    0.081354 0.325782 0.837482 0.145729
O1    O     O_R   0.552190 0.090170 0.499990 -0.500919
O2    O     O_R   0.409830 0.052190 0.999990 -0.500921
O3    O     O_R   0.947810 0.409830 0.999990 -0.500928
O4    O     O_R   0.590170 0.947810 0.999990 -0.500924
O5    O     O_R   0.052190 0.409830 0.000010 -0.500924
O6    O     O_R   0.409830 0.947810 0.000010 -0.500940
O7    O     O_R   0.947810 0.590170 0.000010 -0.500921
O8    O     O_R   0.590170 0.052190 0.000010 -0.500928
O9    O     O_R   0.552190 0.000010 0.438020 -0.498377
O10   O     O_R   0.999990 0.552190 0.438020 -0.498347
O11   O     O_R   0.447810 0.999990 0.438020 -0.498345
O12   O     O_R   0.909830 0.552190 0.499990 -0.500932
O13   O     O_R   0.000010 0.447810 0.438020 -0.498341
O14   O     O_R   0.552190 0.999990 0.561980 -0.498341
O15   O     O_R   0.999990 0.447810 0.561980 -0.498377
O16   O     O_R   0.447810 0.000010 0.561980 -0.498347
O17   O     O_R   0.000010 0.552190 0.561980 -0.498345
O18   O     O_R   0.052190 0.500010 0.938020 -0.498345
O19   O     O_R   0.499990 0.052190 0.938020 -0.498349
O20   O     O_R   0.947810 0.499990 0.938020 -0.498347
O21   O     O_R   0.500010 0.947810 0.938020 -0.498368
O22   O     O_R   0.052190 0.499990 0.061980 -0.498368
O23   O     O_R   0.447810 0.909830 0.499990 -0.500913
O24   O     O_R   0.499990 0.947810 0.061980 -0.498345
O25   O     O_R   0.947810 0.500010 0.061980 -0.498349
O26   O     O_R   0.500010 0.052190 0.061980 -0.498347
O27   O     O_R   0.590140 0.499990 0.535880 -0.511464
O28   O     O_R   0.500010 0.590140 0.535880 -0.511463
O29   O     O_R   0.409860 0.500010 0.535880 -0.511462
O30   O     O_R   0.499990 0.409860 0.535880 -0.511458
O31   O     O_R   0.590140 0.500010 0.464120 -0.511458
O32   O     O_R   0.500010 0.409860 0.464120 -0.511464
O33   O     O_R   0.409860 0.499990 0.464120 -0.511463
O34   O     O_R   0.090170 0.447810 0.499990 -0.500951
O35   O     O_R   0.499990 0.590140 0.464120 -0.511462
O36   O     O_R   0.090140 0.999990 0.035880 -0.511459
O37   O     O_R   0.000010 0.090140 0.035880 -0.511461
O38   O     O_R   0.909860 0.000010 0.035880 -0.511463
O39   O     O_R   0.999990 0.909860 0.035880 -0.511463
O40   O     O_R   0.090140 0.000010 0.964120 -0.511463
O41   O     O_R   0.000010 0.909860 0.964120 -0.511459
O42   O     O_R   0.909860 0.999990 0.964120 -0.511461
O43   O     O_R   0.999990 0.090140 0.964120 -0.511463
O44   O     O_R   0.552190 0.909830 0.500010 -0.500951
O45   O     O_R   0.909830 0.447810 0.500010 -0.500919
O46   O     O_R   0.447810 0.090170 0.500010 -0.500932
O47   O     O_R   0.090170 0.552190 0.500010 -0.500913
O48   O     O_R   0.052190 0.590170 0.999990 -0.500941

loop_
_geom_bond_atom_site_label_1
_geom_bond_atom_site_label_2
_ccdc_geom_bond_type
C82   H103  S    
C83   H110  S    
Cu1   O9    S    
C103  H32   S    
C147  O35   A    
C130  C146  S    
C8    C26   A    
C129  C182  A    
Cu3   O37   S    
C15   C32   A    
C78   H100  S    
C43   C61   A    
C95   H8    S    
Cu11  O24   S    
C52   C182  A    
C68   C119  A    
C90   C134  A    
C128  C145  A    
C57   C59   A    
C116  O23   A    
Cu5   Cu7   S    
C36   C53   A    
C19   C37   A    
C87   H122  S    
C77   H90   S    
C104  H31   S    
C38   C55   A    
C123  C145  A    
C75   H84   S    
C9    C121  A    
C35   C115  A    
Cu12  O29   S    
C48   C65   A    
C144  C160  S    
C72   C191  S    
Cu5   O17   S    
C154  O41   A    
Cu10  O7    S    
C163  O26   A    
C99   H18   S    
C37   H40   S    
C151  O36   A    
C117  C139  A    
C107  C124  A    
C25   H63   S    
C80   H97   S    
Cu4   O43   S    
C94   H10   S    
C40   C58   A    
C109  C133  A    
C7    C119  A    
C74   C75   S    
C47   C64   A    
Cu5   O47   S    
C86   H113  S    
C179  C188  S    
C96   H16   S    
C111  C182  A    
C177  C186  S    
C159  O20   A    
C46   C117  A    
C54   H58   S    
C174  C183  S    
C114  C141  A    
C4    C78   S    
C156  O13   A    
C39   C56   A    
C79   C120  A    
Cu12  O27   S    
C89   H126  S    
C94   H11   S    
C164  C173  T    
C163  C172  S    
C62   H66   S    
Cu6   O11   S    
C82   H101  S    
C127  O47   A    
C119  C141  A    
C158  C167  S    
Cu1   O1    S    
C17   C34   A    
C111  C137  A    
C13   C54   A    
C6    C83   S    
C36   H39   S    
C72   C73   S    
C10   C122  A    
C2    C53   A    
C7    C25   A    
C64   C106  A    
C147  O28   A    
Cu6   O46   S    
C101  C122  A    
C23   C41   A    
C56   H60   S    
C183  C188  T    
C21   H52   S    
C155  O11   A    
C136  C153  S    
Cu4   O40   S    
Cu10  O25   S    
C134  C151  S    
Cu10  O3    S    
Cu9   O19   S    
Cu3   Cu4   S    
C43   H47   S    
C143  C149  S    
C19   H74   S    
Cu6   O23   S    
Cu8   Cu10  S    
C96   H17   S    
C102  H26   S    
C97   H14   S    
C51   C69   A    
C88   H117  S    
Cu7   O45   S    
C168  C177  T    
C110  C128  A    
C57   C118  A    
C77   H92   S    
C24   C114  A    
C4    C115  A    
C92   H6    S    
C14   C31   A    
C91   H123  S    
C153  O38   A    
C83   H111  S    
C29   C47   A    
C30   C48   A    
Cu1   O44   S    
C161  O21   A    
C180  C189  S    
C76   H93   S    
C78   C80   S    
C135  C152  S    
C52   H56   S    
Cu3   O36   S    
C53   H57   S    
C149  O6    A    
C32   H118  S    
C127  C141  S    
C63   H67   S    
Cu9   O26   S    
C64   H68   S    
C2    C130  A    
C49   H53   S    
C27   C44   A    
Cu8   O5    S    
C97   H12   S    
C12   C124  A    
C131  C147  S    
C89   C91   S    
C50   C67   A    
Cu2   O31   S    
C161  C169  S    
C104  H30   S    
Cu8   O18   S    
C23   H1    S    
Cu9   Cu11  S    
C91   H125  S    
C72   H83   S    
C181  C189  T    
C14   C98   S    
C101  C135  A    
C99   H19   S    
C49   C66   A    
C65   H69   S    
C133  C154  S    
Cu7   O34   S    
C138  O7    A    
C47   H50   S    
C155  O9    A    
C93   H128  S    
C50   H54   S    
Cu4   O42   S    
C165  C174  T    
C71   H75   S    
C163  O24   A    
C149  O2    A    
C3    C76   S    
C85   H115  S    
C1    O1    A    
C69   C110  A    
C83   C84   S    
Cu2   Cu12  S    
C105  O12   A    
C48   H51   S    
C88   H119  S    
C60   C68   A    
C157  O14   A    
C98   C99   S    
C90   C121  A    
Cu10  O20   S    
C1    C137  S    
C127  O34   A    
C113  C192  A    
C1    O46   A    
C35   C56   A    
C100  H27   S    
C3    C114  A    
C46   C130  A    
C17   C190  A    
C184  C187  T    
C170  C179  T    
C95   H7    S    
C82   H102  S    
C61   C79   A    
C20   H107  S    
C58   H61   S    
C80   H98   S    
C156  O10   A    
C17   H96   S    
C87   H121  S    
C10   C92   S    
C26   H36   S    
C109  C126  A    
C148  O29   A    
C158  O15   A    
Cu12  O30   S    
C93   H4    S    
C65   C107  A    
Cu6   O16   S    
C87   C88   S    
Cu11  O6    S    
C160  O5    A    
C159  O18   A    
C15   C100  S    
C27   H35   S    
C176  C185  S    
C2    C112  A    
C166  C175  T    
C71   H73   S    
C31   C49   A    
C86   H114  S    
Cu1   Cu6   S    
C38   H42   S    
Cu7   O15   S    
C68   C132  A    
C107  C135  A    
C80   H95   S    
C28   H34   S    
C110  C136  A    
C157  O16   A    
Cu12  O28   S    
C70   C71   S    
C81   H105  S    
C98   H21   S    
C153  O42   A    
C172  C180  T    
C171  O4    A    
C173  C181  S    
Cu8   O22   S    
C60   H64   S    
C75   H86   S    
C61   H65   S    
Cu3   O38   S    
C158  O17   A    
C78   H99   S    
C18   C191  A    
Cu11  O21   S    
C72   H82   S    
C138  C142  S    
C9    C89   S    
C154  O39   A    
C151  O40   A    
C85   C86   S    
C126  C142  A    
C160  O3    A    
C108  C134  A    
Cu2   O35   S    
C77   H91   S    
C5    C81   S    
C24   C132  A    
C16   C103  S    
C162  C170  S    
C13   C131  A    
C3    C20   A    
C74   H88   S    
C84   H109  S    
C69   H72   S    
C39   H43   S    
C178  C187  S    
C11   C94   S    
Cu1   O14   S    
C155  C164  S    
C55   H59   S    
C66   H70   S    
C162  O25   A    
C35   C131  A    
C9    C27   A    
C10   C28   A    
C51   H55   S    
C12   C30   A    
C74   H89   S    
C11   C123  A    
C66   C108  A    
C25   C42   A    
C86   H112  S    
C33   C51   A    
C70   H77   S    
C34   C52   A    
Cu7   O13   S    
C70   H78   S    
C76   H94   S    
C185  C186  T    
C7    C85   S    
C156  C165  S    
C92   C93   S    
C89   H127  S    
C105  O45   A    
C67   H71   S    
C94   C95   S    
C73   H81   S    
C115  C140  A    
C42   H46   S    
C111  C190  A    
C103  C104  S    
C12   C96   S    
C152  O43   A    
C18   C36   A    
Cu2   O32   S    
C175  C184  S    
C145  C171  S    
C34   H38   S    
C121  C143  A    
C122  C144  A    
C63   C101  A    
C33   H24   S    
C84   H106  S    
C81   C82   S    
C24   C55   A    
C14   C125  A    
C150  O32   A    
C57   C129  A    
C162  O22   A    
C125  C143  A    
C146  O27   A    
Cu2   O33   S    
C105  C139  S    
C148  O33   A    
C159  C168  S    
C44   H48   S    
Cu5   O10   S    
C15   C126  A    
C106  C123  A    
C102  H25   S    
C97   H15   S    
C108  C125  A    
C118  C137  A    
C88   H120  S    
C19   C192  A    
C112  C139  A    
C92   H5    S    
C91   H124  S    
C40   H44   S    
C67   C109  A    
C26   C43   A    
C138  O48   A    
C79   C133  A    
C18   H85   S    
C28   C45   A    
C73   H79   S    
C5    C22   A    
C132  C148  S    
C100  H28   S    
C120  C142  A    
C76   C77   S    
C41   C59   A    
C31   H2    S    
C75   H87   S    
C42   C60   A    
Cu3   O39   S    
C146  O31   A    
C44   C62   A    
C45   C63   A    
C5    C117  A    
Cu9   O2    S    
C16   C33   A    
C20   C38   A    
Cu11  O4    S    
Cu9   O8    S    
C21   C39   A    
C103  H33   S    
C22   C40   A    
C96   C97   S    
C100  C102  S    
C113  C140  A    
C152  O37   A    
Cu8   O48   S    
C171  O8    A    
C16   C128  A    
C32   C50   A    
C30   H13   S    
C74   C192  S    
C37   C54   A    
C161  O19   A    
C104  H29   S    
C95   H9    S    
C93   H3    S    
C169  C178  T    
C84   H108  S    
C73   H80   S    
C8    C120  A    
C99   H20   S    
C59   H62   S    
C150  O30   A    
C70   C190  S    
C157  C166  S    
C22   H41   S    
Cu4   O41   S    
C71   H76   S    
C8    C87   S    
C129  C150  S    
C85   H116  S    
C4    C21   A    
Cu5   O12   S    
C6    C23   A    
C62   C90   A    
C106  C136  A    
C102  H23   S    
C112  C191  A    
C13   C113  A    
C11   C29   A    
C41   H45   S    
C29   H37   S    
C124  C144  A    
C98   H22   S    
C6    C118  A    
C46   C58   A    
C116  O44   A    
C81   H104  S    
C45   H49   S    
C167  C176  T    
C116  C140  S    
