data_mof_unit_44602.cif
_audit_creation_date              2012-12-10T16:51:11-0500
_audit_creation_method            fapswitch 2.2
_symmetry_space_group_name_H-M    P1
_symmetry_Int_Tables_number       1
_space_group_crystal_system       triclinic
_cell_length_a                    27.760933
_cell_length_b                    8.718895
_cell_length_c                    7.419988
_cell_angle_alpha                 103.016532
_cell_angle_beta                  93.747056
_cell_angle_gamma                 92.357243
_cell_volume                      1743.19729062

loop_
_atom_site_label
_atom_site_type_symbol
_atom_type_description
_atom_site_fract_x
_atom_site_fract_y
_atom_site_fract_z
_atom_type_partial_charge
C1    C     C_R   0.498567 0.199985 0.453504 0.789927
C2    C     C_R   0.501432 0.800015 0.546496 0.789928
C3    C     C_R   0.102040 0.495115 0.526701 -0.060880
C4    C     C_R   0.897960 0.504882 0.473299 -0.060880
C5    C     C_R   0.124764 0.355772 0.453462 -0.133351
C6    C     C_R   0.875236 0.644226 0.546537 -0.133351
C7    C     C_R   0.096743 0.215216 0.388856 -0.195357
C8    C     C_R   0.903257 0.784781 0.611143 -0.195356
C9    C     C_R   0.130678 0.631623 0.614868 -0.127216
C10   C     C_R   0.869322 0.368374 0.385132 -0.127216
C11   C     C_R   0.354467 0.499874 0.511509 -0.512545
C12   C     C_R   0.645533 0.500125 0.488491 -0.512544
C13   C     C_R   0.971451 0.362140 0.404692 -0.031509
C14   C     C_R   0.028549 0.637857 0.595308 -0.031509
C15   C     C_R   0.977478 0.643492 0.569697 -0.046367
C16   C     C_R   0.022522 0.356505 0.430302 -0.046367
C17   C     C_R   0.949193 0.502962 0.484677 -0.055851
C18   C     C_R   0.050807 0.497035 0.515323 -0.055851
C19   C     C_R   0.941588 0.236274 0.291083 0.699449
C20   C     C_R   0.058412 0.763723 0.708917 0.699449
C21   C     C_R   0.891517 0.236649 0.290218 -0.199937
C22   C     C_R   0.108482 0.763348 0.709782 -0.199937
C23   C     C_R   0.407430 0.499937 0.503310 0.942536
C24   C     C_R   0.592570 0.500062 0.496690 0.942537
C25   C     C_R   0.046630 0.213655 0.386264 0.736863
C26   C     C_R   0.953369 0.786342 0.613735 0.736862
C27   C     C_2   0.497939 0.032895 0.426899 0.319232
C28   C     C_2   0.502061 0.967105 0.573101 0.319232
C29   C     C_R   0.175368 0.358910 0.455909 0.718162
C30   C     C_R   0.824632 0.641087 0.544090 0.718162
C31   C     C_R   0.181190 0.629914 0.614474 0.725728
C32   C     C_R   0.818810 0.370083 0.385526 0.725728
C33   C     C_R   0.274851 0.532945 0.373109 0.572555
C34   C     C_R   0.725149 0.467053 0.626889 0.572554
C35   C     C_R   0.324903 0.533956 0.365209 0.510318
C36   C     C_R   0.675097 0.466042 0.634790 0.510318
C37   C     C_R   0.332764 0.465253 0.665558 0.492328
C38   C     C_R   0.667236 0.534746 0.334442 0.492329
C39   C     C_R   0.282659 0.464368 0.672255 0.596279
C40   C     C_R   0.717341 0.535631 0.327745 0.596279
C41   C     C_R   0.253703 0.497998 0.526181 -0.131343
C42   C     C_R   0.746297 0.501999 0.473818 -0.131342
Cu1   Cu    Cu3+1 0.505380 0.517380 0.684380 1.140604
Cu2   Cu    Cu3+1 0.494620 0.482620 0.315620 1.140604
H1    H     H_    0.462311 0.378508 0.948400 0.281732
H2    H     H_    0.537688 0.621492 0.051600 0.281732
H3    H     H_    0.113603 0.104031 0.347952 0.221343
H4    H     H_    0.886397 0.895967 0.652048 0.221343
H5    H     H_    0.870108 0.135696 0.206869 0.225125
H6    H     H_    0.129892 0.864301 0.793132 0.225125
N1    N     N_R   0.202281 0.495631 0.532236 -0.398768
N2    N     N_R   0.797719 0.504366 0.467763 -0.398768
N3    N     N_2   0.486510 0.456430 0.038510 -0.155259
N4    N     N_2   0.513490 0.543570 0.961490 -0.155259
O1    O     O_R   0.503500 0.286120 0.619780 -0.566456
O2    O     O_R   0.496500 0.713880 0.380220 -0.566456
O3    O     O_R   0.494410 0.256780 0.308360 -0.532685
O4    O     O_R   0.505590 0.743220 0.691640 -0.532685
O5    O     O_R   0.434810 0.514700 0.655690 -0.552194
O6    O     O_R   0.565190 0.485300 0.344310 -0.552194
O7    O     O_R   0.425720 0.485350 0.344280 -0.520835
O8    O     O_R   0.574280 0.514650 0.655720 -0.520835
O9    O     O_2   0.197539 0.226845 0.382351 -0.473198
O10   O     O_2   0.802461 0.773152 0.617648 -0.473198
O11   O     O_2   0.790985 0.238831 0.305165 -0.463811
O12   O     O_2   0.209014 0.761166 0.694835 -0.463811
F1    F     F_    0.359754 0.428932 0.807893 -0.542806
F2    F     F_    0.640246 0.571069 0.192108 -0.542807
F3    F     F_    0.262085 0.429585 0.820250 -0.512493
F4    F     F_    0.737915 0.570415 0.179750 -0.512493
F5    F     F_    0.655706 0.429085 0.784002 -0.510223
F6    F     F_    0.344294 0.570913 0.215997 -0.510223
F7    F     F_    0.753287 0.433627 0.768091 -0.526735
F8    F     F_    0.246713 0.566370 0.231908 -0.526735
F9    F     F_    0.959535 0.121179 0.162378 -0.562074
F10   F     F_    0.040464 0.878818 0.837622 -0.562074
F11   F     F_    0.023132 0.070229 0.362006 -0.552497
F12   F     F_    0.976868 0.929768 0.637993 -0.552497
F13   F     F_    0.493109 0.946111 0.248474 -0.607793
F14   F     F_    0.506891 0.053889 0.751526 -0.607793

loop_
_geom_bond_atom_site_label_1
_geom_bond_atom_site_label_2
_ccdc_geom_bond_type
C31   O12   S    
C29   O9    S    
C30   O10   S    
C8    C26   A    
C14   C18   A    
C34   C42   A    
C21   H5    S    
C39   C41   A    
N3    N4    D    
C23   O5    A    
C26   F12   S    
C40   F4    S    
C25   F11   S    
C19   C21   A    
C27   F13   S    
C9    C22   A    
C20   F10   S    
C3    C18   A    
C11   C23   S    
C11   C37   A    
C32   N2    A    
Cu1   O4    S    
Cu2   N3    S    
C12   C36   A    
C36   F5    S    
Cu1   O5    S    
C22   H6    S    
C40   C42   A    
H1    N3    S    
C5    C29   A    
C10   C21   A    
C13   C19   A    
C14   C20   A    
C4    C6    A    
C31   N1    A    
C5    C7    A    
C15   C26   A    
C6    C8    A    
C7    H3    S    
Cu1   Cu2   S    
C8    H4    S    
C3    C9    A    
C1    O3    A    
Cu2   O2    S    
Cu1   N4    S    
Cu2   O3    S    
C24   O6    A    
H2    N4    S    
C39   F3    S    
C4    C17   A    
Cu1   O1    S    
C6    C30   A    
C38   F2    S    
C35   F6    S    
C4    C10   A    
C29   N1    A    
C16   C25   A    
C15   C17   A    
C30   N2    A    
C24   O8    A    
C20   C22   A    
C3    C5    A    
C2    O4    A    
Cu2   O7    S    
C12   C24   S    
C7    C25   A    
C13   C17   A    
C33   C41   A    
C11   C35   A    
C1    O1    A    
C37   C39   A    
C2    O2    A    
C38   C40   A    
Cu2   O6    S    
C37   F1    S    
C19   F9    S    
C33   C35   A    
C34   C36   A    
C12   C38   A    
C28   F14   S    
C9    C31   A    
C34   F7    S    
C10   C32   A    
C33   F8    S    
C23   O7    A    
C16   C18   A    
C13   C16   A    
C27   C28   D    
C1    C27   S    
C14   C15   A    
C2    C28   S    
C41   N1    S    
Cu1   O8    S    
C42   N2    S    
C32   O11   S    
