data_mof_unit_49060.cif
_audit_creation_date              2013-03-05T16:49:25-0500
_audit_creation_method            fapswitch 2.2
_symmetry_space_group_name_H-M    P1
_symmetry_Int_Tables_number       1
_space_group_crystal_system       triclinic
_cell_length_a                    10.784339
_cell_length_b                    8.985362
_cell_length_c                    8.19685
_cell_angle_alpha                 90.994271
_cell_angle_beta                  94.005571
_cell_angle_gamma                 90.739677
_cell_volume                      792.145583181

loop_
_atom_site_label
_atom_site_type_symbol
_atom_site_description
_atom_site_fract_x
_atom_site_fract_y
_atom_site_fract_z
_atom_type_partial_charge
O1    O     O_R   0.499990 0.285340 0.636850 -0.610039
O2    O     O_R   0.500010 0.714660 0.363150 -0.610036
O3    O     O_R   0.500010 0.285350 0.363100 -0.606999
O4    O     O_R   0.499990 0.714650 0.636900 -0.607016
C1    C     C_R   0.499801 0.218256 0.499066 0.944239
C2    C     C_R   0.500199 0.781743 0.500934 0.944221
O5    O     O_R   0.316750 0.500000 0.636870 -0.653489
O6    O     O_R   0.683250 0.500000 0.363130 -0.653490
O7    O     O_R   0.316770 0.500020 0.363120 -0.618300
O8    O     O_R   0.683230 0.499980 0.636880 -0.618283
C3    C     C_R   0.259073 0.502836 0.493584 0.870043
C4    C     C_R   0.740928 0.497171 0.506416 0.870052
Zn1   Zn    Zn3+2 0.499990 0.499990 0.682780 0.997150
Zn2   Zn    Zn3+2 0.500010 0.500010 0.317220 0.997154
H1    H     H_    0.185291 0.306208 0.756493 0.195523
H2    H     H_    0.814606 0.693772 0.243463 0.195535
C5    C     C_R   0.197661 0.462428 0.958457 -0.199470
C6    C     C_R   0.802315 0.537526 0.041516 -0.199478
H3    H     H_    0.257819 0.540659 0.904078 0.190171
H4    H     H_    0.742160 0.459281 0.095884 0.190174
C7    C     C_R   0.154899 0.500204 0.108452 -0.103955
C8    C     C_R   0.845108 0.499766 0.891533 -0.103934
H5    H     H_    0.177191 0.609963 0.159870 0.183245
H6    H     H_    0.822833 0.390009 0.840100 0.183261
C9    C     C_R   0.088190 0.396441 0.194019 0.050037
C10   C     C_R   0.911814 0.603549 0.805987 0.050071
C11   C     C_R   0.042646 0.266473 0.109944 -0.180257
C12   C     C_R   0.957337 0.733521 0.890078 -0.180335
H7    H     H_    0.981485 0.190709 0.167773 0.217223
H8    H     H_    0.018492 0.809312 0.832269 0.217072
C13   C     C_R   0.071196 0.237847 0.947673 0.375873
C14   C     C_R   0.928731 0.762145 0.052328 0.376035
C15   C     C_R   0.157047 0.330830 0.877688 -0.173920
C16   C     C_R   0.842883 0.669141 0.122285 -0.173950
C17   C     C_R   0.925265 0.417684 0.386395 -0.198882
C18   C     C_R   0.074737 0.582339 0.613602 -0.199009
H9    H     H_    0.864969 0.356011 0.297861 0.153741
H10   H     H_    0.135031 0.644012 0.702139 0.153716
C19   C     C_R   0.874390 0.487279 0.518443 -0.093374
C20   C     C_R   0.125613 0.512738 0.481555 -0.093382
C21   C     C_R   0.950945 0.562730 0.641025 0.055497
C22   C     C_R   0.049058 0.437285 0.358974 0.055464
C23   C     C_1   0.499929 0.065137 0.498719 -0.138870
C24   C     C_1   0.500071 0.934863 0.501281 -0.138871
N1    N     N_1   0.500020 0.500030 0.073640 -0.045333
N2    N     N_1   0.499980 0.499970 0.926360 -0.045330
N3    N     N_R   0.006576 0.122727 0.850692 0.202305
O9    O     O_R   0.047397 0.079202 0.712174 -0.392495
O10   O     O_R   0.896503 0.078728 0.886713 -0.419556
N4    N     N_R   0.993262 0.877321 0.149320 0.202402
O11   O     O_R   0.952187 0.921098 0.287613 -0.392489
O12   O     O_R   0.103428 0.921215 0.113530 -0.419665

loop_
_geom_bond_atom_site_label_1
_geom_bond_atom_site_label_2
_geom_bond_distance
_ccdc_geom_bond_type
C9    C22   1.485766 S    
O5    Zn1   1.985645 S    
C17   C19   1.389946 A    
O7    Zn2   2.037274 S    
C13   C15   1.398276 A    
C9    C11   1.410650 A    
C6    C16   1.395451 A    
N4    O12   1.301432 A    
N3    O9    1.301831 A    
O6    C4    1.290883 A    
C23   C24   1.171128 T    
H2    C16   1.079353 S    
C4    C19   1.439783 S    
C12   H8    1.080064 S    
N4    O11   1.301955 A    
C1    C23   1.375807 S    
C19   C21   1.413097 A    
C2    C24   1.375807 S    
N1    N2    1.207192 T    
O5    C3    1.290879 A    
O7    C3    1.274298 A    
C14   N4    1.436293 S    
C18   C21   1.378790 A    
O2    C2    1.270783 A    
O3    Zn2   1.971513 S    
C5    C15   1.395455 A    
O1    C1    1.270783 A    
O8    C4    1.274300 A    
C12   C14   1.406258 A    
C18   H10   1.080457 S    
C5    H3    1.073874 S    
Zn2   N1    1.996599 S    
C6    H4    1.073889 S    
C7    H5    1.083217 S    
Zn1   N2    1.996599 S    
O2    Zn2   1.958687 S    
C8    H6    1.083217 S    
O4    C2    1.276391 A    
O1    Zn1   1.958686 S    
C11   C13   1.406249 A    
C3    C20   1.439773 S    
C18   C20   1.389961 A    
C11   H7    1.080030 S    
N3    O10   1.301347 A    
C8    C10   1.398092 A    
O4    Zn1   1.971513 S    
C17   C22   1.378788 A    
C7    C9    1.398078 A    
C13   N3    1.436319 S    
O6    Zn2   1.985645 S    
C17   H9    1.080450 S    
C6    C8    1.381414 A    
C10   C12   1.410664 A    
H1    C15   1.079348 S    
C5    C7    1.381406 A    
C10   C21   1.485754 S    
C20   C22   1.413097 A    
O3    C1    1.276391 A    
O8    Zn1   2.037274 S    
C14   C16   1.398252 A    
