data_mof_unit_47024.cif
_audit_creation_date              2013-03-05T15:39:54-0500
_audit_creation_method            fapswitch 2.2
_symmetry_space_group_name_H-M    P1
_symmetry_Int_Tables_number       1
_space_group_crystal_system       triclinic
_cell_length_a                    17.255769
_cell_length_b                    17.066985
_cell_length_c                    17.294833
_cell_angle_alpha                 89.998646
_cell_angle_beta                  89.997866
_cell_angle_gamma                 89.990002
_cell_volume                      5093.39656246

loop_
_atom_site_label
_atom_site_type_symbol
_atom_site_description
_atom_site_fract_x
_atom_site_fract_y
_atom_site_fract_z
_atom_type_partial_charge
C1    C     C_R   0.604774 0.301539 0.098721 -0.047708
C2    C     C_R   0.681537 0.591017 0.132605 -0.036815
C3    C     C_R   0.394297 0.698474 0.097844 -0.022817
C4    C     C_R   0.302648 0.394451 0.098943 -0.046055
C5    C     C_R   0.605852 0.698572 0.902531 -0.015350
C6    C     C_R   0.683839 0.407197 0.870201 -0.038563
C7    C     C_R   0.404391 0.313486 0.873193 -0.017850
C8    C     C_R   0.316769 0.594266 0.869802 -0.002293
C9    C     C_R   0.105700 0.801526 0.597849 -0.022903
C10   C     C_R   0.197350 0.105547 0.598945 -0.046078
C11   C     C_R   0.895223 0.198461 0.598717 -0.047665
C12   C     C_R   0.818440 0.908969 0.632585 -0.038671
C13   C     C_R   0.095609 0.186513 0.373188 -0.017859
C14   C     C_R   0.183236 0.905735 0.369802 -0.002304
C15   C     C_R   0.894160 0.801434 0.402508 -0.015113
C16   C     C_R   0.816162 0.092807 0.370205 -0.038715
H1    H     H_    0.575655 0.245750 0.092461 0.138483
H2    H     H_    0.734023 0.558703 0.144832 0.136360
H3    H     H_    0.422594 0.754568 0.090671 0.121888
H4    H     H_    0.247188 0.423354 0.092634 0.142980
H5    H     H_    0.577584 0.754656 0.909944 0.121176
H6    H     H_    0.735967 0.440083 0.857999 0.119380
H7    H     H_    0.434349 0.259081 0.862639 0.104319
H8    H     H_    0.262211 0.565360 0.859284 0.125752
H9    H     H_    0.077404 0.745432 0.590681 0.121917
H10   H     H_    0.252810 0.076644 0.592639 0.142971
H11   H     H_    0.924343 0.254250 0.592454 0.138492
H12   H     H_    0.765961 0.941296 0.644815 0.135980
H13   H     H_    0.065650 0.240917 0.362632 0.104332
H14   H     H_    0.237794 0.934641 0.359284 0.125734
H15   H     H_    0.922430 0.745348 0.409911 0.121140
H16   H     H_    0.764034 0.059922 0.358004 0.119301
N1    N     N_R   0.574080 0.369570 0.076720 -0.058013
N2    N     N_R   0.630430 0.574080 0.076720 -0.052694
N3    N     N_R   0.425920 0.630430 0.076720 -0.054253
N4    N     N_R   0.369570 0.425920 0.076720 -0.057900
N5    N     N_R   0.574080 0.630430 0.923280 -0.049578
N6    N     N_R   0.630430 0.425920 0.923280 -0.043057
N7    N     N_R   0.425920 0.369570 0.923280 -0.043003
N8    N     N_R   0.369570 0.574080 0.923280 -0.049764
N9    N     N_R   0.074080 0.869570 0.576720 -0.054304
N10   N     N_R   0.130430 0.074080 0.576720 -0.057891
N11   N     N_R   0.925920 0.130430 0.576720 -0.058014
N12   N     N_R   0.869570 0.925920 0.576720 -0.052298
N13   N     N_R   0.074080 0.130430 0.423280 -0.043011
N14   N     N_R   0.130430 0.925920 0.423280 -0.049754
N15   N     N_R   0.925920 0.869570 0.423280 -0.049591
N16   N     N_R   0.869570 0.074080 0.423280 -0.043038
C17   C     C_R   0.587884 0.682282 0.132428 -0.123383
C18   C     C_R   0.303005 0.607468 0.099109 -0.139876
C19   C     C_R   0.393003 0.302271 0.099641 -0.136904
C20   C     C_R   0.696852 0.391810 0.098963 -0.138754
C21   C     C_R   0.592441 0.314074 0.872413 -0.090950
C22   C     C_R   0.312762 0.405849 0.875366 -0.103393
C23   C     C_R   0.411540 0.683841 0.869285 -0.125260
C24   C     C_R   0.697134 0.607657 0.901493 -0.137738
C25   C     C_R   0.106994 0.197727 0.599645 -0.136867
C26   C     C_R   0.803145 0.108189 0.598961 -0.138512
C27   C     C_R   0.912056 0.817667 0.632377 -0.121929
C28   C     C_R   0.196993 0.892532 0.599110 -0.139873
C29   C     C_R   0.088466 0.816159 0.369288 -0.125239
C30   C     C_R   0.802875 0.892348 0.401471 -0.138269
C31   C     C_R   0.907559 0.185931 0.372417 -0.090900
C32   C     C_R   0.187238 0.094150 0.375361 -0.103408
H17   H     H_    0.553994 0.734265 0.143978 0.122654
H18   H     H_    0.248042 0.577800 0.095478 0.163714
H19   H     H_    0.422198 0.246593 0.096006 0.164718
H20   H     H_    0.752227 0.420654 0.094875 0.169749
H21   H     H_    0.562060 0.259553 0.863805 0.105273
H22   H     H_    0.258550 0.436409 0.867884 0.113312
H23   H     H_    0.445824 0.735642 0.858172 0.119894
H24   H     H_    0.752118 0.578157 0.905864 0.163813
H25   H     H_    0.077799 0.253405 0.596013 0.164721
H26   H     H_    0.747771 0.079346 0.594871 0.169663
H27   H     H_    0.945930 0.765669 0.643908 0.122508
H28   H     H_    0.251956 0.922201 0.595480 0.163713
H29   H     H_    0.054183 0.764358 0.358177 0.119949
H30   H     H_    0.747892 0.921853 0.405822 0.163923
H31   H     H_    0.937940 0.240453 0.363810 0.105271
H32   H     H_    0.241450 0.063590 0.367877 0.113301
N17   N     N_R   0.574050 0.630410 0.076720 -0.050917
N18   N     N_R   0.369590 0.574050 0.076720 -0.046579
N19   N     N_R   0.425950 0.369590 0.076720 -0.051001
N20   N     N_R   0.630410 0.425950 0.076720 -0.048066
N21   N     N_R   0.574050 0.369590 0.923280 -0.043067
N22   N     N_R   0.369590 0.425950 0.923280 -0.039028
N23   N     N_R   0.425950 0.630410 0.923280 -0.045688
N24   N     N_R   0.630410 0.574050 0.923280 -0.038776
N25   N     N_R   0.074050 0.130410 0.576720 -0.050996
N26   N     N_R   0.869590 0.074050 0.576720 -0.047972
N27   N     N_R   0.925950 0.869590 0.576720 -0.050907
N28   N     N_R   0.130410 0.925950 0.576720 -0.046578
N29   N     N_R   0.074050 0.869590 0.423280 -0.045704
N30   N     N_R   0.869590 0.925950 0.423280 -0.038717
N31   N     N_R   0.925950 0.130410 0.423280 -0.043077
N32   N     N_R   0.130410 0.074050 0.423280 -0.039026
Ni1   Ni    Ni4+2 0.500000 0.370760 0.000000 0.244356
Ni2   Ni    Ni4+2 0.629240 0.500000 0.000000 0.265900
Ni3   Ni    Ni4+2 0.500000 0.629240 0.000000 0.230282
Ni4   Ni    Ni4+2 0.370760 0.500000 0.000000 0.250424
Ni5   Ni    Ni4+2 1.000000 0.870760 0.500000 0.230295
Ni6   Ni    Ni4+2 0.129240 0.000000 0.500000 0.250419
Ni7   Ni    Ni4+2 0.000000 0.129240 0.500000 0.244373
Ni8   Ni    Ni4+2 0.870760 0.000000 0.500000 0.265828
C33   C     C_R   0.682860 0.312274 0.109808 0.042270
C34   C     C_R   0.654486 0.658081 0.169324 -0.006669
C35   C     C_R   0.316233 0.687132 0.109119 0.033691
C36   C     C_R   0.314181 0.315758 0.110590 0.048415
C37   C     C_R   0.684023 0.687335 0.891631 0.021431
C38   C     C_R   0.659780 0.337438 0.836699 -0.039803
C39   C     C_R   0.334582 0.337015 0.840899 -0.051150
C40   C     C_R   0.343959 0.661479 0.833622 -0.021028
C41   C     C_R   0.183765 0.812868 0.609124 0.033738
C42   C     C_R   0.185815 0.184239 0.610597 0.048373
C43   C     C_R   0.817136 0.187726 0.609803 0.042158
C44   C     C_R   0.845424 0.841843 0.669254 -0.007944
C45   C     C_R   0.165417 0.162983 0.340890 -0.051141
C46   C     C_R   0.156049 0.838522 0.333625 -0.021068
C47   C     C_R   0.815995 0.812672 0.391591 0.020933
C48   C     C_R   0.840221 0.162570 0.336706 -0.039745
C49   C     C_2   0.813355 0.739524 0.860966 0.111245
C50   C     C_2   0.346412 0.710469 0.701256 0.170081
C51   C     C_2   0.287614 0.343260 0.708985 0.165860
C52   C     C_2   0.657154 0.291579 0.703933 0.161691
C53   C     C_2   0.811071 0.258740 0.142162 0.134602
C54   C     C_2   0.262549 0.187029 0.146761 0.146500
C55   C     C_2   0.187134 0.739009 0.140523 0.115949
C56   C     C_2   0.652712 0.708800 0.301269 0.162645
C57   C     C_2   0.212381 0.156735 0.208973 0.165857
C58   C     C_2   0.842845 0.208424 0.203936 0.161671
C59   C     C_2   0.686656 0.760482 0.360954 0.110770
C60   C     C_2   0.153593 0.789536 0.201261 0.170064
C61   C     C_2   0.312865 0.760993 0.640520 0.116039
C62   C     C_2   0.847224 0.791189 0.801211 0.163600
C63   C     C_2   0.688925 0.241259 0.642161 0.134604
C64   C     C_2   0.237444 0.312964 0.646781 0.146509
C65   C     C_2   0.739427 0.752550 0.883107 0.446314
C66   C     C_2   0.308037 0.704229 0.769915 0.439345
C67   C     C_2   0.292725 0.301681 0.776208 0.451904
C68   C     C_2   0.695758 0.294966 0.772644 0.436125
C69   C     C_2   0.736998 0.246440 0.120404 0.433188
C70   C     C_2   0.249614 0.260644 0.121841 0.400093
C71   C     C_2   0.261048 0.752274 0.118776 0.417399
C72   C     C_2   0.691080 0.700558 0.232859 0.429436
C73   C     C_2   0.207274 0.198315 0.276193 0.451906
C74   C     C_2   0.804245 0.205045 0.272652 0.436082
C75   C     C_2   0.760607 0.747456 0.383015 0.446359
C76   C     C_2   0.191971 0.795776 0.269914 0.439390
C77   C     C_2   0.238950 0.747728 0.618784 0.417376
C78   C     C_2   0.808811 0.799347 0.732814 0.429229
C79   C     C_2   0.762996 0.253558 0.620389 0.433153
C80   C     C_2   0.250380 0.239350 0.621861 0.400125
N33   N     N_R   0.857855 0.674716 0.889922 0.235591
O1    O     O_R   0.908590 0.640448 0.845707 -0.327261
O2    O     O_R   0.857280 0.658964 0.963566 -0.380801
N34   N     N_R   0.419158 0.671134 0.686100 0.235822
O3    O     O_R   0.432881 0.601954 0.714644 -0.308006
O4    O     O_R   0.465231 0.697516 0.632540 -0.297759
N35   N     N_R   0.330038 0.415106 0.695758 0.237446
O5    O     O_R   0.400318 0.423226 0.721833 -0.292084
O6    O     O_R   0.304623 0.465757 0.645599 -0.345666
N36   N     N_R   0.587355 0.335902 0.688688 0.236821
O7    O     O_R   0.578840 0.406208 0.716579 -0.333410
O8    O     O_R   0.539464 0.312463 0.635405 -0.346265
N37   N     N_R   0.857286 0.321265 0.111051 0.229059
O9    O     O_R   0.910940 0.353596 0.153188 -0.345258
O10   O     O_R   0.855096 0.336215 0.037278 -0.435604
N38   N     N_R   0.325328 0.139908 0.118188 0.225735
O11   O     O_R   0.357984 0.088336 0.163011 -0.352638
O12   O     O_R   0.340245 0.138583 0.044417 -0.454001
N39   N     N_R   0.142420 0.674978 0.110236 0.235798
O13   O     O_R   0.090856 0.640621 0.153405 -0.323862
O14   O     O_R   0.143980 0.659887 0.036474 -0.390873
N40   N     N_R   0.579295 0.670960 0.316812 0.232517
O15   O     O_R   0.564481 0.601668 0.289075 -0.389885
O16   O     O_R   0.533581 0.698812 0.369960 -0.298543
N41   N     N_R   0.169958 0.084889 0.195755 0.237449
O17   O     O_R   0.099677 0.076771 0.221836 -0.292091
O18   O     O_R   0.195372 0.034236 0.145598 -0.345658
N42   N     N_R   0.912636 0.164090 0.188684 0.236814
O19   O     O_R   0.921146 0.093785 0.216583 -0.333543
O20   O     O_R   0.960525 0.187518 0.135390 -0.346265
N43   N     N_R   0.642190 0.825308 0.389921 0.235671
O21   O     O_R   0.591482 0.859617 0.345709 -0.327504
O22   O     O_R   0.642760 0.841038 0.463568 -0.382069
N44   N     N_R   0.080848 0.828873 0.186110 0.235841
O23   O     O_R   0.067128 0.898054 0.214653 -0.308047
O24   O     O_R   0.034773 0.802494 0.132555 -0.297189
N45   N     N_R   0.357578 0.825022 0.610220 0.235779
O25   O     O_R   0.409145 0.859382 0.653377 -0.324198
O26   O     O_R   0.356011 0.840112 0.536456 -0.390955
N46   N     N_R   0.920593 0.829140 0.816707 0.232372
O27   O     O_R   0.966404 0.801318 0.869785 -0.298689
O28   O     O_R   0.935256 0.898488 0.789019 -0.389806
N47   N     N_R   0.642710 0.178728 0.611066 0.229034
O29   O     O_R   0.589066 0.146394 0.653219 -0.345389
O30   O     O_R   0.644890 0.163775 0.537295 -0.435647
N48   N     N_R   0.174667 0.360087 0.618209 0.225737
O31   O     O_R   0.142007 0.411655 0.663034 -0.352595
O32   O     O_R   0.159758 0.361420 0.544438 -0.453964
O33   O     O_3   0.707625 0.826457 0.872445 -0.582991
C81   C     C_3   0.725785 0.872337 0.937707 -0.210514
H33   H     H_    0.701070 0.846279 0.991334 0.108261
H34   H     H_    0.699519 0.931177 0.930225 0.183406
H35   H     H_    0.789505 0.880470 0.943844 0.163171
O34   O     O_3   0.235524 0.739827 0.778648 -0.601647
C82   C     C_3   0.224323 0.769355 0.854072 -0.070758
H36   H     H_    0.274246 0.805892 0.873079 0.080579
H37   H     H_    0.213330 0.721070 0.895724 0.164182
H38   H     H_    0.172238 0.807455 0.853870 0.202848
O35   O     O_3   0.250736 0.231643 0.783309 -0.623069
C83   C     C_3   0.251620 0.199903 0.858642 -0.060010
H39   H     H_    0.228465 0.242244 0.901718 0.099454
H40   H     H_    0.310753 0.179911 0.874601 0.153918
H41   H     H_    0.213312 0.147737 0.859665 0.172774
O36   O     O_3   0.763140 0.249844 0.781921 -0.628246
C84   C     C_3   0.794141 0.252270 0.857381 -0.047664
H42   H     H_    0.751599 0.230856 0.900829 0.096626
H43   H     H_    0.814947 0.312104 0.871795 0.162059
H44   H     H_    0.845000 0.212598 0.859764 0.173106
O37   O     O_3   0.703627 0.173768 0.134232 -0.597428
C85   C     C_3   0.721236 0.124416 0.071311 -0.212082
H45   H     H_    0.784804 0.114650 0.065989 0.160225
H46   H     H_    0.697374 0.148348 0.016340 0.118509
H47   H     H_    0.693739 0.066564 0.081380 0.185855
O38   O     O_3   0.177145 0.293833 0.133751 -0.608444
C86   C     C_3   0.130517 0.276248 0.069201 -0.055402
H48   H     H_    0.155421 0.301605 0.015341 0.084613
H49   H     H_    0.072627 0.303082 0.077964 0.232758
H50   H     H_    0.122047 0.211905 0.062715 0.154298
O39   O     O_3   0.292942 0.825828 0.131157 -0.589344
C87   C     C_3   0.279218 0.871525 0.064732 -0.061674
H51   H     H_    0.306618 0.844850 0.012717 0.065607
H52   H     H_    0.305857 0.930015 0.073391 0.227802
H53   H     H_    0.216041 0.880425 0.054989 0.158817
O40   O     O_3   0.764336 0.734295 0.223656 -0.599902
C88   C     C_3   0.773995 0.766888 0.149248 -0.071611
H54   H     H_    0.724346 0.805280 0.133247 0.078602
H55   H     H_    0.782725 0.720272 0.105259 0.162793
H56   H     H_    0.826871 0.803841 0.149528 0.205033
O41   O     O_3   0.249258 0.268356 0.283285 -0.623057
C89   C     C_3   0.248401 0.300080 0.358624 -0.060085
H57   H     H_    0.271573 0.257730 0.401682 0.099456
H58   H     H_    0.189275 0.320068 0.374613 0.153929
H59   H     H_    0.286710 0.352246 0.359638 0.172786
O42   O     O_3   0.736879 0.250192 0.281940 -0.628286
C90   C     C_3   0.705834 0.247703 0.357382 -0.047638
H60   H     H_    0.748352 0.269077 0.400868 0.096667
H61   H     H_    0.685016 0.187858 0.371739 0.162014
H62   H     H_    0.654976 0.287376 0.359770 0.173076
O43   O     O_3   0.792423 0.673568 0.372258 -0.582584
C91   C     C_3   0.774390 0.627631 0.437517 -0.210212
H63   H     H_    0.799326 0.653584 0.491084 0.108584
H64   H     H_    0.800541 0.568759 0.429879 0.183478
H65   H     H_    0.710677 0.619590 0.443856 0.162826
O44   O     O_3   0.264484 0.760177 0.278639 -0.601678
C92   C     C_3   0.275701 0.730667 0.354069 -0.070721
H66   H     H_    0.225780 0.694135 0.373100 0.080588
H67   H     H_    0.286703 0.778962 0.395704 0.164202
H68   H     H_    0.327784 0.692565 0.353863 0.202859
O45   O     O_3   0.207057 0.674174 0.631177 -0.589335
C93   C     C_3   0.220780 0.628473 0.564755 -0.061596
H69   H     H_    0.193382 0.655146 0.512739 0.065607
H70   H     H_    0.194138 0.569985 0.573421 0.227808
H71   H     H_    0.283956 0.619570 0.555009 0.158819
O46   O     O_3   0.735619 0.765366 0.723739 -0.601708
C94   C     C_3   0.724899 0.734675 0.648681 -0.067132
H72   H     H_    0.774498 0.697032 0.630865 0.077300
H73   H     H_    0.715122 0.782400 0.606076 0.164232
H74   H     H_    0.672258 0.697379 0.648905 0.204575
O47   O     O_3   0.796362 0.326235 0.634197 -0.597399
C95   C     C_3   0.778761 0.375569 0.571259 -0.211723
H75   H     H_    0.802635 0.351624 0.516297 0.118403
H76   H     H_    0.806252 0.433426 0.581313 0.185972
H77   H     H_    0.715192 0.385328 0.565928 0.160192
O48   O     O_3   0.322848 0.206159 0.633772 -0.608451
C96   C     C_3   0.369480 0.223742 0.569219 -0.055467
H78   H     H_    0.344575 0.198387 0.515361 0.084605
H79   H     H_    0.427367 0.196903 0.577981 0.232749
H80   H     H_    0.377954 0.288084 0.562731 0.154321

loop_
_geom_bond_atom_site_label_1
_geom_bond_atom_site_label_2
_geom_bond_distance
_ccdc_geom_bond_type
C21   C38   1.375074 A    
N39   O13   1.301175 A    
C4    N4    1.330370 A    
C48   C74   1.462177 S    
N37   O9    1.301158 A    
N15   Ni5   1.842601 S    
N16   N31   1.367874 A    
C5    N5    1.334940 A    
C23   C40   1.373390 A    
C10   N10   1.330368 A    
C6    C38   1.387728 A    
O33   C81   1.409067 S    
N5    N24   1.367622 A    
C42   C80   1.471163 S    
N6    Ni2   1.832911 S    
C21   H21   1.078444 S    
C16   N16   1.339412 A    
C93   H71   1.113489 S    
C36   C70   1.471163 S    
C66   O34   1.399041 S    
C9    H9    1.081887 S    
O43   C91   1.409033 S    
C14   N14   1.343217 A    
C31   H31   1.078443 S    
C84   H44   1.109120 S    
N46   O28   1.301620 A    
N39   O14   1.301732 A    
C75   O43   1.387815 S    
C23   H23   1.081073 S    
C49   N33   1.436498 S    
C12   H12   1.081196 S    
C25   N25   1.341858 A    
N8    N23   1.367874 A    
C45   C73   1.461961 S    
N34   O3    1.301429 A    
N27   Ni5   1.842169 S    
C92   H66   1.113218 S    
C54   N38   1.436730 S    
C16   C48   1.387725 A    
N35   O5    1.301321 A    
C33   C69   1.472526 S    
O45   C93   1.408557 S    
C94   H74   1.109282 S    
C29   N29   1.328659 A    
N7    Ni1   1.842601 S    
C58   C74   1.363567 D    
N32   Ni6   1.832515 S    
N4    N19   1.367636 A    
C55   N39   1.436773 S    
O47   C95   1.409221 S    
C62   C78   1.363117 D    
C51   C67   1.364891 D    
C56   N40   1.447248 S    
O40   C88   1.411807 S    
C37   C65   1.474761 S    
O41   C89   1.411070 S    
C25   H25   1.077304 S    
C20   N20   1.342302 A    
C52   C68   1.363569 D    
N40   O15   1.301618 A    
N34   O4    1.301113 A    
N13   Ni7   1.842531 S    
C8    H8    1.078404 S    
C55   C60   1.477117 S    
C59   N43   1.436492 S    
C53   C58   1.476247 S    
N15   N30   1.367622 A    
C86   H48   1.113403 S    
C29   H29   1.081070 S    
C95   H75   1.113640 S    
C24   H24   1.076693 S    
C81   H35   1.113365 S    
C67   O35   1.403279 S    
C82   H38   1.109243 S    
C89   H58   1.110705 S    
C6    N6    1.339416 A    
C26   H26   1.077281 S    
C3    H3    1.081886 S    
N48   O31   1.301153 A    
O38   C86   1.408526 S    
N2    N17   1.367636 A    
C15   N15   1.334900 A    
C49   C62   1.478917 S    
N33   O2    1.301753 A    
C11   C43   1.373323 A    
C78   O46   1.398710 S    
C93   H69   1.113555 S    
C64   N48   1.436729 S    
C10   C42   1.372547 A    
N21   Ni1   1.842165 S    
N28   Ni6   1.832512 S    
C62   N46   1.447230 S    
C10   H10   1.082097 S    
C6    H6    1.081124 S    
N38   O12   1.301741 A    
N30   Ni8   1.832561 S    
N37   O10   1.301686 A    
N14   Ni6   1.832911 S    
C96   H78   1.113405 S    
N25   Ni7   1.842237 S    
C3    C35   1.374832 A    
C32   H32   1.078751 S    
C28   C41   1.389526 A    
C1    H1    1.082102 S    
C27   H27   1.081119 S    
N18   Ni4   1.832553 S    
C14   H14   1.078403 S    
N3    Ni3   1.842527 S    
N10   Ni6   1.832914 S    
C15   C47   1.375365 A    
C77   O45   1.387405 S    
C64   C80   1.346837 D    
N3    N18   1.367861 A    
N42   O20   1.300894 A    
C70   O38   1.388097 S    
C52   N36   1.446417 S    
C90   H61   1.110860 S    
N12   Ni8   1.832871 S    
N48   O32   1.301741 A    
C89   H59   1.109120 S    
C81   H33   1.113503 S    
C72   O40   1.398215 S    
N31   Ni7   1.842234 S    
C39   C67   1.461971 S    
C82   H36   1.113217 S    
N11   N26   1.367861 A    
C40   C66   1.459591 S    
C31   N31   1.331273 A    
C61   C77   1.348902 D    
O36   C84   1.411071 S    
C50   C66   1.363740 D    
C80   O48   1.388096 S    
C53   C69   1.348913 D    
C22   N22   1.328967 A    
N29   Ni5   1.842165 S    
O34   C82   1.411698 S    
C19   C36   1.392361 A    
C55   C71   1.348893 D    
N17   Ni3   1.842237 S    
C85   H47   1.109266 S    
N41   O18   1.300787 A    
C84   H42   1.112270 S    
C27   C44   1.377978 A    
C57   N41   1.446389 S    
C15   H15   1.081864 S    
C54   C70   1.346834 D    
C87   H53   1.113489 S    
C32   C45   1.370070 A    
C92   H67   1.110866 S    
C60   C76   1.363742 D    
N13   N32   1.367622 A    
C68   O36   1.403725 S    
C53   N37   1.436824 S    
N43   O21   1.301171 A    
C50   C61   1.477118 S    
O37   C85   1.409224 S    
C17   H17   1.081117 S    
C41   C77   1.473208 S    
N43   O22   1.301738 A    
C4    C36   1.372543 A    
C3    N3    1.334039 A    
C13   C45   1.387127 A    
O35   C83   1.411067 S    
C22   H22   1.078753 S    
C83   H41   1.109119 S    
C11   H11   1.082104 S    
N6    N21   1.367874 A    
C90   H60   1.112266 S    
O44   C92   1.411700 S    
C86   H50   1.113516 S    
C87   H52   1.109231 S    
C89   H57   1.112090 S    
C73   O41   1.403277 S    
N4    Ni4   1.832871 S    
C19   H19   1.077304 S    
O48   C96   1.408528 S    
C11   N11   1.331628 A    
C56   C72   1.363035 D    
C63   N47   1.436823 S    
N26   Ni8   1.832553 S    
C30   C47   1.389055 A    
C25   C42   1.392365 A    
N12   N27   1.367636 A    
C81   H34   1.109264 S    
C26   N26   1.342300 A    
C91   H65   1.113382 S    
C30   N30   1.340419 A    
N38   O11   1.301154 A    
C86   H49   1.109236 S    
C83   H40   1.110704 S    
C20   C33   1.391486 A    
C76   O44   1.399046 S    
C28   H28   1.077043 S    
C88   H55   1.111054 S    
N19   Ni1   1.842169 S    
C26   C43   1.391482 A    
N47   O30   1.301685 A    
C88   H56   1.109269 S    
C46   C76   1.459595 S    
C84   H43   1.110858 S    
C60   N44   1.447358 S    
C56   C59   1.478817 S    
C19   N19   1.341856 A    
C24   C37   1.389028 A    
N5    Ni3   1.842531 S    
N22   Ni4   1.832561 S    
N42   O19   1.301557 A    
C18   N18   1.339818 A    
C49   C65   1.350299 D    
C91   H64   1.109266 S    
N36   O7    1.301559 A    
C27   N27   1.330156 A    
C90   H62   1.109121 S    
C13   H13   1.078220 S    
N9    Ni5   1.842593 S    
C63   C79   1.348907 D    
O42   C90   1.411070 S    
C85   H46   1.113640 S    
C52   C63   1.476249 S    
C29   C46   1.373386 A    
C50   N34   1.447359 S    
C30   H30   1.076681 S    
C14   C46   1.388418 A    
C2    H2    1.081194 S    
N11   Ni7   1.842527 S    
C20   H20   1.077282 S    
N8    Ni4   1.832867 S    
C93   H70   1.109232 S    
C94   H72   1.113556 S    
C18   H18   1.077042 S    
C34   C72   1.460125 S    
C17   C34   1.377869 A    
C16   H16   1.081122 S    
C8    N8    1.343212 A    
C74   O42   1.403726 S    
C9    N9    1.334040 A    
C54   C57   1.474602 S    
C1    C33   1.373321 A    
C51   C64   1.474605 S    
N7    N22   1.367622 A    
N10   N25   1.367636 A    
C71   O39   1.387404 S    
N46   O27   1.301129 A    
C92   H68   1.109243 S    
C96   H79   1.109235 S    
N35   O6    1.300787 A    
N33   O1    1.301170 A    
C47   C75   1.474697 S    
N20   Ni2   1.832512 S    
C12   N12   1.340020 A    
N36   O8    1.300894 A    
C35   C71   1.473208 S    
C13   N13   1.343427 A    
C31   C48   1.375073 A    
C94   H73   1.111200 S    
C79   O47   1.388283 S    
C18   C35   1.389527 A    
N14   N29   1.367874 A    
C65   O33   1.387784 S    
C95   H77   1.113298 S    
C7    H7    1.078221 S    
C38   C68   1.462181 S    
C87   H51   1.113553 S    
N2    Ni2   1.832914 S    
C8    C40   1.388417 A    
C7    C39   1.387131 A    
C22   C39   1.370072 A    
C32   N32   1.328966 A    
C17   N17   1.330082 A    
C57   C73   1.364892 D    
C23   N23   1.328663 A    
N45   O25   1.301175 A    
C2    N2    1.340001 A    
N1    N20   1.367861 A    
N40   O16   1.301130 A    
C9    C41   1.374841 A    
C51   N35   1.446390 S    
C24   N24   1.340450 A    
O46   C94   1.412019 S    
C1    N1    1.331627 A    
C2    C34   1.389629 A    
N47   O29   1.301159 A    
C4    H4    1.082096 S    
N23   Ni3   1.842234 S    
C44   C78   1.460692 S    
C58   N42   1.446417 S    
N9    N28   1.367861 A    
C5    H5    1.081866 S    
C83   H39   1.112089 S    
C95   H76   1.109266 S    
N41   O17   1.301320 A    
C61   N45   1.436773 S    
C96   H80   1.113515 S    
C43   C79   1.472529 S    
O39   C87   1.408555 S    
C82   H37   1.110868 S    
C7    N7    1.343428 A    
C21   N21   1.331270 A    
C59   C75   1.350301 D    
C5    C37   1.375398 A    
N1    Ni1   1.842593 S    
N45   O26   1.301732 A    
N44   O23   1.301430 A    
C88   H54   1.113425 S    
C28   N28   1.339814 A    
N44   O24   1.301112 A    
C85   H45   1.113296 S    
N24   Ni2   1.832515 S    
C69   O37   1.388288 S    
C91   H63   1.113424 S    
C12   C44   1.389701 A    
N16   Ni8   1.832867 S    
