data_mof_unit_23697.cif
_audit_creation_date              2012-12-10T20:56:23-0500
_audit_creation_method            fapswitch 2.2
_symmetry_space_group_name_H-M    P1
_symmetry_Int_Tables_number       1
_space_group_crystal_system       triclinic
_cell_length_a                    13.359905
_cell_length_b                    15.03609
_cell_length_c                    15.843447
_cell_angle_alpha                 90.226253
_cell_angle_beta                  89.832448
_cell_angle_gamma                 72.955658
_cell_volume                      3042.8043826

loop_
_atom_site_label
_atom_site_type_symbol
_atom_type_description
_atom_site_fract_x
_atom_site_fract_y
_atom_site_fract_z
_atom_type_partial_charge
C1    C     C_R   0.499937 0.500289 0.661191 0.876477
C2    C     C_R   0.976118 0.468490 0.546896 -0.021409
C3    C     C_R   0.866139 0.495326 0.545345 -0.110617
C4    C     C_R   0.026760 0.538284 0.535061 -0.084603
C5    C     C_R   0.970665 0.634181 0.542477 -0.201604
C6    C     C_R   0.862079 0.659679 0.545766 0.536652
C7    C     C_R   0.812326 0.591107 0.556424 -0.252497
C8    C     C_R   0.128436 0.516360 0.503237 0.477007
C9    C     C_R   0.134282 0.671146 0.543303 0.301503
C10   C     C_R   0.814695 0.425675 0.531838 -0.287144
C11   C     C_R   0.571178 0.424075 0.043069 0.497427
C12   C     C_R   0.702868 0.451300 0.508378 0.962648
C13   C     C_R   0.508604 0.501119 0.087128 -0.321017
C14   C     C_R   0.448095 0.579908 0.045041 0.494152
C15   C     C_R   0.450678 0.582315 0.957377 0.333828
C16   C     C_R   0.510561 0.503462 0.913165 -0.321472
C17   C     C_R   0.571704 0.425040 0.955559 0.524172
C18   C     C_1   0.505544 0.499371 0.175871 0.202966
C19   C     C_1   0.506792 0.501713 0.824275 0.172811
C20   C     C_1   0.503243 0.500516 0.749517 -0.172628
C21   C     C_1   0.502703 0.499049 0.250621 -0.178200
C22   C     C_R   0.524344 0.041170 0.572251 0.362123
C23   C     C_R   0.500062 0.499822 0.338878 0.882222
C24   C     C_R   0.496485 0.095824 0.498770 -0.321216
C25   C     C_R   0.464262 0.055848 0.426255 0.375814
C26   C     C_R   0.464353 0.961353 0.426439 0.351193
C27   C     C_R   0.490573 0.907357 0.500984 -0.310004
C28   C     C_R   0.517290 0.949059 0.574431 0.343019
C29   C     C_1   0.498815 0.193158 0.499080 0.159406
C30   C     C_1   0.495376 0.808270 0.500882 0.147572
C31   C     C_R   0.297230 0.549749 0.501976 0.945028
C32   C     C_R   0.025101 0.701937 0.544116 0.400219
C33   C     C_R   0.185115 0.580273 0.514453 -0.397495
C34   C     C_R   0.871603 0.331146 0.541296 0.338348
C35   C     C_R   0.975536 0.308098 0.567995 0.396314
C36   C     C_R   0.031378 0.374631 0.566703 0.380184
H1    H     H_    0.731979 0.616370 0.576446 0.179075
N1    N     N_1   0.500030 0.729450 0.499980 -0.125527
N2    N     N_1   0.499970 0.270550 0.500020 -0.109419
O1    O     O_R   0.500000 0.426350 0.621980 -0.589989
O2    O     O_R   0.499950 0.573700 0.621980 -0.635776
O3    O     O_R   0.653660 0.389750 0.499980 -0.576597
O4    O     O_R   0.653610 0.537090 0.499980 -0.646033
O5    O     O_R   0.500050 0.426300 0.378020 -0.612801
O6    O     O_R   0.500000 0.573650 0.378020 -0.620826
O7    O     O_R   0.346390 0.462910 0.500020 -0.582380
O8    O     O_R   0.346340 0.610250 0.500020 -0.586260
Zn1   Zn    Zn3+2 0.500030 0.401620 0.500000 0.996528
Zn2   Zn    Zn3+2 0.499970 0.598380 0.500000 0.943158
O9    O     O_3   0.189376 0.732200 0.566706 -0.622815
C37   C     C_3   0.223860 0.714598 0.651248 0.147101
H2    H     H_    0.289027 0.745614 0.660435 0.172387
H3    H     H_    0.256778 0.638833 0.664625 0.117628
C38   C     C_3   0.136179 0.759759 0.714603 -0.410354
H4    H     H_    0.101407 0.834431 0.699332 0.242107
H5    H     H_    0.073729 0.724769 0.711210 0.237829
C39   C     C_3   0.177327 0.752044 0.804672 -0.859710
H6    H     H_    0.212909 0.677881 0.821532 0.294401
H7    H     H_    0.111815 0.783110 0.849044 0.267857
H8    H     H_    0.236474 0.790252 0.811074 0.267040
F1    F     F_    0.629800 0.347894 0.084787 -0.607241
F2    F     F_    0.386050 0.653414 0.088969 -0.658790
O10   O     O_3   0.388483 0.658879 0.915198 -0.602392
C40   C     C_3   0.447533 0.720164 0.894375 0.085196
H9    H     H_    0.433450 0.738594 0.826700 0.152379
H10   H     H_    0.534144 0.689807 0.901521 0.115127
C41   C     C_3   0.409722 0.808889 0.947742 -0.294946
H11   H     H_    0.323474 0.838366 0.941477 0.239990
H12   H     H_    0.428069 0.791930 0.015170 0.262998
C42   C     C_3   0.461890 0.881895 0.920576 -0.963886
H13   H     H_    0.548110 0.854663 0.928205 0.266165
H14   H     H_    0.432621 0.945059 0.960581 0.283717
H15   H     H_    0.443139 0.901581 0.853671 0.283611
O11   O     O_3   0.527982 0.903728 0.651364 -0.614449
C43   C     C_3   0.630603 0.843229 0.658942 0.147597
H16   H     H_    0.690598 0.876008 0.636870 0.170709
H17   H     H_    0.637743 0.778619 0.622372 0.155571
C44   C     C_3   0.652366 0.816568 0.751345 -0.368884
H18   H     H_    0.642055 0.880502 0.789947 0.236502
H19   H     H_    0.595758 0.780417 0.773657 0.218855
C45   C     C_3   0.763399 0.752423 0.763198 -0.909002
H20   H     H_    0.774105 0.686435 0.727687 0.266098
H21   H     H_    0.777229 0.735832 0.831179 0.261230
H22   H     H_    0.821768 0.786736 0.740841 0.283104
O12   O     O_3   0.552916 0.078538 0.645153 -0.594135
C46   C     C_3   0.657834 0.080800 0.637510 0.078561
H23   H     H_    0.660531 0.144059 0.602675 0.170538
H24   H     H_    0.708921 0.018658 0.603695 0.111465
C47   C     C_3   0.702446 0.084771 0.725638 -0.301931
H25   H     H_    0.655916 0.149256 0.758386 0.261219
H26   H     H_    0.696645 0.023924 0.762784 0.225546
C48   C     C_3   0.816912 0.083850 0.721554 -0.867940
H27   H     H_    0.865534 0.017504 0.693195 0.248084
H28   H     H_    0.845800 0.089935 0.786338 0.280321
H29   H     H_    0.825281 0.143158 0.683420 0.307215
O13   O     O_3   0.443756 0.104655 0.351009 -0.586547
C49   C     C_3   0.344966 0.173461 0.354181 0.129078
H30   H     H_    0.347246 0.227942 0.307689 0.170960
H31   H     H_    0.327028 0.209071 0.416291 0.099569
C50   C     C_3   0.256678 0.132560 0.330016 -0.371789
H32   H     H_    0.277450 0.092950 0.269970 0.252696
H33   H     H_    0.246482 0.085430 0.380991 0.197871
C51   C     C_3   0.152937 0.207943 0.318083 -0.968980
H34   H     H_    0.129952 0.249166 0.376856 0.256683
H35   H     H_    0.090866 0.175195 0.302298 0.269855
H36   H     H_    0.159411 0.254765 0.265713 0.275535
O14   O     O_3   0.451058 0.920616 0.349975 -0.595086
C52   C     C_3   0.359135 0.891562 0.349911 0.051901
H37   H     H_    0.297772 0.941725 0.313111 0.146168
H38   H     H_    0.325666 0.887339 0.413830 0.137326
C53   C     C_3   0.382209 0.797356 0.305158 -0.281724
H39   H     H_    0.400164 0.805486 0.237563 0.242985
H40   H     H_    0.452035 0.747647 0.333614 0.243740
C54   C     C_3   0.289434 0.757770 0.311202 -0.888150
H41   H     H_    0.271358 0.747399 0.378279 0.276089
H42   H     H_    0.308762 0.689558 0.278116 0.282053
H43   H     H_    0.219267 0.805768 0.281228 0.253496
O15   O     O_3   0.805056 0.751613 0.533011 -0.650293
C55   C     C_3   0.746615 0.760965 0.457144 0.038993
H44   H     H_    0.698630 0.834766 0.452965 0.168954
H45   H     H_    0.692056 0.717903 0.458296 0.157600
C56   C     C_3   0.814994 0.737116 0.377154 -0.395776
H46   H     H_    0.872713 0.776956 0.375747 0.211801
H47   H     H_    0.858061 0.661887 0.376293 0.209110
C57   C     C_3   0.747808 0.759231 0.297862 -0.868344
H48   H     H_    0.690147 0.718915 0.297118 0.265966
H49   H     H_    0.798592 0.740247 0.241048 0.259729
H50   H     H_    0.705347 0.834705 0.295413 0.281392
O16   O     O_3   0.973649 0.795264 0.560087 -0.599215
C58   C     C_3   0.987823 0.851607 0.491863 0.165704
H51   H     H_    0.910053 0.884514 0.463291 0.138034
H52   H     H_    0.039756 0.812526 0.440195 0.116344
C59   C     C_3   0.029751 0.930140 0.523898 -0.311538
H53   H     H_    0.968270 0.979981 0.561971 0.207044
H54   H     H_    0.098811 0.902185 0.564762 0.262646
C60   C     C_3   0.062308 0.981603 0.450792 -1.007979
H55   H     H_    0.127869 0.933814 0.414876 0.267422
H56   H     H_    0.088718 0.040103 0.475598 0.280670
H57   H     H_    0.995552 0.009614 0.407471 0.263013
O17   O     O_3   0.169736 0.434151 0.458416 -0.629804
C61   C     C_3   0.168322 0.452852 0.370733 0.076377
H58   H     H_    0.223340 0.391476 0.339570 0.166717
H59   H     H_    0.197456 0.513304 0.355717 0.118611
C62   C     C_3   0.058781 0.467346 0.333460 -0.407103
H60   H     H_    0.029714 0.407436 0.349422 0.228375
H61   H     H_    0.003746 0.530985 0.360876 0.207606
C63   C     C_3   0.059608 0.478481 0.237838 -0.896847
H62   H     H_    0.085142 0.540171 0.221076 0.266780
H63   H     H_    0.979487 0.488496 0.212906 0.271231
H64   H     H_    0.113346 0.415571 0.207826 0.263057
O18   O     O_3   0.820691 0.262922 0.539395 -0.594415
C64   C     C_3   0.858946 0.199508 0.472126 0.106377
H65   H     H_    0.855853 0.130049 0.493304 0.167779
H66   H     H_    0.941948 0.191788 0.454381 0.149509
C65   C     C_3   0.788963 0.227408 0.394467 -0.362685
H67   H     H_    0.706832 0.232399 0.411779 0.255009
H68   H     H_    0.791878 0.296474 0.371830 0.218279
C66   C     C_3   0.823773 0.156562 0.323106 -0.915222
H69   H     H_    0.905754 0.150048 0.304263 0.258215
H70   H     H_    0.772376 0.179736 0.267572 0.303556
H71   H     H_    0.817881 0.087598 0.343293 0.254920
O19   O     O_3   0.131518 0.355636 0.601163 -0.606413
C67   C     C_3   0.200947 0.269928 0.572891 0.214286
H72   H     H_    0.272059 0.284432 0.547542 0.150744
H73   H     H_    0.170176 0.237345 0.519568 0.134546
C68   C     C_3   0.234917 0.202642 0.647316 -0.285922
H74   H     H_    0.306732 0.212623 0.676051 0.210484
H75   H     H_    0.173201 0.217878 0.696975 0.273302
C69   C     C_3   0.257011 0.101104 0.619780 -0.855556
H76   H     H_    0.182774 0.084741 0.606778 0.297860
H77   H     H_    0.298989 0.054516 0.670704 0.279356
H78   H     H_    0.305390 0.087080 0.561658 0.222474
F3    F     F_    0.019256 0.221173 0.598177 -0.687214
F4    F     F_    0.630170 0.349419 0.912160 -0.605277

loop_
_geom_bond_atom_site_label_1
_geom_bond_atom_site_label_2
_ccdc_geom_bond_type
C66   H70   S    
C23   O6    A    
C65   H68   S    
C18   C21   T    
C69   H76   S    
C58   H52   S    
C67   H72   S    
C4    C8    A    
C28   O11   S    
C49   C50   S    
C54   H41   S    
O8    Zn2   S    
N1    Zn2   S    
C1    O1    A    
O12   C46   S    
C26   C27   A    
C13   C18   S    
C27   C28   A    
C63   H63   S    
O19   C67   S    
C12   O4    A    
C3    C7    A    
C62   C63   S    
C5    C6    A    
C46   H24   S    
C39   H7    S    
C15   C16   A    
C14   F2    S    
C52   H37   S    
C30   N1    T    
C34   C35   A    
C22   O12   S    
O15   C55   S    
C48   H27   S    
C12   O3    A    
C9    C32   A    
C49   H31   S    
C24   C29   S    
C51   H35   S    
C36   O19   S    
C63   H62   S    
C16   C17   A    
C31   O7    A    
C59   C60   S    
O18   C64   S    
C31   C33   S    
C42   H13   S    
C47   H26   S    
C66   H71   S    
C5    C32   A    
C57   H48   S    
C22   C28   A    
C13   C14   A    
C65   C66   S    
C68   H75   S    
C69   H77   S    
C68   H74   S    
C60   H57   S    
C25   O13   S    
O2    Zn2   S    
C32   O16   S    
C45   H21   S    
C49   H30   S    
O7    Zn1   S    
C55   H45   S    
C38   H5    S    
C42   H14   S    
O11   C43   S    
C41   H11   S    
C35   F3    S    
C40   C41   S    
C67   C68   S    
O17   C61   S    
C62   H61   S    
C61   C62   S    
C46   H23   S    
O4    Zn2   S    
C39   H8    S    
C25   C26   A    
C50   C51   S    
C45   H20   S    
C23   O5    A    
C37   H2    S    
C37   H3    S    
C35   C36   A    
C40   H10   S    
C51   H36   S    
C2    C4    A    
C43   H16   S    
C57   H50   S    
C64   C65   S    
O6    Zn2   S    
O14   C52   S    
O13   C49   S    
C29   N2    T    
C42   H15   S    
C48   H28   S    
O9    C37   S    
C7    H1    S    
C53   H40   S    
O3    Zn1   S    
C24   C25   A    
C47   C48   S    
C43   H17   S    
C10   C12   S    
C9    C33   A    
C10   C34   A    
C34   O18   S    
C1    O2    A    
C50   H33   S    
C64   H66   S    
C21   C23   S    
C66   H69   S    
C69   H78   S    
C22   C24   A    
C58   C59   S    
C56   H47   S    
C63   H64   S    
C65   H67   S    
C45   H22   S    
C17   F4    S    
C60   H56   S    
C59   H54   S    
O16   C58   S    
C55   C56   S    
C2    C36   A    
O1    Zn1   S    
C38   H4    S    
C11   C17   A    
C1    C20   S    
C53   H39   S    
C67   H73   S    
C44   H18   S    
C9    O9    S    
C62   H60   S    
C11   F1    S    
C46   C47   S    
C26   O14   S    
C54   H42   S    
C55   H44   S    
C6    C7    A    
C52   C53   S    
C8    O17   S    
C37   C38   S    
C40   H9    S    
C41   C42   S    
C19   C20   T    
C61   H59   S    
C58   H51   S    
C47   H25   S    
C3    C10   A    
C61   H58   S    
C11   C13   A    
C44   C45   S    
C39   H6    S    
C59   H53   S    
C56   C57   S    
C16   C19   S    
C50   H32   S    
C52   H38   S    
C2    C3    A    
C53   C54   S    
C44   H19   S    
C8    C33   A    
C48   H29   S    
C43   C44   S    
C54   H43   S    
O10   C40   S    
C4    C5    A    
C64   H65   S    
C68   C69   S    
C51   H34   S    
C57   H49   S    
C15   O10   S    
C14   C15   A    
C60   H55   S    
C31   O8    A    
C41   H12   S    
C56   H46   S    
C6    O15   S    
O5    Zn1   S    
N2    Zn1   S    
C27   C30   S    
C38   C39   S    
