data_mof_unit_31189.cif
_audit_creation_date              2012-10-26T21:04:51-0400
_audit_creation_method            fapswitch 2.2
_symmetry_space_group_name_H-M    P1
_symmetry_Int_Tables_number       1
_space_group_crystal_system       triclinic
_cell_length_a                    11.662897
_cell_length_b                    12.455328
_cell_length_c                    13.230889
_cell_angle_alpha                 116.894964
_cell_angle_beta                  75.466582
_cell_angle_gamma                 100.923077
_cell_volume                      1652.81387003

loop_
_atom_site_label
_atom_site_type_symbol
_atom_type_description
_atom_site_fract_x
_atom_site_fract_y
_atom_site_fract_z
_atom_type_partial_charge
C1    C     C_R   0.511051 0.855114 0.286307 0.616390
C2    C     C_R   0.373336 0.482120 0.172001 0.401229
C3    C     C_R   0.389145 0.604238 0.194500 0.325043
C4    C     C_R   0.715621 0.999888 0.499551 0.573297
C5    C     C_R   0.520262 0.352180 0.868289 0.440484
C6    C     C_R   0.432568 0.189149 0.923139 -0.205367
C7    C     C_R   0.525673 0.771468 0.162061 -0.079283
C8    C     C_R   0.674110 0.328377 0.306890 0.329733
C9    C     C_R   0.331602 0.756480 0.639489 0.438130
C10   C     C_R   0.276376 0.647644 0.642583 0.363619
C11   C     C_R   0.334584 0.543314 0.579534 -0.075441
C12   C     C_R   0.482604 0.228756 0.836666 0.004241
C13   C     C_R   0.450796 0.544354 0.517795 -0.072488
C14   C     C_R   0.494478 0.649530 0.497870 0.131072
C15   C     C_R   0.516942 0.438940 0.462242 -0.047951
C16   C     C_R   0.488200 0.145025 0.713615 0.532755
C17   C     C_R   0.610430 0.430706 0.368355 -0.082126
C18   C     C_R   0.644753 0.527927 0.340047 -0.055211
C19   C     C_R   0.594268 0.636638 0.406292 0.397998
C20   C     C_R   0.499601 0.345146 0.500274 0.382108
C21   C     C_R   0.653102 0.237678 0.345018 0.404415
C22   C     C_R   0.284407 0.000118 0.500404 0.514810
C23   C     C_R   0.603267 0.809436 0.081068 0.200830
C24   C     C_1   0.837530 0.000168 0.499544 0.023674
C25   C     C_1   0.940154 0.000230 0.499780 -0.008700
C26   C     C_1   0.059963 0.000183 0.500243 -0.021637
C27   C     C_1   0.162540 0.000091 0.500513 -0.008756
C28   C     C_R   0.402000 0.273044 0.037234 -0.120321
C29   C     C_3   0.329667 0.321851 0.630428 -0.035609
C30   C     C_3   0.245352 0.893461 0.817310 -0.069102
C31   C     C_3   0.552028 0.972191 0.075107 -0.042912
C32   C     C_3   0.228562 0.704314 0.233329 -0.080770
C33   C     C_3   0.835124 0.169176 0.303795 -0.017386
C34   C     C_R   0.663582 0.724198 0.980115 0.439110
C35   C     C_R   0.639405 0.601895 0.953645 0.463247
C36   C     C_R   0.541508 0.560751 0.019488 -0.081786
C37   C     C_R   0.484330 0.646713 0.126223 -0.156365
C38   C     C_R   0.501505 0.436352 0.984672 0.001948
C39   C     C_R   0.428470 0.397116 0.066719 -0.039684
Cu1   Cu    Cu3+1 0.526510 0.098270 0.475420 1.082504
Cu2   Cu    Cu3+1 0.473490 0.901730 0.524580 1.132339
F1    F     F_    0.756992 0.316924 0.210568 -0.632076
F2    F     F_    0.161904 0.639406 0.696704 -0.600366
F3    F     F_    0.647795 0.723305 0.372861 -0.620667
F4    F     F_    0.292124 0.445821 0.246584 -0.614684
F5    F     F_    0.559687 0.392755 0.785076 -0.528103
F6    F     F_    0.718899 0.526251 0.870074 -0.503490
F7    F     F_    0.752400 0.761108 0.911114 -0.530867
H1    H     H_    0.409156 0.094336 0.901709 0.130384
H2    H     H_    0.224706 0.989205 0.862418 0.132253
H3    H     H_    0.460758 0.964352 0.124618 0.078980
H4    H     H_    0.552763 0.923380 0.980667 0.125618
H5    H     H_    0.576962 0.069327 0.095649 0.179994
H6    H     H_    0.183992 0.619683 0.174418 0.148294
H7    H     H_    0.273730 0.760916 0.187070 0.079376
H8    H     H_    0.158187 0.756001 0.303663 0.159205
H9    H     H_    0.876422 0.085696 0.280156 0.138172
H10   H     H_    0.841376 0.229867 0.395526 0.122041
H11   H     H_    0.887680 0.211504 0.246622 0.192151
H12   H     H_    0.717923 0.523138 0.269252 0.215881
H13   H     H_    0.281545 0.460293 0.567418 0.149016
H14   H     H_    0.352187 0.241011 0.100771 0.177842
H15   H     H_    0.321908 0.256509 0.667380 0.155703
H16   H     H_    0.290352 0.279179 0.551006 0.095716
H17   H     H_    0.273738 0.393702 0.698072 0.132897
H18   H     H_    0.320936 0.885235 0.850122 0.064808
H19   H     H_    0.164115 0.840380 0.840444 0.217039
N1    N     N_R   0.566700 0.246290 0.438210 -0.254561
N2    N     N_R   0.434010 0.754320 0.561170 -0.252173
O1    O     O_R   0.533340 0.972510 0.318140 -0.446518
O2    O     O_3   0.272892 0.860851 0.697444 -0.503404
O3    O     O_3   0.635244 0.930178 0.106863 -0.457730
O4    O     O_3   0.308673 0.679568 0.282557 -0.501434
O5    O     O_3   0.716334 0.136695 0.286787 -0.473405
O6    O     O_R   0.488570 0.806530 0.359650 -0.397997
O7    O     O_R   0.685190 0.083000 0.479260 -0.486791
O8    O     O_R   0.640410 0.917020 0.520770 -0.425966
O9    O     O_R   0.511430 0.193470 0.640350 -0.405156
O10   O     O_R   0.466660 0.027490 0.681860 -0.504257
O11   O     O_R   0.359590 0.082980 0.479230 -0.559280
O12   O     O_R   0.314810 0.917000 0.520740 -0.418254
O13   O     O_3   0.448311 0.373039 0.615307 -0.476276

loop_
_geom_bond_atom_site_label_1
_geom_bond_atom_site_label_2
_ccdc_geom_bond_type
C29   H15   S    
C33   H10   S    
C20   O13   S    
C35   C36   A    
C31   H4    S    
C35   F6    S    
C30   O2    S    
C26   C27   T    
Cu1   O1    S    
C36   C37   A    
C9    N2    A    
C18   C19   A    
Cu2   O8    S    
C38   C39   A    
C4    C24   S    
C34   C35   A    
C2    C39   A    
C6    C28   A    
C12   C16   S    
Cu1   O11   S    
C9    C10   A    
C32   H7    S    
C30   H19   S    
C30   H2    S    
C29   H16   S    
C33   H11   S    
C13   C14   A    
C14   C19   A    
C32   H6    S    
C8    C21   A    
C2    F4    S    
C15   C20   A    
C1    O6    A    
C22   O12   A    
C9    O2    S    
C24   C25   T    
C5    C12   A    
C31   H3    S    
C32   O4    S    
C28   C39   A    
C25   C26   S    
C21   O5    S    
Cu1   O7    S    
Cu2   O6    S    
C23   C34   A    
Cu2   O12   S    
C17   C18   A    
C7    C37   A    
C31   H5    S    
C30   H18   S    
C29   H17   S    
C18   H12   S    
C31   O3    S    
C22   C27   S    
C13   C15   A    
C21   N1    A    
C14   N2    A    
Cu1   O9    S    
C34   F7    S    
C19   F3    S    
Cu2   N2    S    
C15   C17   A    
Cu1   Cu2   S    
C33   H9    S    
C10   F2    S    
C1    C7    S    
C23   O3    S    
C20   N1    A    
C1    O1    A    
C8    F1    S    
C11   H13   S    
Cu2   O10   S    
C5    F5    S    
C8    C17   A    
C16   O10   A    
C36   C38   A    
C2    C3    A    
C22   O11   A    
C4    O8    A    
C6    C12   A    
C11   C13   A    
C7    C23   A    
C16   O9    A    
C6    H1    S    
C3    O4    S    
C4    O7    A    
C10   C11   A    
C33   O5    S    
C29   O13   S    
C3    C37   A    
Cu1   N1    S    
C5    C38   A    
C32   H8    S    
C28   H14   S    
