data_mof_unit_18346.cif
_audit_creation_date              2013-03-05T16:10:56-0500
_audit_creation_method            fapswitch 2.2
_symmetry_space_group_name_H-M    P1
_symmetry_Int_Tables_number       1
_space_group_crystal_system       triclinic
_cell_length_a                    15.82233
_cell_length_b                    14.680957
_cell_length_c                    9.952648
_cell_angle_alpha                 93.490919
_cell_angle_beta                  89.999157
_cell_angle_gamma                 90.001501
_cell_volume                      2307.58044744

loop_
_atom_site_label
_atom_site_type_symbol
_atom_site_description
_atom_site_fract_x
_atom_site_fract_y
_atom_site_fract_z
_atom_type_partial_charge
O1    O     O_R   0.091610 0.408380 0.614620 -0.624526
O2    O     O_R   0.908390 0.591620 0.385380 -0.624657
O3    O     O_R   0.908390 0.591620 0.614620 -0.606049
O4    O     O_R   0.091610 0.408380 0.385380 -0.606018
O5    O     O_R   0.908390 0.408380 0.385380 -0.606101
O6    O     O_R   0.091610 0.591620 0.614620 -0.606103
O7    O     O_R   0.091610 0.591620 0.385380 -0.624544
O8    O     O_R   0.908390 0.408380 0.614620 -0.624703
O9    O     O_R   0.591610 0.908380 0.614620 -0.624660
O10   O     O_R   0.408390 0.091620 0.385380 -0.624491
O11   O     O_R   0.408390 0.091620 0.614620 -0.606082
O12   O     O_R   0.591610 0.908380 0.385380 -0.606072
O13   O     O_R   0.408390 0.908380 0.385380 -0.606050
O14   O     O_R   0.591610 0.091620 0.614620 -0.606065
O15   O     O_R   0.591610 0.091620 0.385380 -0.624707
O16   O     O_R   0.408390 0.908380 0.614620 -0.624574
C1    C     C_R   0.121345 0.381715 0.497330 0.969818
C2    C     C_R   0.878681 0.618314 0.502670 0.970214
C3    C     C_R   0.878694 0.381672 0.497334 0.970178
C4    C     C_R   0.121334 0.618297 0.502666 0.969811
C5    C     C_R   0.621315 0.881682 0.497333 0.970198
C6    C     C_R   0.378655 0.118285 0.502667 0.969843
C7    C     C_R   0.378664 0.881706 0.497331 0.969774
C8    C     C_R   0.621311 0.118322 0.502669 0.970174
N1    N     N_R   0.000000 0.500000 0.857200 -0.295291
N2    N     N_R   1.000000 0.500000 0.142800 -0.295284
N3    N     N_R   0.500000 0.000000 0.857200 -0.295289
N4    N     N_R   0.500000 0.000000 0.142800 -0.295284
Zn1   Zn    Zn3+2 1.000000 0.500000 0.653120 1.060464
Zn2   Zn    Zn3+2 1.000000 0.500000 0.346880 1.060491
Zn3   Zn    Zn3+2 0.500000 0.000000 0.653120 1.060464
Zn4   Zn    Zn3+2 0.500000 0.000000 0.346880 1.060490
C9    C     C_R   0.999971 0.580388 0.077653 0.469627
C10   C     C_R   0.000038 0.419611 0.922346 0.469580
C11   C     C_R   0.000045 0.419945 0.064214 0.474187
C12   C     C_R   0.999980 0.580054 0.935785 0.474137
C13   C     C_R   0.499987 0.080389 0.077653 0.469627
C14   C     C_R   0.500003 0.919611 0.922346 0.469569
C15   C     C_R   0.499995 0.919945 0.064215 0.474181
C16   C     C_R   0.499979 0.080055 0.935785 0.474155
C17   C     C_R   0.803358 0.250607 0.387100 0.185988
C18   C     C_R   0.196847 0.749173 0.613130 0.186073
C19   C     C_R   0.246185 0.680071 0.396649 0.223770
C20   C     C_R   0.753693 0.320078 0.603144 0.224192
C21   C     C_R   0.246147 0.319888 0.603410 0.223721
C22   C     C_R   0.753713 0.679946 0.396809 0.224177
C23   C     C_R   0.803252 0.749284 0.613018 0.185864
C24   C     C_R   0.196947 0.250931 0.386755 0.185888
C25   C     C_R   0.303126 0.750856 0.386835 0.185945
C26   C     C_R   0.696689 0.249346 0.612952 0.185901
C27   C     C_R   0.746334 0.179892 0.396882 0.224229
C28   C     C_R   0.253801 0.819948 0.603333 0.223787
C29   C     C_R   0.746268 0.820032 0.603210 0.224150
C30   C     C_R   0.253859 0.180123 0.396575 0.223709
C31   C     C_R   0.303070 0.249086 0.613216 0.186075
C32   C     C_R   0.696717 0.750684 0.387018 0.185948
C33   C     C_R   0.190974 0.681231 0.507418 -0.310688
C34   C     C_R   0.809077 0.318717 0.492588 -0.310606
C35   C     C_R   0.809042 0.681247 0.507432 -0.310486
C36   C     C_R   0.191000 0.318797 0.492566 -0.310535
C37   C     C_R   0.690945 0.181258 0.507433 -0.310580
C38   C     C_R   0.309015 0.818783 0.492567 -0.310643
C39   C     C_R   0.309003 0.181208 0.507422 -0.310592
C40   C     C_R   0.690943 0.818736 0.492583 -0.310508
O17   O     O_3   0.999939 0.664841 0.145781 -0.609636
H1    H     H_    0.000008 0.657068 0.242505 0.377898
O18   O     O_3   0.000079 0.335159 0.854218 -0.609664
H2    H     H_    0.999989 0.342932 0.757495 0.377895
O19   O     O_3   0.000106 0.336788 0.119750 -0.557935
H3    H     H_    0.000036 0.347547 0.217938 0.384059
O20   O     O_3   0.999988 0.663211 0.880250 -0.557928
H4    H     H_    0.000006 0.652451 0.782062 0.384067
O21   O     O_3   0.499973 0.164841 0.145781 -0.609634
H5    H     H_    0.500007 0.157068 0.242505 0.377899
O22   O     O_3   0.500007 0.835159 0.854219 -0.609668
H6    H     H_    0.499996 0.842932 0.757495 0.377896
O23   O     O_3   0.499969 0.836788 0.119750 -0.557935
H7    H     H_    0.499982 0.847547 0.217938 0.384060
O24   O     O_3   0.499939 0.163211 0.880249 -0.557928
H8    H     H_    0.499977 0.152452 0.782061 0.384068
N5    N     N_R   0.855555 0.251806 0.270033 0.238815
O25   O     O_R   0.831403 0.300124 0.171620 -0.226195
O26   O     O_R   0.910970 0.187343 0.246753 -0.234638
N6    N     N_R   0.144903 0.747731 0.730469 0.239027
O27   O     O_R   0.169088 0.698881 0.828277 -0.226263
O28   O     O_R   0.089756 0.812355 0.754645 -0.233506
N7    N     N_R   0.246260 0.605697 0.295527 0.264875
O29   O     O_R   0.257633 0.522442 0.329814 -0.305338
O30   O     O_R   0.233955 0.620846 0.169525 -0.228709
N8    N     N_R   0.753463 0.394636 0.703971 0.264783
O31   O     O_R   0.742308 0.477826 0.669251 -0.305802
O32   O     O_R   0.765315 0.379715 0.830157 -0.228693
N9    N     N_R   0.246224 0.394251 0.704554 0.264846
O33   O     O_R   0.257539 0.477512 0.670288 -0.305504
O34   O     O_R   0.234079 0.379082 0.830570 -0.228447
N10   N     N_R   0.753506 0.605420 0.295927 0.264758
O35   O     O_R   0.742376 0.522212 0.330580 -0.305855
O36   O     O_R   0.765315 0.620390 0.169748 -0.228529
N11   N     N_R   0.855275 0.747935 0.730270 0.238964
O37   O     O_R   0.831103 0.699239 0.828260 -0.226321
O38   O     O_R   0.910479 0.812536 0.754187 -0.233733
N12   N     N_R   0.145225 0.252568 0.269184 0.239185
O39   O     O_R   0.169409 0.301932 0.171955 -0.226511
O40   O     O_R   0.090355 0.187774 0.244177 -0.232563
N13   N     N_R   0.354956 0.752391 0.269377 0.239092
O41   O     O_R   0.330788 0.801523 0.171884 -0.226500
O42   O     O_R   0.409937 0.687665 0.244752 -0.233021
N14   N     N_R   0.644589 0.248071 0.730123 0.238898
O43   O     O_R   0.668738 0.199533 0.828286 -0.226369
O44   O     O_R   0.589318 0.312626 0.753778 -0.234107
N15   N     N_R   0.746583 0.105315 0.296085 0.264749
O45   O     O_R   0.757670 0.022128 0.330855 -0.305952
O46   O     O_R   0.734871 0.120218 0.169862 -0.228530
N16   N     N_R   0.253681 0.894365 0.704392 0.264833
O47   O     O_R   0.242407 0.977606 0.670004 -0.305612
O48   O     O_R   0.265738 0.879263 0.830457 -0.228465
N17   N     N_R   0.746454 0.894538 0.704121 0.264788
O49   O     O_R   0.757653 0.977745 0.669529 -0.305684
O50   O     O_R   0.734544 0.879550 0.830262 -0.228655
N18   N     N_R   0.253835 0.105809 0.295354 0.264880
O51   O     O_R   0.242420 0.022528 0.329505 -0.305240
O52   O     O_R   0.266246 0.121039 0.169402 -0.228704
N19   N     N_R   0.354909 0.247547 0.730654 0.239149
O53   O     O_R   0.330713 0.198504 0.828215 -0.226258
O54   O     O_R   0.409954 0.312212 0.755167 -0.233177
N20   N     N_R   0.644624 0.751978 0.269843 0.238910
O55   O     O_R   0.668794 0.800509 0.171675 -0.226202
O56   O     O_R   0.589317 0.687451 0.246202 -0.234194

loop_
_geom_bond_atom_site_label_1
_geom_bond_atom_site_label_2
_geom_bond_distance
_ccdc_geom_bond_type
N7    O29   1.301368 A    
C21   C36   1.405884 A    
C8    C37   1.436828 S    
C30   N18   1.439204 S    
C22   C35   1.405843 A    
O2    C2    1.296732 A    
O21   H5    0.976273 S    
O13   Zn4   2.029702 S    
N15   O45   1.301339 A    
C27   C37   1.405815 A    
O14   Zn3   2.029700 S    
C21   N9    1.439225 S    
N16   O47   1.301283 A    
C9    O17   1.376444 S    
N19   O53   1.301115 A    
O23   H7    0.980374 S    
O10   C6    1.296751 A    
O16   Zn3   1.998547 S    
C24   C30   1.383285 A    
N13   O42   1.300571 A    
N9    O33   1.301256 A    
O8    Zn1   1.998547 S    
C15   O23   1.370433 S    
N6    O28   1.300613 A    
C17   C34   1.407989 A    
C13   C16   1.411674 A    
N17   O50   1.301415 A    
C14   C15   1.411673 A    
C29   C40   1.405845 A    
C29   N17   1.439215 S    
N19   O54   1.300419 A    
C30   C39   1.405883 A    
N3    C14   1.380730 A    
C9    C12   1.411672 A    
C23   N11   1.429196 S    
N14   O43   1.301182 A    
O13   C7    1.291949 A    
O3    C2    1.291969 A    
C10   C11   1.411673 A    
O14   C8    1.291951 A    
O3    Zn1   2.029759 S    
C5    C40   1.436873 S    
C6    C39   1.436955 S    
C7    C38   1.436882 S    
C20   C34   1.405818 A    
C31   C39   1.408095 A    
N20   O56   1.300535 A    
C32   C40   1.408022 A    
C32   N20   1.429148 S    
C12   O20   1.370428 S    
N1    C10   1.380729 A    
C23   C29   1.383333 A    
O11   Zn3   2.029759 S    
N9    O34   1.301357 A    
O7    Zn2   1.998545 S    
O12   Zn4   2.029759 S    
C26   N14   1.429147 S    
O19   H3    0.980373 S    
C18   C33   1.408083 A    
N5    O26   1.300542 A    
N18   O52   1.301567 A    
C24   C36   1.408116 A    
C14   O22   1.376443 S    
C3    C34   1.436808 S    
N1    Zn1   2.031136 S    
C31   N19   1.429214 S    
O8    C3    1.296679 A    
N3    Zn3   2.031136 S    
O18   H2    0.976268 S    
N4    Zn4   2.031136 S    
C18   N6    1.429246 S    
N6    O27   1.301306 A    
O9    Zn3   1.998589 S    
C19   C25   1.383276 A    
C25   N13   1.429269 S    
N1    C12   1.371519 A    
N4    C15   1.371524 A    
O12   C5    1.291990 A    
O7    C4    1.296727 A    
N5    O25   1.301237 A    
N10   O36   1.301489 A    
O22   H6    0.976270 S    
N2    C11   1.371523 A    
N2    C9    1.380728 A    
N8    O32   1.301503 A    
N11   O37   1.301287 A    
N3    C16   1.371520 A    
C17   N5    1.429117 S    
N10   O35   1.301347 A    
O1    Zn1   1.998589 S    
C16   O24   1.370431 S    
N15   O46   1.301482 A    
N12   O40   1.300633 A    
C21   C31   1.383303 A    
O4    C1    1.291964 A    
O15   C8    1.296719 A    
N11   O38   1.300593 A    
N2    Zn2   2.031136 S    
O16   C7    1.296760 A    
N7    O30   1.301531 A    
C20   N8    1.439220 S    
N18   O51   1.301383 A    
O5    Zn2   2.029702 S    
C20   C26   1.383320 A    
C13   O21   1.376443 S    
C27   N15   1.439235 S    
C25   C38   1.408091 A    
O15   Zn4   1.998545 S    
C10   O18   1.376443 S    
N16   O48   1.301407 A    
O5    C3    1.291978 A    
C28   N16   1.439234 S    
O6    C4    1.291981 A    
N13   O41   1.301260 A    
O11   C6    1.291994 A    
O1    C1    1.296781 A    
C24   N12   1.429318 S    
O2    Zn2   1.998589 S    
C19   N7    1.439203 S    
O20   H4    0.980371 S    
C28   C38   1.405874 A    
N17   O49   1.301280 A    
O9    C5    1.296704 A    
N8    O31   1.301374 A    
N4    C13   1.380730 A    
N20   O55   1.301229 A    
N14   O44   1.300485 A    
N12   O39   1.301311 A    
C19   C33   1.405871 A    
C1    C36   1.436952 S    
C23   C35   1.408046 A    
O24   H8    0.980372 S    
O10   Zn4   1.998589 S    
C2    C35   1.436888 S    
O6    Zn1   2.029700 S    
C22   N10   1.439243 S    
C11   O19   1.370432 S    
O17   H1    0.976272 S    
C22   C32   1.383341 A    
C26   C37   1.408023 A    
C4    C33   1.436882 S    
C17   C27   1.383330 A    
O4    Zn2   2.029759 S    
C18   C28   1.383292 A    
