data_mof_unit_66578.cif
_audit_creation_date              2012-12-11T17:19:15-0500
_audit_creation_method            fapswitch 2.2
_symmetry_space_group_name_H-M    P1
_symmetry_Int_Tables_number       1
_space_group_crystal_system       triclinic
_cell_length_a                    15.310622
_cell_length_b                    7.558309
_cell_length_c                    13.704278
_cell_angle_alpha                 90.278107
_cell_angle_beta                  99.913398
_cell_angle_gamma                 90.093309
_cell_volume                      1562.19001107

loop_
_atom_site_label
_atom_site_type_symbol
_atom_type_description
_atom_site_fract_x
_atom_site_fract_y
_atom_site_fract_z
_atom_type_partial_charge
O1    O     O_R   0.648180 0.355050 0.151550 -0.537187
O2    O     O_R   0.351820 0.644950 0.848450 -0.532973
O3    O     O_R   0.851820 0.855050 0.348450 -0.532471
O4    O     O_R   0.148180 0.144950 0.651550 -0.531814
O5    O     O_R   0.835240 0.681980 0.154280 -0.545897
O6    O     O_R   0.164760 0.318020 0.845720 -0.545185
O7    O     O_R   0.664760 0.181980 0.345720 -0.538717
O8    O     O_R   0.335240 0.818020 0.654280 -0.546408
C1    C     C_R   0.861241 0.513879 0.128984 0.636082
C2    C     C_R   0.143087 0.485951 0.873499 0.671280
C3    C     C_R   0.637438 0.015313 0.369437 0.645806
C4    C     C_R   0.356885 0.985504 0.626598 0.673500
O9    O     O_R   0.647870 0.684600 0.139630 -0.537658
O10   O     O_R   0.352130 0.315400 0.860370 -0.540695
O11   O     O_R   0.852130 0.184600 0.360370 -0.535705
O12   O     O_R   0.147870 0.815400 0.639630 -0.543007
O13   O     O_R   0.663110 0.857440 0.333700 -0.536418
O14   O     O_R   0.336890 0.142560 0.666300 -0.546405
O15   O     O_R   0.836890 0.357440 0.166300 -0.537476
O16   O     O_R   0.163110 0.642560 0.833700 -0.547616
C5    C     C_R   0.614332 0.515765 0.115173 0.702682
C6    C     C_R   0.385708 0.483816 0.885055 0.704455
C7    C     C_R   0.885624 0.016380 0.385034 0.699651
C8    C     C_R   0.113825 0.983313 0.615505 0.707100
O17   O     O_3   0.755220 0.522230 0.313690 -0.393914
O18   O     O_3   0.244780 0.477770 0.686310 -0.400576
O19   O     O_3   0.744780 0.022230 0.186310 -0.387645
O20   O     O_3   0.255220 0.977770 0.813690 -0.400210
V1    V     V_3+5 0.749030 0.796100 0.238190 1.329182
V2    V     V_3+5 0.250970 0.203900 0.761810 1.320242
V3    V     V_3+5 0.750970 0.296100 0.261810 1.334635
V4    V     V_3+5 0.249030 0.703900 0.738190 1.316238
C9    C     C_1   0.967162 0.005541 0.465549 -0.173952
C10   C     C_1   0.033695 0.994241 0.533012 -0.209609
C11   C     C_1   0.531791 0.504394 0.035963 -0.186418
C12   C     C_1   0.465061 0.494862 0.968553 -0.208659
C13   C     C_R   0.534827 0.970196 0.701713 0.007881
C14   C     C_R   0.437108 0.043631 0.275051 -0.012917
C15   C     C_R   0.962823 0.478671 0.800266 0.007319
C16   C     C_R   0.063461 0.543712 0.226409 -0.012909
C17   C     C_R   0.597232 0.846916 0.740607 0.151164
C18   C     C_R   0.345755 0.068715 0.231049 0.101309
C19   C     C_R   0.901799 0.353129 0.759181 0.147389
C20   C     C_R   0.155175 0.568175 0.270427 0.100609
C21   C     C_R   0.668653 0.817763 0.691453 0.099956
C22   C     C_R   0.279013 0.058537 0.290826 0.087195
C23   C     C_R   0.836554 0.299568 0.813165 0.116120
C24   C     C_R   0.221999 0.558892 0.210583 0.087523
C25   C     C_R   0.661612 0.880056 0.590292 0.046744
C26   C     C_R   0.304759 0.036817 0.395616 0.058502
C27   C     C_R   0.849295 0.336220 0.918297 0.040528
C28   C     C_R   0.196028 0.537434 0.105718 0.058365
C29   C     C_R   0.579319 0.956100 0.537078 0.013449
C30   C     C_R   0.396798 0.021735 0.444632 -0.014716
C31   C     C_R   0.923950 0.442864 0.966115 0.017532
C32   C     C_R   0.104004 0.521926 0.056716 -0.013350
C33   C     C_R   0.511996 0.983656 0.596145 -0.049456
C34   C     C_R   0.465703 0.024172 0.383128 -0.017578
C35   C     C_R   0.988127 0.484548 0.905789 -0.054889
C36   C     C_R   0.035099 0.523710 0.118451 -0.014774
C37   C     C_R   0.560325 0.000544 0.430747 -0.113418
C38   C     C_R   0.421575 0.001713 0.552676 -0.099762
C39   C     C_R   0.940829 0.495946 0.070793 -0.117434
C40   C     C_R   0.078871 0.503199 0.948315 -0.100862
C41   C     C_3   0.576300 0.732556 0.824336 -0.341538
C42   C     C_3   0.639153 0.755687 0.922721 -0.719551
H1    H     H_    0.673746 0.629865 0.945841 0.200295
H2    H     H_    0.688527 0.859358 0.921188 0.217895
H3    H     H_    0.600379 0.798668 0.978943 0.234547
H4    H     H_    0.508168 0.759705 0.837470 0.198518
H5    H     H_    0.572310 0.593317 0.800164 0.154709
C43   C     C_3   0.325815 0.118351 0.119453 -0.353953
C44   C     C_3   0.236938 0.123714 0.045446 -0.823623
H6    H     H_    0.194419 0.006106 0.040574 0.213752
H7    H     H_    0.193392 0.232245 0.054336 0.228002
H8    H     H_    0.253691 0.138988 0.970854 0.273090
H9    H     H_    0.363107 0.237543 0.111527 0.185879
H10   H     H_    0.357878 0.020849 0.081867 0.228905
C45   C     C_3   0.922277 0.248932 0.670624 -0.341591
C46   C     C_3   0.857103 0.277834 0.575324 -0.752063
H11   H     H_    0.832551 0.149765 0.544073 0.204038
H12   H     H_    0.799034 0.352855 0.588109 0.221829
H13   H     H_    0.889783 0.348350 0.521398 0.238520
H14   H     H_    0.989671 0.278862 0.656038 0.202612
H15   H     H_    0.926059 0.107419 0.689230 0.144979
C47   C     C_3   0.175588 0.616434 0.382186 -0.358801
C48   C     C_3   0.264447 0.621808 0.456141 -0.822109
H16   H     H_    0.307225 0.505009 0.459738 0.214687
H17   H     H_    0.307519 0.732099 0.448693 0.227607
H18   H     H_    0.247468 0.635137 0.530743 0.274196
H19   H     H_    0.139847 0.736847 0.390409 0.185655
H20   H     H_    0.142590 0.519379 0.418868 0.227467
C49   C     C_3   0.496309 0.092473 0.773197 -0.282089
C50   C     C_3   0.556517 0.138863 0.869112 -0.822191
H21   H     H_    0.537038 0.059956 0.927844 0.240203
H22   H     H_    0.624662 0.109162 0.866413 0.246162
H23   H     H_    0.552715 0.280173 0.886513 0.227964
H24   H     H_    0.479166 0.220831 0.735608 0.198529
H25   H     H_    0.438083 0.028723 0.796795 0.216082
C51   C     C_3   0.508661 0.035872 0.209445 -0.348149
C52   C     C_3   0.510235 0.032173 0.099055 -0.848639
H26   H     H_    0.580986 0.030248 0.090304 0.258216
H27   H     H_    0.481036 0.909063 0.063069 0.215417
H28   H     H_    0.482502 0.153573 0.061220 0.239744
H29   H     H_    0.545482 0.158747 0.229117 0.236810
H30   H     H_    0.538186 0.905392 0.227256 0.229150
C53   C     C_3   0.003064 0.603148 0.732152 -0.272626
C54   C     C_3   0.945261 0.671705 0.640080 -0.813180
H31   H     H_    0.980243 0.655694 0.577592 0.236540
H32   H     H_    0.883239 0.600679 0.621715 0.255158
H33   H     H_    0.934647 0.814994 0.647165 0.210730
H34   H     H_    0.024367 0.725206 0.775237 0.201662
H35   H     H_    0.058115 0.534056 0.704795 0.209345
C55   C     C_3   0.991209 0.535824 0.291464 -0.343950
C56   C     C_3   0.990348 0.541150 0.402299 -0.840524
H36   H     H_    0.018195 0.419696 0.440672 0.220083
H37   H     H_    0.020138 0.664130 0.436167 0.229900
H38   H     H_    0.920204 0.546096 0.412476 0.250834
H39   H     H_    0.953913 0.656708 0.270265 0.237235
H40   H     H_    0.961214 0.404985 0.274404 0.229342
C57   C     C_3   0.182125 0.075782 0.234508 -0.300080
C58   C     C_3   0.090414 0.077681 0.265978 -0.839406
H41   H     H_    0.070091 0.945581 0.288836 0.225858
H42   H     H_    0.083188 0.181873 0.320659 0.248778
H43   H     H_    0.041093 0.110842 0.199945 0.214182
H44   H     H_    0.181438 0.207187 0.200914 0.220914
H45   H     H_    0.174235 0.962678 0.182639 0.210062
C59   C     C_3   0.749560 0.715801 0.747395 -0.344856
C60   C     C_3   0.825615 0.824037 0.804184 -0.815594
H46   H     H_    0.852293 0.917094 0.756202 0.227017
H47   H     H_    0.807757 0.889524 0.868735 0.224007
H48   H     H_    0.879591 0.738965 0.837848 0.243618
H49   H     H_    0.730787 0.626072 0.802496 0.220520
H50   H     H_    0.777697 0.627978 0.698136 0.204103
C61   C     C_3   0.319252 0.576164 0.266919 -0.301107
C62   C     C_3   0.411291 0.580562 0.235753 -0.834712
H51   H     H_    0.431727 0.449172 0.211668 0.224044
H52   H     H_    0.417660 0.684637 0.181254 0.249147
H53   H     H_    0.461455 0.614103 0.302091 0.221505
H54   H     H_    0.320023 0.706841 0.302002 0.221915
H55   H     H_    0.327144 0.462102 0.317457 0.209905
C63   C     C_3   0.754735 0.205447 0.755405 -0.367664
C64   C     C_3   0.674674 0.321674 0.731064 -0.847358
H56   H     H_    0.618806 0.247999 0.689648 0.252060
H57   H     H_    0.658752 0.375787 0.800387 0.239047
H58   H     H_    0.684069 0.423577 0.679562 0.222677
H59   H     H_    0.766077 0.143278 0.686495 0.215094
H60   H     H_    0.733577 0.093226 0.792358 0.206961
C65   C     C_3   0.735964 0.826574 0.539547 -0.360689
C66   C     C_3   0.720029 0.639561 0.498711 -0.591228
H61   H     H_    0.698753 0.552390 0.552819 0.156455
H62   H     H_    0.663735 0.628011 0.437001 0.245429
H63   H     H_    0.782396 0.589708 0.479387 0.218766
H64   H     H_    0.754570 0.920102 0.487063 0.164760
H65   H     H_    0.797085 0.835122 0.592612 0.171206
C67   C     C_3   0.230536 0.044198 0.453753 -0.338896
C68   C     C_3   0.209603 0.230993 0.473086 -0.726583
H66   H     H_    0.256878 0.288227 0.534130 0.274373
H67   H     H_    0.214161 0.297310 0.403212 0.241794
H68   H     H_    0.141270 0.247171 0.486977 0.216946
H69   H     H_    0.171572 0.989024 0.414609 0.207832
H70   H     H_    0.232499 0.953174 0.513887 0.161883
C69   C     C_3   0.805046 0.210552 0.980042 -0.303746
C70   C     C_3   0.872696 0.078136 0.033564 -0.658430
H71   H     H_    0.916076 0.027207 0.982631 0.196174
H72   H     H_    0.916273 0.138361 0.097107 0.225377
H73   H     H_    0.838134 0.963535 0.059264 0.236200
H74   H     H_    0.761077 0.279783 0.022623 0.194867
H75   H     H_    0.755573 0.127191 0.938111 0.136001
C71   C     C_3   0.270068 0.544108 0.047558 -0.340465
C72   C     C_3   0.290759 0.730820 0.028313 -0.730510
H76   H     H_    0.243343 0.786622 0.967366 0.273364
H77   H     H_    0.286548 0.798392 0.098295 0.241955
H78   H     H_    0.358786 0.747030 0.013835 0.217731
H79   H     H_    0.329050 0.489150 0.086648 0.209821
H80   H     H_    0.267170 0.453023 0.986835 0.163509

loop_
_geom_bond_atom_site_label_1
_geom_bond_atom_site_label_2
_ccdc_geom_bond_type
O17   V3    S    
C64   H58   S    
C42   H2    S    
C72   H76   S    
O1    C5    A    
C68   H66   S    
C16   C36   A    
C31   C35   A    
O19   V1    S    
O13   V1    S    
C44   H6    S    
C24   C61   S    
O3    C7    A    
C69   C70   S    
C48   H16   S    
O4    V2    S    
O15   V3    S    
C59   C60   S    
C55   C56   S    
C26   C67   S    
C61   C62   S    
C71   H80   S    
O7    C3    A    
C72   H77   S    
C23   C63   S    
C51   H29   S    
C52   H26   S    
C36   C39   A    
O9    V1    S    
C70   H71   S    
C64   H56   S    
C14   C18   A    
C47   H19   S    
C46   H13   S    
C30   C34   A    
C45   H14   S    
O4    C8    A    
C42   H3    S    
C71   C72   S    
C21   C59   S    
C19   C45   S    
C56   H36   S    
O1    V3    S    
C54   H31   S    
O2    V4    S    
C18   C22   A    
C52   H27   S    
O3    V1    S    
C53   H35   S    
C43   H10   S    
C14   C34   A    
C29   C37   A    
C1    O15   A    
C16   C55   S    
C11   C12   T    
C2    O16   A    
C56   H37   S    
C66   H63   S    
C31   C39   A    
O2    C6    A    
C53   C54   S    
C32   C40   A    
C22   C57   S    
C27   C69   S    
O14   V2    S    
C21   C25   A    
C49   H25   S    
C16   C20   A    
C55   H39   S    
C60   H48   S    
C34   C37   A    
O11   C7    A    
C42   H1    S    
C67   H70   S    
O12   C8    A    
C13   C17   A    
C44   H7    S    
O10   V2    S    
C62   H53   S    
C20   C47   S    
O5    V1    S    
C71   H79   S    
C61   H54   S    
C72   H78   S    
O7    V3    S    
O9    C5    A    
O8    V4    S    
C63   H60   S    
C33   C38   A    
C46   H12   S    
C28   C71   S    
C29   C33   A    
C47   C48   S    
C43   C44   S    
C23   C27   A    
C30   C38   A    
C50   H23   S    
C7    C9    S    
C41   H5    S    
O11   V3    S    
C8    C10   S    
C32   C36   A    
C15   C53   S    
C65   H64   S    
O5    C1    A    
C43   H9    S    
C59   H50   S    
C4    C38   S    
C24   C28   A    
O8    C4    A    
C56   H38   S    
C15   C35   A    
C18   C43   S    
C9    C10   T    
C35   C40   A    
C13   C49   S    
C53   H34   S    
C26   C30   A    
C50   H22   S    
C57   C58   S    
C14   C51   S    
O6    V2    S    
C67   H69   S    
C52   H28   S    
C48   H17   S    
C44   H8    S    
C66   H62   S    
O12   V4    S    
C58   H42   S    
C45   H15   S    
C62   H52   S    
C60   H46   S    
O16   V4    S    
C64   H57   S    
C67   C68   S    
C1    C39   S    
C63   H59   S    
C70   H73   S    
C2    C40   S    
C46   H11   S    
C3    C37   S    
C3    O13   A    
O6    C2    A    
C15   C19   A    
C57   H45   S    
C5    C11   S    
C68   H68   S    
C6    C12   S    
C49   C50   S    
C22   C26   A    
C51   H30   S    
C66   H61   S    
C54   H33   S    
C25   C65   S    
O10   C6    A    
C58   H43   S    
O20   V2    S    
C69   H74   S    
C65   H65   S    
C57   H44   S    
C47   H20   S    
C65   C66   S    
C28   C32   A    
C25   C29   A    
C70   H72   S    
C51   C52   S    
C54   H32   S    
C27   C31   A    
C17   C41   S    
C50   H21   S    
C69   H75   S    
C55   H40   S    
C45   C46   S    
C20   C24   A    
C61   H55   S    
C68   H67   S    
C41   C42   S    
C48   H18   S    
C4    O14   A    
C17   C21   A    
C63   C64   S    
C62   H51   S    
C58   H41   S    
C59   H49   S    
C19   C23   A    
C49   H24   S    
O18   V4    S    
C13   C33   A    
C41   H4    S    
C60   H47   S    
