data_mof_unit_11174.cif
_audit_creation_date              2012-12-11T15:55:42-0500
_audit_creation_method            fapswitch 2.2
_symmetry_space_group_name_H-M    P1
_symmetry_Int_Tables_number       1
_space_group_crystal_system       triclinic
_cell_length_a                    6.943552
_cell_length_b                    14.530406
_cell_length_c                    16.113698
_cell_angle_alpha                 89.947946
_cell_angle_beta                  89.962052
_cell_angle_gamma                 89.969552
_cell_volume                      1625.75210791

loop_
_atom_site_label
_atom_site_type_symbol
_atom_type_description
_atom_site_fract_x
_atom_site_fract_y
_atom_site_fract_z
_atom_type_partial_charge
O1    O     O_R   0.505680 0.583900 0.413320 -0.542431
O2    O     O_R   0.176010 0.594950 0.586080 -0.510482
O3    O     O_R   0.005680 0.416100 0.586680 -0.546920
C1    C     C_R   0.344819 0.617477 0.614749 0.742503
O4    O     O_R   0.175960 0.594930 0.413930 -0.504620
O5    O     O_R   0.005640 0.416080 0.413300 -0.499530
C2    C     C_R   0.344725 0.616951 0.384982 0.839866
O6    O     O_R   0.505720 0.583920 0.586700 -0.552725
O7    O     O_3   0.339190 0.441320 0.500000 -0.377564
V1    V     V_3+5 0.064350 0.510890 0.500000 1.609030
O8    O     O_R   0.675920 0.405050 0.413920 -0.542682
C3    C     C_R   0.845297 0.382973 0.384799 0.762885
O9    O     O_R   0.675960 0.405070 0.586070 -0.556762
C4    C     C_R   0.844725 0.382987 0.614847 0.679317
V2    V     V_3+5 0.564340 0.489110 0.500000 1.503003
O10   O     O_3   0.839370 0.558680 0.500000 -0.358226
C5    C     C_R   0.009902 0.252516 0.689457 -0.054117
C6    C     C_R   0.852955 0.312588 0.681490 -0.076205
C7    C     C_R   0.702252 0.303668 0.739480 -0.137666
H1    H     H_    0.579897 0.349524 0.736594 0.131119
C8    C     C_R   0.715036 0.240396 0.805638 -0.062005
H2    H     H_    0.603158 0.239010 0.852032 0.203359
C9    C     C_R   0.877468 0.183688 0.815535 -0.128879
C10   C     C_R   0.021621 0.189548 0.755058 0.054279
C11   C     C_3   0.229603 0.209606 0.767142 1.080729
C12   C     C_3   0.218395 0.275978 0.694714 -0.474531
H3    H     H_    0.299502 0.252563 0.639097 0.173155
H4    H     H_    0.242299 0.349034 0.712405 0.157557
C13   C     C_R   0.043830 0.232598 0.210207 -0.223540
H5    H     H_    0.181377 0.220814 0.180292 0.147355
C14   C     C_R   0.034023 0.296805 0.274817 0.633714
C15   C     C_R   0.857715 0.314661 0.315765 -0.173529
C16   C     C_R   0.692789 0.266635 0.289506 -0.206249
H6    H     H_    0.555328 0.277920 0.319513 0.205352
C17   C     C_R   0.702999 0.202876 0.224469 -0.149648
H7    H     H_    0.572834 0.167140 0.206334 0.132983
C18   C     C_R   0.878773 0.185002 0.183947 -0.130612
C19   C     C_R   0.192113 0.738038 0.706869 0.545291
C20   C     C_R   0.203170 0.801771 0.771789 0.563778
C21   C     C_R   0.377515 0.815726 0.815153 -0.265778
C22   C     C_R   0.540193 0.764727 0.790917 -0.173134
H8    H     H_    0.676380 0.773423 0.822640 0.219645
C23   C     C_R   0.529049 0.700983 0.725952 -0.184000
H9    H     H_    0.657118 0.662400 0.709789 0.211275
C24   C     C_R   0.354985 0.686389 0.683144 -0.265330
C25   C     C_R   0.195774 0.701844 0.264362 0.572237
C26   C     C_R   0.208688 0.764875 0.198856 0.522496
C27   C     C_R   0.379871 0.814745 0.184364 -0.386666
C28   C     C_R   0.538723 0.799768 0.237792 0.470585
C29   C     C_R   0.526178 0.734241 0.301724 -0.276169
H10   H     H_    0.651027 0.722755 0.340684 0.213529
C30   C     C_R   0.354825 0.685468 0.316455 -0.349176
O11   O     O_R   0.229200 0.915950 0.913350 -0.501972
O12   O     O_R   0.559090 0.905000 0.086080 -0.515416
O13   O     O_R   0.729280 0.083880 0.086680 -0.554905
C31   C     C_R   0.390258 0.882811 0.115079 0.774440
O14   O     O_R   0.558920 0.904980 0.913920 -0.543733
O15   O     O_R   0.729110 0.083860 0.913300 -0.537361
C32   C     C_R   0.389758 0.883265 0.884612 0.804077
O16   O     O_R   0.229360 0.915970 0.086730 -0.518605
O17   O     O_3   0.395680 0.058580 0.000030 -0.384210
V3    V     V_3+5 0.670570 0.989070 0.999990 1.605500
O18   O     O_R   0.058820 0.094950 0.913870 -0.512130
C33   C     C_R   0.889805 0.117269 0.885338 0.754188
O19   O     O_R   0.058990 0.094970 0.086020 -0.556642
C34   C     C_R   0.889884 0.116896 0.115088 0.687684
V4    V     V_3+5 0.170560 0.010930 0.999930 1.620522
O20   O     O_3   0.895590 0.941310 0.999960 -0.339387
F1    F     F_    0.021548 0.728350 0.666667 -0.663299
F2    F     F_    0.042517 0.850724 0.790894 -0.655804
F3    F     F_    0.028695 0.654669 0.274781 -0.632232
F4    F     F_    0.054162 0.774819 0.148047 -0.599474
O21   O     O_3   0.710541 0.845870 0.225790 -0.485710
C35   C     C_3   0.714190 0.923199 0.278524 -0.147162
H11   H     H_    0.592526 0.970909 0.265086 0.080315
H12   H     H_    0.849866 0.961537 0.267220 0.143484
H13   H     H_    0.712553 0.902308 0.344988 0.120312
F5    F     F_    0.345260 0.133733 0.752498 -0.691388
F6    F     F_    0.264554 0.252513 0.842314 -0.722788
F7    F     F_    0.197661 0.342046 0.296034 -0.694170

loop_
_geom_bond_atom_site_label_1
_geom_bond_atom_site_label_2
_ccdc_geom_bond_type
O15   V3    S    
O21   C35   S    
C4    C6    S    
C17   H7    S    
C1    O6    A    
O11   C32   A    
C14   F7    S    
C12   H3    S    
C35   H12   S    
C5    C12   S    
C7    C8    A    
C2    C30   S    
O5    C3    A    
C19   C20   A    
O14   C32   A    
V2    O10   S    
O13   V3    S    
C25   C30   A    
C6    C7    A    
C22   H8    S    
C19   C24   A    
O8    V2    S    
C7    H1    S    
O16   V4    S    
O19   V4    S    
C35   H13   S    
C29   C30   A    
C9    C10   A    
O1    V2    S    
O7    V1    S    
C19   F1    S    
C21   C32   S    
C11   F6    S    
O9    C4    A    
C3    C15   S    
C22   C23   A    
C16   H6    S    
O12   C31   A    
C1    C24   S    
O15   C33   A    
O18   V4    S    
C5    C10   A    
C35   H11   S    
V4    O20   S    
O14   V3    S    
C10   C11   S    
C20   C21   A    
O4    C2    A    
O12   V3    S    
C29   H10   S    
C11   C12   S    
C11   F5    S    
O2    C1    A    
C23   H9    S    
C13   H5    S    
O17   V4    S    
C26   C27   A    
C18   C34   S    
C5    C6    A    
C23   C24   A    
C25   F3    S    
O3    C4    A    
C21   C22   A    
O19   C34   A    
O6    V2    S    
C8    C9    A    
C28   O21   S    
O2    V1    S    
O13   C34   A    
C27   C31   S    
C25   C26   A    
C9    C33   S    
C17   C18   A    
O1    C2    A    
C14   C15   A    
O5    V1    S    
O8    C3    A    
C12   H4    S    
V3    O20   S    
C15   C16   A    
O9    V2    S    
O7    V2    S    
O4    V1    S    
C13   C14   A    
O3    V1    S    
V1    O10   S    
C27   C28   A    
C16   C17   A    
C20   F2    S    
O17   V3    S    
O11   V4    S    
C26   F4    S    
O18   C33   A    
C31   O16   A    
C28   C29   A    
C13   C18   A    
C8    H2    S    
