data_mof_unit_52280.cif
_audit_creation_date              2012-10-26T20:35:44-0400
_audit_creation_method            fapswitch 2.2
_symmetry_space_group_name_H-M    P1
_symmetry_Int_Tables_number       1
_space_group_crystal_system       triclinic
_cell_length_a                    8.790889
_cell_length_b                    15.889411
_cell_length_c                    17.10345
_cell_angle_alpha                 96.012839
_cell_angle_beta                  93.424538
_cell_angle_gamma                 83.871332
_cell_volume                      2359.47313102

loop_
_atom_site_label
_atom_site_type_symbol
_atom_type_description
_atom_site_fract_x
_atom_site_fract_y
_atom_site_fract_z
_atom_type_partial_charge
C1    C     C_R   0.504154 0.489451 0.348789 0.514429
C2    C     C_R   0.367509 0.161741 0.437220 -0.095272
C3    C     C_R   0.639181 0.746256 0.550100 0.355953
C4    C     C_R   0.375818 0.251206 0.440732 0.353403
C5    C     C_R   0.205892 0.521613 0.499445 0.561002
C6    C     C_R   0.793974 0.478248 0.499736 0.554848
C7    C     C_2   0.040918 0.532116 0.492168 0.239661
C8    C     C_2   0.958970 0.467065 0.505133 0.227846
C9    C     C_R   0.516777 0.483486 0.263091 -0.046023
C10   C     C_R   0.491661 0.516328 0.737341 -0.044268
C11   C     C_R   0.510840 0.557624 0.224919 -0.198242
C12   C     C_R   0.497540 0.510459 0.651296 0.526058
C13   C     C_R   0.481891 0.443112 0.775062 -0.194304
C14   C     C_R   0.515247 0.552742 0.143627 -0.147218
C15   C     C_R   0.483856 0.447648 0.856645 -0.148078
C16   C     C_R   0.528497 0.472913 0.098562 0.239083
C17   C     C_R   0.494787 0.526185 0.902268 0.237702
C18   C     C_R   0.545916 0.398393 0.136912 0.286116
C19   C     C_R   0.499433 0.600132 0.864750 0.287949
C20   C     C_R   0.537936 0.404000 0.218906 -0.147481
C21   C     C_R   0.494522 0.595144 0.782482 -0.144704
C22   C     C_3   0.950897 0.606595 0.389675 -0.089982
C23   C     C_R   0.399017 0.762906 0.478913 0.345434
C24   C     C_3   0.036124 0.385614 0.604605 -0.093477
C25   C     C_3   0.708830 0.280917 0.103635 -0.125254
C26   C     C_3   0.647566 0.705556 0.908938 -0.125177
C27   C     C_3   0.697135 0.265413 0.660949 -0.090902
C28   C     C_3   0.283939 0.714256 0.361500 -0.092120
C29   C     C_3   0.831509 0.089352 0.524309 -0.108320
C30   C     C_3   0.180289 0.904448 0.418469 -0.084218
C31   C     C_R   0.787313 0.871322 0.594372 0.036898
C32   C     C_R   0.767965 0.934593 0.657995 -0.056947
C33   C     C_R   0.895269 0.963271 0.701581 -0.119354
C34   C     C_R   0.584399 0.242122 0.535769 0.360779
C35   C     C_R   0.042659 0.927697 0.683372 -0.118411
C36   C     C_R   0.062966 0.863903 0.621158 -0.077006
C37   C     C_R   0.936379 0.836815 0.575821 -0.062985
C38   C     C_R   0.248510 0.122341 0.384964 0.061045
C39   C     C_R   0.092853 0.150176 0.394031 -0.081661
C40   C     C_R   0.981227 0.119045 0.340212 -0.148600
C41   C     C_R   0.024214 0.060104 0.276908 -0.129867
C42   C     C_R   0.178915 0.032364 0.267237 -0.142260
C43   C     C_R   0.290901 0.063272 0.321025 -0.100871
C44   C     C_3   0.739021 0.709366 0.670639 -0.094114
C45   C     C_R   0.397763 0.853342 0.490136 0.237703
C46   C     C_3   0.292279 0.285477 0.316310 -0.086770
C47   C     C_R   0.587840 0.151765 0.529404 0.231155
C48   C     C_R   0.530990 0.889275 0.521078 0.118008
C49   C     C_R   0.473473 0.110754 0.482435 0.113963
C50   C     C_R   0.651814 0.835206 0.552879 -0.103531
Cu1   Cu    Cu3+1 0.492520 0.415770 0.496210 1.047411
Cu2   Cu    Cu3+1 0.507480 0.584230 0.503790 1.030505
H1    H     H_    0.471758 0.382216 0.741638 0.132134
H2    H     H_    0.088390 0.321759 0.618101 0.140957
H3    H     H_    0.920308 0.395733 0.628953 0.132219
H4    H     H_    0.109866 0.433358 0.634342 0.098476
H5    H     H_    0.731894 0.262804 0.164615 0.104324
H6    H     H_    0.795345 0.322381 0.088839 0.122979
H7    H     H_    0.721906 0.221625 0.063125 0.140490
H8    H     H_    0.673195 0.720844 0.849427 0.090330
H9    H     H_    0.737592 0.657622 0.930760 0.124174
H10   H     H_    0.651189 0.764716 0.949367 0.141056
H11   H     H_    0.789257 0.213944 0.671700 0.155449
H12   H     H_    0.501414 0.619755 0.257568 0.123165
H13   H     H_    0.585501 0.248601 0.679324 0.102093
H14   H     H_    0.726845 0.322567 0.699332 0.110116
H15   H     H_    0.280845 0.645922 0.342239 0.153085
H16   H     H_    0.387545 0.736803 0.338973 0.067295
H17   H     H_    0.181544 0.746139 0.331806 0.077037
H18   H     H_    0.805157 0.054470 0.465985 0.117509
H19   H     H_    0.921204 0.048981 0.555378 0.168354
H20   H     H_    0.879337 0.149800 0.517102 0.133853
H21   H     H_    0.255824 0.892286 0.367648 0.108254
H22   H     H_    0.114391 0.967280 0.414519 0.152631
H23   H     H_    0.476256 0.389733 0.883742 0.155800
H24   H     H_    0.093449 0.858450 0.415984 0.140830
H25   H     H_    0.654358 0.960475 0.674955 0.137785
H26   H     H_    0.879461 0.012093 0.750318 0.109821
H27   H     H_    0.141043 0.948910 0.717983 0.117269
H28   H     H_    0.176857 0.834688 0.608724 0.162979
H29   H     H_    0.954220 0.787242 0.527815 0.188098
H30   H     H_    0.058907 0.197674 0.441546 0.159789
H31   H     H_    0.861562 0.141180 0.347208 0.103437
H32   H     H_    0.937750 0.036190 0.235197 0.108055
H33   H     H_    0.212122 0.987047 0.217970 0.106633
H34   H     H_    0.506907 0.611665 0.116357 0.154352
H35   H     H_    0.410531 0.042533 0.312020 0.107357
H36   H     H_    0.626787 0.742034 0.689836 0.080188
H37   H     H_    0.832095 0.747314 0.696048 0.121802
H38   H     H_    0.757218 0.647434 0.696024 0.131330
H39   H     H_    0.201113 0.247850 0.288072 0.132117
H40   H     H_    0.406544 0.252133 0.301340 0.084546
H41   H     H_    0.278261 0.346734 0.289782 0.140324
H42   H     H_    0.548570 0.346155 0.247673 0.121934
H43   H     H_    0.492578 0.653044 0.754357 0.127732
H44   H     H_    0.058326 0.583443 0.359553 0.088391
H45   H     H_    0.913856 0.671661 0.373346 0.133021
H46   H     H_    0.859649 0.565438 0.367783 0.113927
N1    N     N_2   0.525274 0.464860 0.015061 -0.221537
N2    N     N_2   0.499615 0.533832 0.985655 -0.223902
N3    N     N_R   0.518730 0.710760 0.509500 -0.243350
N4    N     N_R   0.481270 0.289240 0.490500 -0.239363
N5    N     N_2   0.542721 0.979652 0.526767 -0.151339
N6    N     N_2   0.461770 0.020086 0.477489 -0.180346
O1    O     O_R   0.493000 0.421040 0.382520 -0.496618
O2    O     O_3   0.028572 0.388067 0.522237 -0.542948
O3    O     O_3   0.558308 0.319999 0.092973 -0.559299
O4    O     O_3   0.500322 0.678012 0.909142 -0.556612
O5    O     O_3   0.693922 0.283920 0.581784 -0.525646
O6    O     O_3   0.271359 0.727930 0.444163 -0.522824
O7    O     O_3   0.701530 0.104565 0.570061 -0.561883
O8    O     O_3   0.261745 0.906739 0.491721 -0.555191
O9    O     O_3   0.749499 0.694090 0.588071 -0.493278
O10   O     O_3   0.271398 0.302451 0.398046 -0.501487
O11   O     O_R   0.507000 0.578960 0.617480 -0.504433
O12   O     O_R   0.505640 0.563310 0.388930 -0.522656
O13   O     O_R   0.494360 0.436690 0.611070 -0.488374
O14   O     O_R   0.269980 0.445280 0.497530 -0.441020
O15   O     O_R   0.730020 0.554720 0.502470 -0.437480
O16   O     O_R   0.282610 0.587550 0.503940 -0.440247
O17   O     O_R   0.717390 0.412450 0.496060 -0.449105
O18   O     O_3   0.972032 0.610247 0.472396 -0.534095

loop_
_geom_bond_atom_site_label_1
_geom_bond_atom_site_label_2
_ccdc_geom_bond_type
C15   H23   S    
C22   H46   S    
C41   C42   A    
C35   C36   A    
C49   N6    S    
C45   O8    S    
C7    C8    D    
C47   C49   A    
C24   H3    S    
C34   N4    A    
C23   C45   A    
C4    O10   S    
C36   C37   A    
C28   H16   S    
C26   H9    S    
C38   C39   A    
C30   H22   S    
C11   C14   A    
C33   H26   S    
Cu2   O11   S    
C46   H40   S    
C24   H2    S    
Cu1   O14   S    
C18   O3    S    
C33   C35   A    
C32   H25   S    
C28   H17   S    
C4    N4    A    
C34   O5    S    
C1    O12   A    
C29   H20   S    
C19   O4    S    
C3    N3    A    
C48   C50   A    
C22   H45   S    
C40   H31   S    
C37   H29   S    
C25   H5    S    
C3    C50   A    
C22   O18   S    
C13   H1    S    
Cu2   O12   S    
C10   C21   A    
Cu2   N3    S    
C46   O10   S    
C5    O16   A    
Cu1   Cu2   S    
C28   H15   S    
C1    C9    S    
C14   H34   S    
C11   H12   S    
C36   H28   S    
C26   O4    S    
C39   C40   A    
C5    C7    S    
C30   H21   S    
C6    C8    S    
C46   H39   S    
C21   H43   S    
C28   O6    S    
C48   N5    S    
C31   C37   A    
C30   O8    S    
Cu1   N4    S    
C2    C4    A    
C27   H13   S    
C2    C49   A    
C30   H24   S    
C2    C38   S    
C9    C20   A    
N1    N2    D    
Cu1   O1    S    
C42   H33   S    
C9    C11   A    
C10   C12   S    
Cu2   O16   S    
C40   C41   A    
C44   O9    S    
C13   C15   A    
C3    O9    S    
Cu1   O17   S    
C14   C16   A    
C24   O2    S    
C25   H6    S    
C31   C50   S    
C6    O15   A    
C44   H38   S    
C25   O3    S    
C29   H18   S    
C45   C48   A    
C15   C17   A    
C23   O6    S    
C20   H42   S    
C19   C21   A    
C22   H44   S    
C29   O7    S    
C31   C32   A    
C39   H30   S    
C10   C13   A    
C8    O2    S    
C16   N1    S    
C24   H4    S    
C25   H7    S    
C5    O14   A    
C43   H35   S    
C32   C33   A    
C12   O11   A    
C26   H10   S    
C38   C43   A    
C27   H14   S    
C41   H32   S    
C23   N3    A    
C46   H41   S    
C47   O7    S    
C35   H27   S    
C17   C19   A    
C18   C20   A    
C17   N2    S    
C12   O13   A    
Cu2   O15   S    
C27   O5    S    
C16   C18   A    
C42   C43   A    
N5    N6    D    
Cu1   O13   S    
C27   H11   S    
C34   C47   A    
C7    O18   S    
C6    O17   A    
C44   H36   S    
C26   H8    S    
C44   H37   S    
C1    O1    A    
C29   H19   S    
