data_mof_unit_47374.cif
_audit_creation_date              2012-12-10T19:44:24-0500
_audit_creation_method            fapswitch 2.2
_symmetry_space_group_name_H-M    P1
_symmetry_Int_Tables_number       1
_space_group_crystal_system       triclinic
_cell_length_a                    10.886064
_cell_length_b                    12.490677
_cell_length_c                    13.445224
_cell_angle_alpha                 117.559415
_cell_angle_beta                  73.956241
_cell_angle_gamma                 101.328109
_cell_volume                      1552.58310228

loop_
_atom_site_label
_atom_site_type_symbol
_atom_type_description
_atom_site_fract_x
_atom_site_fract_y
_atom_site_fract_z
_atom_type_partial_charge
C1    C     C_R   0.518746 0.854195 0.286683 0.984750
C2    C     C_R   0.640635 0.818488 0.792505 -0.073302
C3    C     C_R   0.035475 0.957865 0.563633 -0.214548
C4    C     C_R   0.130810 0.999997 0.494185 -0.106524
C5    C     C_R   0.097079 0.044304 0.425844 -0.041922
C6    C     C_R   0.967662 0.031534 0.419917 0.326620
C7    C     C_R   0.872108 0.995943 0.496005 -0.144291
C8    C     C_R   0.906855 0.956023 0.566737 -0.015515
C9    C     C_R   0.186725 0.238927 0.409914 0.097558
C10   C     C_R   0.276174 0.304550 0.355404 0.270373
C11   C     C_R   0.375919 0.244580 0.262973 0.293762
C12   C     C_R   0.737379 0.998981 0.498712 0.884268
C13   C     C_R   0.383750 0.120464 0.223227 0.397834
C14   C     C_R   0.286641 0.051983 0.268554 0.229567
C15   C     C_R   0.191911 0.112193 0.366782 -0.116230
C16   C     C_R   0.296709 0.287883 0.016692 0.190842
C17   C     C_R   0.452388 0.230684 0.835951 -0.068794
C18   C     C_R   0.673746 0.780212 0.101196 0.010530
C19   C     C_R   0.739134 0.678333 0.020246 0.124425
C20   C     C_R   0.677579 0.562414 0.995429 0.366786
C21   C     C_R   0.542372 0.548294 0.035617 -0.141214
C22   C     C_R   0.480182 0.648867 0.127507 -0.066589
C23   C     C_R   0.480489 0.145514 0.713337 0.857798
C24   C     C_R   0.469665 0.435739 0.988827 -0.077186
C25   C     C_R   0.349837 0.411474 0.054365 -0.018446
C26   C     C_R   0.287929 0.512378 0.148917 0.058798
C27   C     C_R   0.350813 0.630684 0.181149 0.476732
C28   C     C_R   0.509167 0.349842 0.873428 0.404917
C29   C     C_R   0.353094 0.199396 0.911071 -0.183145
C30   C     C_R   0.550273 0.765335 0.164935 -0.085746
C31   C     C_R   0.728739 0.352984 0.343961 0.451811
C32   C     C_R   0.326215 0.759703 0.651309 0.191261
C33   C     C_R   0.314321 0.683295 0.704525 0.245496
C34   C     C_R   0.263456 0.999441 0.498083 0.840665
C35   C     C_R   0.395806 0.589792 0.655787 0.458703
C36   C     C_R   0.475758 0.562426 0.545818 -0.091840
C37   C     C_R   0.501444 0.654139 0.504793 0.094428
C38   C     C_R   0.541119 0.452586 0.481645 -0.093956
C39   C     C_R   0.647915 0.447099 0.392683 -0.215580
C40   C     C_R   0.667062 0.529003 0.346407 0.284383
C41   C     C_R   0.604951 0.636213 0.406384 0.338002
C42   C     C_R   0.500426 0.344448 0.497239 0.543189
C43   C     C_R   0.687941 0.252119 0.364235 0.503161
C44   C     C_R   0.635596 0.938770 0.810146 0.407540
C45   C     C_R   0.726321 0.986344 0.741199 0.383988
C46   C     C_R   0.813023 0.909832 0.644954 -0.109508
C47   C     C_R   0.814261 0.788085 0.624194 0.129355
C48   C     C_R   0.731107 0.744369 0.700725 0.126762
Cu1   Cu    Cu3+1 0.529370 0.098270 0.475420 0.995860
Cu2   Cu    Cu3+1 0.470630 0.901730 0.524580 0.980396
H1    H     H_    0.309924 0.107136 0.883125 0.171108
H2    H     H_    0.060680 0.930585 0.620379 0.171904
N1    N     N_R   0.573890 0.246290 0.438210 -0.353343
N2    N     N_R   0.426890 0.754320 0.561170 -0.207013
O1    O     O_R   0.536940 0.972510 0.318130 -0.600747
O2    O     O_R   0.487330 0.806530 0.359650 -0.499511
O3    O     O_R   0.705160 0.082990 0.479250 -0.545009
O4    O     O_R   0.655550 0.917010 0.520760 -0.550389
O5    O     O_R   0.512670 0.193470 0.640350 -0.565117
O6    O     O_R   0.463060 0.027490 0.681870 -0.601507
O7    O     O_R   0.344450 0.082990 0.479240 -0.594146
O8    O     O_R   0.294840 0.917010 0.520750 -0.599602
N3    N     N_3   0.560481 0.772112 0.870564 -0.584579
H3    H     H_    0.576114 0.829452 0.952779 0.247125
H4    H     H_    0.464541 0.771781 0.870759 0.240358
O9    O     O_3   0.468151 0.304165 0.208035 -0.641671
H5    H     H_    0.449223 0.389572 0.239816 0.357662
O10   O     O_3   0.487890 0.068564 0.137834 -0.639884
H6    H     H_    0.490145 0.985073 0.127109 0.356712
O11   O     O_3   0.286993 0.927344 0.214636 -0.716443
H7    H     H_    0.200502 0.891018 0.236120 0.356230
N4    N     N_3   0.155761 0.502144 0.203591 -0.619611
H8    H     H_    0.142864 0.454288 0.252327 0.257894
H9    H     H_    0.098264 0.465987 0.142975 0.254384
N5    N     N_3   0.188801 0.245385 0.082093 -0.578507
H10   H     H_    0.103949 0.273493 0.083745 0.256208
H11   H     H_    0.203045 0.272292 0.164048 0.239680
O12   O     O_3   0.596683 0.382624 0.793705 -0.667160
H12   H     H_    0.584718 0.467092 0.812547 0.341673
N6    N     N_3   0.738881 0.898366 0.128385 -0.552998
H13   H     H_    0.766242 0.911639 0.053725 0.265355
H14   H     H_    0.821966 0.901509 0.154586 0.269353
O13   O     O_3   0.753395 0.465832 0.936708 -0.682396
H15   H     H_    0.710874 0.400082 0.959133 0.372809
N7    N     N_3   0.872819 0.693508 0.971918 -0.566492
H16   H     H_    0.924418 0.653225 0.998924 0.268147
H17   H     H_    0.887202 0.647514 0.882551 0.261481
O14   O     O_3   0.546978 0.014981 0.896711 -0.629654
H18   H     H_    0.474219 0.966710 0.923408 0.334071
O15   O     O_3   0.286190 0.731178 0.262434 -0.729592
H19   H     H_    0.204749 0.707938 0.305544 0.357193
O16   O     O_3   0.768118 0.160490 0.306853 -0.638620
H20   H     H_    0.719452 0.087286 0.308874 0.395730
O17   O     O_3   0.742649 0.499580 0.237097 -0.689689
H21   H     H_    0.711950 0.538075 0.199344 0.341793
O18   O     O_3   0.849787 0.356824 0.276919 -0.645572
H22   H     H_    0.886955 0.442048 0.306820 0.334978
O19   O     O_3   0.378903 0.333168 0.558730 -0.681248
H23   H     H_    0.381338 0.285603 0.599201 0.369608
N8    N     N_3   0.225455 0.836427 0.688827 -0.602963
H24   H     H_    0.175518 0.803348 0.623103 0.255915
H25   H     H_    0.260919 0.926103 0.710876 0.248300
O20   O     O_3   0.408401 0.532242 0.718793 -0.720945
H26   H     H_    0.351147 0.563942 0.795853 0.370854
O21   O     O_3   0.223155 0.696744 0.803729 -0.737250
H27   H     H_    0.185170 0.775191 0.838083 0.359948
O22   O     O_3   0.653642 0.723247 0.368775 -0.708202
H28   H     H_    0.747634 0.719360 0.338047 0.307775
O23   O     O_3   0.726072 0.108244 0.771173 -0.678892
H29   H     H_    0.805089 0.136057 0.729040 0.324198
N9    N     N_3   0.903451 0.711530 0.526353 -0.570027
H30   H     H_    0.877967 0.699884 0.452343 0.219220
H31   H     H_    0.897954 0.625030 0.521676 0.249017
N10   N     N_3   0.741317 0.625157 0.686595 -0.577984
H32   H     H_    0.760378 0.632826 0.761660 0.253875
H33   H     H_    0.653362 0.575041 0.676264 0.269449
O24   O     O_3   0.931637 0.052414 0.340028 -0.713923
H34   H     H_    0.005801 0.048376 0.276462 0.338867
N11   N     N_3   0.094007 0.302856 0.511337 -0.547700
H35   H     H_    0.002121 0.273015 0.494649 0.263634
H36   H     H_    0.101535 0.284405 0.577668 0.258854
O25   O     O_3   0.271306 0.427292 0.391772 -0.756951
H37   H     H_    0.194436 0.457103 0.453282 0.367752

loop_
_geom_bond_atom_site_label_1
_geom_bond_atom_site_label_2
_ccdc_geom_bond_type
N3    H4    S    
C16   N5    S    
C17   C29   A    
C35   C36   A    
N10   H32   S    
C7    C8    A    
N7    H16   S    
C44   C45   A    
C23   O5    A    
C26   C27   A    
C17   C23   S    
C31   C43   A    
C36   C37   A    
C1    O2    A    
C38   C42   A    
C35   O20   S    
C42   O19   S    
C42   N1    A    
C5    C6    A    
C47   N9    S    
C31   O18   S    
C34   O8    A    
Cu1   O3    S    
C27   O15   S    
C18   C19   A    
O16   H20   S    
C43   N1    A    
C47   C48   A    
C2    C44   A    
O10   H6    S    
O22   H28   S    
O11   H7    S    
C18   C30   A    
C28   O12   S    
C9    C10   A    
C6    O24   S    
C11   O9    S    
C12   O4    A    
N7    H17   S    
O9    H5    S    
C13   C14   A    
C37   C41   A    
C14   O11   S    
C7    C12   S    
C32   N2    A    
N11   H36   S    
C23   O6    A    
C4    C34   S    
Cu1   O7    S    
Cu2   O4    S    
C33   O21   S    
C24   C25   A    
N6    H14   S    
C3    C8    A    
C39   C40   A    
O12   H12   S    
N6    H13   S    
C2    C48   A    
C16   C29   A    
Cu1   O1    S    
C34   O7    A    
Cu2   O2    S    
C32   N8    S    
N5    H10   S    
O13   H15   S    
N11   H35   S    
O18   H22   S    
N8    H25   S    
N9    H31   S    
Cu2   N2    S    
C26   N4    S    
C20   C21   A    
N5    H11   S    
C10   O25   S    
C12   O3    A    
N4    H9    S    
C40   C41   A    
O19   H23   S    
C22   C27   A    
C9    N11   S    
C20   O13   S    
Cu2   O8    S    
C37   N2    A    
C3    C4    A    
C2    N3    S    
C48   N10   S    
C29   H1    S    
C16   C25   A    
C46   C47   A    
C22   C30   A    
N9    H30   S    
C17   C28   A    
C24   C28   A    
C40   O17   S    
N4    H8    S    
C19   N7    S    
N10   H33   S    
C3    H2    S    
C6    C7    A    
C41   O22   S    
O21   H27   S    
C43   O16   S    
Cu1   O5    S    
Cu2   O6    S    
C32   C33   A    
C19   C20   A    
C36   C38   A    
C25   C26   A    
C44   O14   S    
O24   H34   S    
C11   C13   A    
O15   H19   S    
C38   C39   A    
Cu1   N1    S    
C1    C30   S    
C33   C35   A    
C31   C39   A    
C1    O1    A    
C45   O23   S    
C9    C15   A    
O17   H21   S    
C8    C46   S    
C5    C15   S    
C10   C11   A    
N3    H3    S    
C45   C46   A    
C4    C5    A    
O14   H18   S    
C18   N6    S    
Cu1   Cu2   S    
C21   C24   A    
O23   H29   S    
O20   H26   S    
C14   C15   A    
N8    H24   S    
O25   H37   S    
C21   C22   A    
C13   O10   S    
