data_mof_unit_41309.cif
_audit_creation_date              2012-12-10T20:28:00-0500
_audit_creation_method            fapswitch 2.2
_symmetry_space_group_name_H-M    P1
_symmetry_Int_Tables_number       1
_space_group_crystal_system       triclinic
_cell_length_a                    12.785917
_cell_length_b                    10.681762
_cell_length_c                    9.958173
_cell_angle_alpha                 89.976201
_cell_angle_beta                  98.014795
_cell_angle_gamma                 91.107179
_cell_volume                      1346.50882331

loop_
_atom_site_label
_atom_site_type_symbol
_atom_type_description
_atom_site_fract_x
_atom_site_fract_y
_atom_site_fract_z
_atom_type_partial_charge
C1    C     C_R   0.499422 0.260369 0.499927 0.858853
C2    C     C_R   0.467767 0.934720 0.374018 -0.258458
C3    C     C_R   0.482664 0.870625 0.497739 -0.065377
C4    C     C_R   0.298399 0.498534 0.472179 0.876798
C5    C     C_R   0.483102 0.935644 0.618992 0.053478
C6    C     C_3   0.552526 0.924659 0.752695 -0.559508
C7    C     C_3   0.558712 0.067255 0.753068 0.358572
C8    C     C_R   0.408604 0.482517 0.053776 0.009224
C9    C     C_R   0.584460 0.546051 0.088085 0.511151
C10   C     C_R   0.587888 0.537025 0.945535 0.099690
C11   C     C_R   0.408456 0.483125 0.913010 0.096071
C12   C     C_R   0.026629 0.458651 0.544562 0.150622
C13   C     C_3   0.329641 0.377612 0.893541 -0.547477
C14   C     C_3   0.326249 0.381387 0.046515 0.358916
C15   C     C_R   0.496956 0.739472 0.499544 0.854144
C16   C     C_R   0.701705 0.500396 0.527539 0.860406
C17   C     C_R   0.814306 0.496439 0.544783 -0.058382
C18   C     C_R   0.185981 0.501864 0.452565 -0.099693
C19   C     C_R   0.025997 0.597113 0.346793 0.208540
C20   C     C_R   0.133609 0.577383 0.351481 -0.226608
C21   C     C_R   0.132518 0.438616 0.544517 -0.290744
C22   C     C_3   0.715812 0.091810 0.645360 0.124034
C23   C     C_R   0.972429 0.539256 0.446162 0.156394
C24   C     C_3   0.831836 0.067306 0.696759 -0.354306
C25   C     C_3   0.895249 0.049183 0.579376 -0.972528
C26   C     C_3   0.640121 0.733831 0.186543 0.121716
C27   C     C_3   0.698168 0.820930 0.098234 -0.454724
C28   C     C_3   0.680100 0.958291 0.128813 -0.906790
C29   C     C_3   0.691332 0.565396 0.896180 -0.777607
C30   C     C_3   0.278795 0.184998 0.118276 0.055680
C31   C     C_3   0.226257 0.206404 0.245810 -0.329172
C32   C     C_3   0.149267 0.099791 0.267413 -0.951996
C33   C     C_3   0.971706 0.681474 0.238445 -0.965530
C34   C     C_R   0.866062 0.558327 0.449434 -0.255538
C35   C     C_R   0.868241 0.419836 0.643605 -0.215937
C36   C     C_R   0.974854 0.400739 0.643488 -0.206743
C37   C     C_R   0.487538 0.063453 0.618922 -0.011417
C38   C     C_R   0.488886 0.128291 0.498085 -0.118435
C39   C     C_R   0.473311 0.063686 0.374323 -0.223998
H1    H     H_    0.821686 0.618730 0.376188 0.192747
H2    H     H_    0.174400 0.376283 0.618272 0.146802
H3    H     H_    0.471252 0.111662 0.278516 0.215083
H4    H     H_    0.458796 0.886351 0.277698 0.156250
H5    H     H_    0.508277 0.886150 0.832439 0.177441
H6    H     H_    0.711151 0.174303 0.576927 0.145892
H7    H     H_    0.683173 0.008979 0.585138 0.135500
H8    H     H_    0.866543 0.147365 0.760124 0.226127
H9    H     H_    0.837339 0.981826 0.760891 0.219296
H10   H     H_    0.863216 0.967865 0.516026 0.261408
H11   H     H_    0.978986 0.031436 0.619988 0.266419
H12   H     H_    0.628216 0.877418 0.745390 0.197822
H13   H     H_    0.892307 0.134585 0.515323 0.275936
H14   H     H_    0.665958 0.759657 0.294262 0.171440
H15   H     H_    0.553816 0.751979 0.163969 0.120786
H16   H     H_    0.784076 0.803112 0.116107 0.240049
H17   H     H_    0.668717 0.803261 0.989899 0.228342
H18   H     H_    0.594588 0.979217 0.108042 0.256514
H19   H     H_    0.722936 0.018901 0.063093 0.287857
H20   H     H_    0.709879 0.980272 0.236592 0.259721
H21   H     H_    0.681524 0.640552 0.818869 0.239556
H22   H     H_    0.754092 0.598372 0.977020 0.227558
H23   H     H_    0.517875 0.108195 0.833815 0.113065
H24   H     H_    0.722024 0.477398 0.859764 0.253250
H25   H     H_    0.311483 0.089297 0.121909 0.156186
H26   H     H_    0.218716 0.187557 0.025545 0.119345
H27   H     H_    0.287435 0.213761 0.336279 0.234809
H28   H     H_    0.182446 0.295426 0.236514 0.210258
H29   H     H_    0.086615 0.091004 0.178490 0.262850
H30   H     H_    0.111509 0.119301 0.358931 0.269640
H31   H     H_    0.191744 0.010019 0.282694 0.268365
H32   H     H_    0.026813 0.717596 0.169930 0.241535
H33   H     H_    0.907125 0.628496 0.175585 0.259663
H34   H     H_    0.253926 0.406690 0.834966 0.160961
H35   H     H_    0.939153 0.763224 0.286338 0.242266
H36   H     H_    0.363262 0.290676 0.857120 0.212329
H37   H     H_    0.251350 0.417737 0.075497 0.062906
H38   H     H_    0.827096 0.370578 0.716181 0.160964
H39   H     H_    0.016331 0.339415 0.718855 0.136960
H40   H     H_    0.177659 0.625010 0.280444 0.152729
N1    N     N_R   0.499290 0.499140 0.142710 -0.145758
N2    N     N_R   0.499290 0.499180 0.857070 -0.109920
O1    O     O_R   0.500010 0.316790 0.614690 -0.601807
O2    O     O_3   0.666084 0.606494 0.170261 -0.642339
O3    O     O_3   0.363834 0.271172 0.113270 -0.609452
O4    O     O_R   0.500000 0.316760 0.385350 -0.583036
O5    O     O_R   0.346360 0.499990 0.595720 -0.605492
O6    O     O_R   0.346350 0.499960 0.366370 -0.627103
O7    O     O_R   0.500000 0.683240 0.614650 -0.609093
O8    O     O_R   0.499990 0.683210 0.385310 -0.654077
O9    O     O_R   0.653650 0.500040 0.633630 -0.628432
O10   O     O_R   0.653640 0.500010 0.404280 -0.564570
O11   O     O_3   0.662743 0.119951 0.757462 -0.624716
Zn1   Zn    Zn3+2 0.500010 0.500020 0.653130 0.952036
Zn2   Zn    Zn3+2 0.499990 0.499980 0.346870 0.983816

loop_
_geom_bond_atom_site_label_1
_geom_bond_atom_site_label_2
_ccdc_geom_bond_type
C31   H27   S    
C29   H24   S    
C16   O9    A    
C26   O2    S    
C5    C37   A    
C18   C21   A    
C19   C20   A    
C14   O3    S    
C4    O6    A    
C28   H18   S    
C11   N2    A    
C31   H28   S    
C12   C23   A    
C26   C27   S    
C34   H1    S    
C30   H25   S    
C38   C39   A    
C27   H16   S    
C4    O5    A    
O6    Zn2   S    
O8    Zn2   S    
C25   H11   S    
C33   H33   S    
C2    C39   A    
C35   C36   A    
C16   C17   S    
C6    H12   S    
C12   C36   A    
C9    C10   A    
C32   H29   S    
C4    C18   S    
O1    Zn1   S    
C6    H5    S    
C13   C14   S    
C26   H15   S    
C39   H3    S    
C1    O4    A    
C29   H22   S    
C24   H9    S    
C13   H36   S    
C24   C25   S    
C19   C33   S    
C27   H17   S    
C32   H31   S    
C1    O1    A    
C12   C21   A    
C35   H38   S    
C9    N1    A    
C14   H37   S    
C19   C23   A    
C7    H23   S    
C37   C38   A    
O5    Zn1   S    
C15   O8    A    
N2    Zn1   S    
O4    Zn2   S    
C31   C32   S    
C29   H21   S    
C2    H4    S    
C23   C34   A    
C7    C37   S    
C32   H30   S    
C1    C38   S    
C9    O2    S    
C21   H2    S    
C22   H7    S    
C13   H34   S    
C30   C31   S    
C22   C24   S    
C17   C34   A    
N1    Zn2   S    
C26   H14   S    
C3    C15   S    
O9    Zn1   S    
C28   H20   S    
O7    Zn1   S    
C8    C14   S    
C20   H40   S    
C24   H8    S    
C3    C5    A    
C6    C7    S    
C28   H19   S    
C10   N2    A    
C2    C3    A    
C25   H13   S    
C36   H39   S    
O10   Zn2   S    
C11   C13   S    
C10   C29   S    
C5    C6    S    
C8    C11   A    
C7    O11   S    
C18   C20   A    
C30   O3    S    
C25   H10   S    
C30   H26   S    
C33   H32   S    
C33   H35   S    
C22   H6    S    
C16   O10   A    
C27   C28   S    
C8    N1    A    
C22   O11   S    
C17   C35   A    
C15   O7    A    
