data_mof_unit_61376.cif
_audit_creation_date              2013-03-05T15:51:24-0500
_audit_creation_method            fapswitch 2.2
_symmetry_space_group_name_H-M    P1
_symmetry_Int_Tables_number       1
_space_group_crystal_system       triclinic
_cell_length_a                    37.044544
_cell_length_b                    30.131203
_cell_length_c                    21.52499
_cell_angle_alpha                 89.986957
_cell_angle_beta                  54.359356
_cell_angle_gamma                 89.930011
_cell_volume                      19525.7139757

loop_
_atom_site_label
_atom_site_type_symbol
_atom_site_description
_atom_site_fract_x
_atom_site_fract_y
_atom_site_fract_z
_atom_type_partial_charge
O1    O     O_R   0.933920 0.537280 0.566050 -0.618865
O2    O     O_R   0.066080 0.537280 0.433950 -0.619717
O3    O     O_R   0.433920 0.037280 0.566050 -0.612695
O4    O     O_R   0.566080 0.037280 0.433950 -0.618699
O5    O     O_R   0.933880 0.462680 0.566080 -0.629389
O6    O     O_R   0.066120 0.462680 0.433920 -0.628918
O7    O     O_R   0.433880 0.962680 0.566080 -0.633068
O8    O     O_R   0.566120 0.962680 0.433920 -0.629996
C1    C     C_R   0.913208 0.499969 0.585972 0.949422
C2    C     C_R   0.086811 0.499909 0.413940 0.950483
C3    C     C_R   0.413249 0.999994 0.586483 0.952282
C4    C     C_R   0.586790 0.999917 0.414073 0.952137
O9    O     O_R   0.999990 0.537270 0.407410 -0.625047
O10   O     O_R   0.000010 0.537270 0.592590 -0.624840
O11   O     O_R   0.499990 0.037270 0.407410 -0.626273
O12   O     O_R   0.500010 0.037270 0.592590 -0.616907
O13   O     O_R   0.999940 0.462670 0.407440 -0.632730
O14   O     O_R   0.000060 0.462670 0.592560 -0.633014
O15   O     O_R   0.499940 0.962670 0.407440 -0.632013
O16   O     O_R   0.500060 0.962670 0.592560 -0.644735
C5    C     C_R   0.998903 0.500103 0.379885 0.945373
C6    C     C_R   0.001105 0.500093 0.620109 0.944866
C7    C     C_R   0.498902 0.000113 0.379894 0.945300
C8    C     C_R   0.500053 0.000102 0.621180 0.977856
Zn1   Zn    Zn3+2 0.000000 0.549780 0.500000 0.992765
Zn2   Zn    Zn3+2 0.500000 0.049780 0.500000 0.993067
Zn3   Zn    Zn3+2 0.000000 0.450160 0.500000 0.989382
Zn4   Zn    Zn3+2 0.500000 0.950160 0.500000 0.989253
C9    C     C_3   0.989883 0.547956 0.294706 -0.345510
C10   C     C_3   0.010360 0.547872 0.705025 -0.345348
C11   C     C_3   0.490124 0.048054 0.294502 -0.344456
C12   C     C_3   0.500424 0.048689 0.715582 -0.372228
H1    H     H_    0.015915 0.571001 0.285432 0.255729
H2    H     H_    0.984514 0.571149 0.713983 0.255831
H3    H     H_    0.516297 0.070927 0.285093 0.255462
H4    H     H_    0.471361 0.067308 0.727583 0.243197
H5    H     H_    0.958216 0.561691 0.344802 0.138975
H6    H     H_    0.042140 0.561329 0.654913 0.138357
H7    H     H_    0.458550 0.061987 0.344525 0.138742
H8    H     H_    0.529353 0.067347 0.667968 0.150664
C13   C     C_3   0.988294 0.547682 0.224541 -0.022037
C14   C     C_3   0.011809 0.547609 0.775334 -0.021692
C15   C     C_3   0.488510 0.047794 0.224353 -0.022738
C16   C     C_3   0.503627 0.047553 0.784193 -0.007408
H9    H     H_    0.953746 0.555610 0.244019 0.132930
H10   H     H_    0.046333 0.555423 0.756001 0.133065
H11   H     H_    0.454002 0.055901 0.243806 0.131971
H12   H     H_    0.537770 0.059228 0.761720 0.100240
H13   H     H_    0.071333 0.510987 0.129845 0.232441
H14   H     H_    0.928678 0.511220 0.870279 0.231988
H15   H     H_    0.571346 0.010677 0.129853 0.232489
H16   H     H_    0.427398 0.997037 0.873670 0.226764
C17   C     C_3   0.044180 0.482353 0.242509 0.103940
C18   C     C_3   0.955760 0.482662 0.757572 0.104288
C19   C     C_3   0.544046 0.982159 0.242638 0.103605
C20   C     C_3   0.457626 0.975125 0.756101 0.099767
C21   C     C_3   0.961476 0.468385 0.325360 -0.097000
C22   C     C_3   0.038408 0.468109 0.674786 -0.096852
C23   C     C_3   0.461236 0.968685 0.325652 -0.097357
C24   C     C_3   0.541716 0.974314 0.670698 -0.105663
C25   C     C_3   0.998562 0.500291 0.312114 -0.109032
C26   C     C_3   0.001458 0.500274 0.687872 -0.108768
C27   C     C_3   0.498534 0.000341 0.312164 -0.108785
C28   C     C_3   0.499785 0.000273 0.689590 -0.095062
H17   H     H_    0.969150 0.434593 0.335830 0.211802
H18   H     H_    0.030542 0.434364 0.664595 0.211845
H19   H     H_    0.468652 0.934867 0.336486 0.212118
H20   H     H_    0.539269 0.939841 0.654674 0.210409
C29   C     C_3   0.999679 0.499684 0.189918 -0.121189
C30   C     C_3   0.000334 0.499663 0.810075 -0.121189
C31   C     C_3   0.499646 0.999729 0.189973 -0.121760
C32   C     C_3   0.500145 0.998489 0.810411 -0.093718
C33   C     C_3   0.046047 0.486127 0.169535 -0.365666
C34   C     C_3   0.953948 0.486311 0.830497 -0.366163
C35   C     C_3   0.545932 0.985945 0.169670 -0.365162
C36   C     C_3   0.456557 0.977515 0.828582 -0.365819
C37   C     C_3   0.962565 0.467544 0.252051 0.080751
C38   C     C_3   0.037377 0.467344 0.748042 0.080925
C39   C     C_3   0.462369 0.967773 0.252300 0.081162
C40   C     C_3   0.541667 0.972768 0.742941 0.065726
H21   H     H_    0.930042 0.480187 0.267263 0.134466
H22   H     H_    0.069928 0.479871 0.732728 0.134306
H23   H     H_    0.429913 0.980540 0.267379 0.134080
H24   H     H_    0.571954 0.990247 0.729512 0.136820
H25   H     H_    0.046116 0.446362 0.252409 0.151861
H26   H     H_    0.953616 0.446711 0.747768 0.150869
H27   H     H_    0.545779 0.946155 0.252725 0.152326
H28   H     H_    0.461100 0.939536 0.739381 0.150086
H29   H     H_    0.057227 0.454046 0.138390 0.240537
H30   H     H_    0.942763 0.454230 0.861570 0.240285
H31   H     H_    0.556951 0.953812 0.138742 0.241341
H32   H     H_    0.451481 0.943834 0.853037 0.246077
C41   C     C_R   0.657024 0.468358 0.873756 -0.300424
C42   C     C_R   0.343098 0.467367 0.128234 -0.297336
C43   C     C_R   0.157114 0.970106 0.877095 -0.295495
C44   C     C_R   0.843052 0.968349 0.126154 -0.300367
C45   C     C_R   0.634340 0.501683 0.864967 -0.106163
C46   C     C_R   0.365675 0.501515 0.135337 -0.106214
C47   C     C_R   0.134445 0.001657 0.864820 -0.110959
C48   C     C_R   0.865646 0.001636 0.135100 -0.106437
C49   C     C_R   0.656761 0.535115 0.809679 0.151022
C50   C     C_R   0.343181 0.535142 0.190311 0.151978
C51   C     C_R   0.156969 0.033126 0.805886 0.152139
C52   C     C_R   0.843127 0.034938 0.190719 0.151485
C53   C     C_R   0.703448 0.535245 0.762857 0.073615
C54   C     C_R   0.296501 0.534952 0.237803 0.073968
C55   C     C_R   0.203665 0.033095 0.758989 0.073691
C56   C     C_R   0.796441 0.035017 0.237637 0.073771
C57   C     C_R   0.726493 0.500790 0.771182 -0.016636
C58   C     C_R   0.273574 0.499654 0.231242 -0.017598
C59   C     C_R   0.226645 0.000302 0.770799 -0.017835
C60   C     C_R   0.773494 0.000615 0.229116 -0.016522
C61   C     C_R   0.703197 0.467072 0.826763 0.086388
C62   C     C_R   0.297005 0.465081 0.177448 0.086028
C63   C     C_R   0.203261 0.968105 0.829239 0.084090
C64   C     C_R   0.796883 0.966993 0.173272 0.086353
C65   C     C_R   0.727691 0.569138 0.708921 -0.214280
C66   C     C_R   0.272152 0.569413 0.290474 -0.214366
C67   C     C_R   0.227977 0.065341 0.701682 -0.215057
C68   C     C_R   0.772102 0.068816 0.291848 -0.213688
C69   C     C_R   0.773812 0.568905 0.663670 -0.205931
C70   C     C_R   0.226037 0.569195 0.335581 -0.206085
C71   C     C_R   0.274086 0.065142 0.656608 -0.208603
C72   C     C_R   0.725983 0.068570 0.337119 -0.206911
C73   C     C_R   0.796591 0.534671 0.670759 0.134973
C74   C     C_R   0.203369 0.534470 0.329499 0.135314
C75   C     C_R   0.296795 0.032768 0.667661 0.135535
C76   C     C_R   0.703303 0.034411 0.329777 0.132705
C77   C     C_R   0.772997 0.500160 0.723975 0.070815
C78   C     C_R   0.227064 0.499223 0.277968 0.070926
C79   C     C_R   0.273165 0.999992 0.724514 0.068992
C80   C     C_R   0.726992 0.999958 0.276364 0.072162
C81   C     C_R   0.796051 0.465132 0.730048 0.071775
C82   C     C_R   0.204111 0.463837 0.272667 0.070618
C83   C     C_R   0.296200 0.967158 0.735336 0.071787
C84   C     C_R   0.704034 0.964978 0.270100 0.072527
C85   C     C_R   0.772883 0.431470 0.783864 -0.265678
C86   C     C_R   0.227421 0.429164 0.221065 -0.267062
C87   C     C_R   0.272938 0.934991 0.792136 -0.257933
C88   C     C_R   0.727297 0.931376 0.216087 -0.264677
C89   C     C_R   0.726578 0.432548 0.833481 0.212874
C90   C     C_R   0.273801 0.429304 0.173449 0.222434
C91   C     C_R   0.226548 0.934935 0.839050 0.217667
C92   C     C_R   0.773598 0.932498 0.166407 0.212556
C93   C     C_R   0.842732 0.534564 0.625850 -0.260415
C94   C     C_R   0.157244 0.534640 0.373673 -0.260223
C95   C     C_R   0.342914 0.032777 0.622933 -0.262186
C96   C     C_R   0.657168 0.034345 0.374584 -0.262593
C97   C     C_R   0.865302 0.499777 0.632249 -0.051723
C98   C     C_R   0.134743 0.499545 0.367992 -0.051222
C99   C     C_R   0.365426 0.999977 0.633616 -0.053384
C100  C     C_R   0.634691 0.999627 0.367953 -0.052523
C101  C     C_R   0.842165 0.464697 0.682824 -0.154341
C102  C     C_R   0.157974 0.463853 0.318871 -0.154879
C103  C     C_R   0.342362 0.967079 0.689025 -0.163160
C104  C     C_R   0.657918 0.964551 0.317298 -0.154950
H33   H     H_    0.638151 0.442777 0.916263 0.187213
H34   H     H_    0.362006 0.442057 0.085090 0.189054
H35   H     H_    0.138253 0.946530 0.923395 0.192476
H36   H     H_    0.861997 0.942845 0.083435 0.187254
H37   H     H_    0.711522 0.596469 0.701723 0.155595
H38   H     H_    0.288233 0.597263 0.296533 0.155246
H39   H     H_    0.211880 0.091392 0.691627 0.154381
H40   H     H_    0.788193 0.096101 0.299220 0.155197
H41   H     H_    0.791695 0.595562 0.623025 0.147815
H42   H     H_    0.208073 0.596367 0.375048 0.147509
H43   H     H_    0.292019 0.090471 0.613170 0.146710
H44   H     H_    0.708023 0.095170 0.377946 0.147880
H45   H     H_    0.861119 0.561192 0.585325 0.154215
H46   H     H_    0.138816 0.561774 0.413030 0.154839
H47   H     H_    0.361367 0.057839 0.579079 0.151399
H48   H     H_    0.638709 0.060939 0.415243 0.156870
H49   H     H_    0.860106 0.437772 0.687033 0.178102
H50   H     H_    0.140112 0.436673 0.315212 0.177547
H51   H     H_    0.360411 0.942008 0.696908 0.174939
H52   H     H_    0.640048 0.937655 0.312976 0.179360
H53   H     H_    0.790794 0.404808 0.788722 0.159640
H54   H     H_    0.209601 0.401843 0.217687 0.158239
H55   H     H_    0.290799 0.909642 0.799874 0.165081
H56   H     H_    0.709461 0.904746 0.211093 0.160159
O17   O     O_R   0.962660 0.566020 0.037320 -0.634755
O18   O     O_R   0.037340 0.566020 0.962680 -0.634716
O19   O     O_R   0.462660 0.066020 0.037320 -0.626933
O20   O     O_R   0.537340 0.066020 0.962680 -0.635222
C105  C     C_R   0.999978 0.586736 0.000016 0.848356
C106  C     C_R   0.499960 0.086720 0.999898 0.850681
O21   O     O_R   0.962680 0.499950 0.129900 -0.630967
O22   O     O_R   0.037320 0.499950 0.870100 -0.631032
O23   O     O_R   0.462680 0.999950 0.129900 -0.630921
O24   O     O_R   0.537320 0.999950 0.870100 -0.632889
O25   O     O_R   0.037280 0.499990 0.055330 -0.618100
O26   O     O_R   0.962720 0.499990 0.944670 -0.618253
O27   O     O_R   0.537280 0.999990 0.055330 -0.617161
O28   O     O_R   0.462720 0.999990 0.944670 -0.604761
C107  C     C_R   0.999927 0.498773 0.121379 0.897580
C108  C     C_R   0.000077 0.498772 0.878619 0.897740
C109  C     C_R   0.499920 0.998793 0.121395 0.899635
C110  C     C_R   0.500079 0.997898 0.878709 0.917708
Zn5   Zn    Zn3+2 0.950160 0.499940 0.049810 1.045551
Zn6   Zn    Zn3+2 0.049840 0.499940 0.950190 1.045953
Zn7   Zn    Zn3+2 0.450160 0.999940 0.049810 1.048564
Zn8   Zn    Zn3+2 0.549840 0.999940 0.950190 1.051215
O29   O     O_R   0.962680 0.433880 0.037290 -0.562484
O30   O     O_R   0.037320 0.433880 0.962710 -0.562652
O31   O     O_R   0.462680 0.933880 0.037290 -0.567541
O32   O     O_R   0.537320 0.933880 0.962710 -0.561317
C111  C     C_R   0.000030 0.413089 0.999990 1.038832
C112  C     C_R   0.500046 0.913109 0.999950 1.012441
O33   O     O_R   0.499930 0.433870 0.947760 -0.623361
O34   O     O_R   0.500070 0.433870 0.052240 -0.624081
O35   O     O_R   0.999930 0.933870 0.947760 -0.623631
O36   O     O_R   0.000070 0.933870 0.052240 -0.622947
C113  C     C_R   0.499963 0.413243 0.000037 0.873495
C114  C     C_R   0.000027 0.913255 0.999985 0.873562
O37   O     O_R   0.566010 0.499970 0.881660 -0.604235
O38   O     O_R   0.433990 0.499970 0.118340 -0.605779
O39   O     O_R   0.066010 0.999970 0.881660 -0.602863
O40   O     O_R   0.933990 0.999970 0.118340 -0.603827
O41   O     O_R   0.566080 0.499950 0.986150 -0.630601
O42   O     O_R   0.433920 0.499950 0.013850 -0.627405
O43   O     O_R   0.066080 0.999950 0.986150 -0.628719
O44   O     O_R   0.933920 0.999950 0.013850 -0.630514
C115  C     C_R   0.586575 0.500409 0.913233 0.918077
C116  C     C_R   0.413431 0.500447 0.086783 0.917265
C117  C     C_R   0.086611 0.000462 0.913202 0.914150
C118  C     C_R   0.913420 0.000401 0.086777 0.918045
Zn9   Zn    Zn3+2 0.499930 0.499950 0.930250 0.977745
Zn10  Zn    Zn3+2 0.500070 0.499950 0.069750 0.972921
Zn11  Zn    Zn3+2 0.999930 0.999950 0.930250 0.973327
Zn12  Zn    Zn3+2 0.000070 0.999950 0.069750 0.977780
O45   O     O_R   0.499950 0.566010 0.947790 -0.617455
O46   O     O_R   0.500050 0.566010 0.052210 -0.617832
O47   O     O_R   0.999950 0.066010 0.947790 -0.617985
O48   O     O_R   0.000050 0.066010 0.052210 -0.616579
C119  C     C_R   0.499984 0.586511 0.000009 0.902039
C120  C     C_R   0.000107 0.086489 0.999866 0.898330
C121  C     C_R   0.529754 0.342640 0.931941 -0.251372
C122  C     C_R   0.469950 0.342677 0.068046 -0.256144
C123  C     C_R   0.030886 0.842669 0.932489 -0.256043
C124  C     C_R   0.969302 0.842750 0.067562 -0.251628
C125  C     C_R   0.499910 0.365420 0.000040 -0.051571
C126  C     C_R   0.000065 0.865456 1.000000 -0.050525
C127  C     C_R   0.469150 0.296504 0.068222 0.121191
C128  C     C_R   0.530416 0.296470 0.931584 0.120246
C129  C     C_R   0.968577 0.796580 0.067804 0.120348
C130  C     C_R   0.031633 0.796496 0.932308 0.121233
C131  C     C_R   0.499766 0.273275 0.999863 0.056926
C132  C     C_R   0.000095 0.773327 0.000061 0.057318
C133  C     C_R   0.438294 0.273205 0.135327 -0.211892
C134  C     C_R   0.561186 0.273146 0.864366 -0.210909
C135  C     C_R   0.936889 0.773311 0.134351 -0.208254
C136  C     C_R   0.063330 0.773137 0.865793 -0.210968
C137  C     C_R   0.936207 0.727074 0.133831 -0.216063
C138  C     C_R   0.063946 0.726897 0.866316 -0.216030
C139  C     C_R   0.437630 0.226966 0.134820 -0.218078
C140  C     C_R   0.561787 0.226905 0.864705 -0.214694
C141  C     C_R   0.967624 0.703735 0.067081 0.118567
C142  C     C_R   0.032460 0.703648 0.933040 0.118685
C143  C     C_R   0.468209 0.203655 0.067461 0.119532
C144  C     C_R   0.531214 0.203614 0.932001 0.123113
C145  C     C_R   0.000062 0.726900 0.000063 0.060624
C146  C     C_R   0.499734 0.226845 0.999779 0.059980
C147  C     C_R   0.967289 0.657581 0.066063 -0.259759
C148  C     C_R   0.032692 0.657494 0.934029 -0.259800
C149  C     C_R   0.467963 0.157502 0.066496 -0.258495
C150  C     C_R   0.531467 0.157445 0.932839 -0.266366
C151  C     C_R   0.999961 0.634683 0.000031 -0.044882
C152  C     C_R   0.499825 0.134640 0.999745 -0.051225
H57   H     H_    0.552938 0.360947 0.879865 0.147934
H58   H     H_    0.446786 0.361014 0.120162 0.146036
H59   H     H_    0.054721 0.860974 0.880813 0.145214
H60   H     H_    0.945468 0.861118 0.119227 0.147051
H61   H     H_    0.414583 0.290740 0.187987 0.149806
H62   H     H_    0.584906 0.290665 0.811755 0.151076
H63   H     H_    0.912511 0.790869 0.186546 0.151205
H64   H     H_    0.087743 0.790628 0.813606 0.149929
H65   H     H_    0.911317 0.709568 0.185633 0.148203
H66   H     H_    0.088824 0.709318 0.814523 0.147918
H67   H     H_    0.413427 0.209434 0.187103 0.147300
H68   H     H_    0.585974 0.209362 0.812358 0.148767
H69   H     H_    0.942266 0.639401 0.116945 0.149108
H70   H     H_    0.057706 0.639249 0.883150 0.149083
H71   H     H_    0.443648 0.139284 0.117906 0.146873
H72   H     H_    0.555609 0.139183 0.881262 0.147025
C153  C     C_R   0.527285 0.656630 0.014342 -0.266892
C154  C     C_R   0.472836 0.656790 0.985513 -0.266193
C155  C     C_R   0.028491 0.156565 0.011713 -0.265235
C156  C     C_R   0.972394 0.156674 0.986694 -0.266740
C157  C     C_R   0.500040 0.634067 0.999936 -0.065706
C158  C     C_R   0.000311 0.134004 0.999503 -0.064424
C159  C     C_R   0.471626 0.702790 0.987865 0.125219
C160  C     C_R   0.528661 0.702617 0.011781 0.125639
C161  C     C_R   0.971191 0.202656 0.989000 0.125405
C162  C     C_R   0.029737 0.202567 0.009270 0.126272
C163  C     C_R   0.500246 0.725983 0.999632 0.113414
C164  C     C_R   0.000437 0.225893 0.999188 0.113060
C165  C     C_R   0.442159 0.725834 0.979112 -0.231389
C166  C     C_R   0.557900 0.725483 0.021187 -0.228666
C167  C     C_R   0.941217 0.225639 0.981488 -0.229659
C168  C     C_R   0.059702 0.225495 0.016766 -0.229483
C169  C     C_R   0.939559 0.271639 0.985366 -0.105872
C170  C     C_R   0.061197 0.271512 0.013215 -0.106296
C171  C     C_R   0.440638 0.771855 0.982690 -0.104364
C172  C     C_R   0.559553 0.771493 0.017534 -0.105327
C173  C     C_R   0.968728 0.295424 0.994875 0.005548
C174  C     C_R   0.031892 0.295371 0.004011 0.005424
C175  C     C_R   0.469708 0.795579 0.992497 0.010632
C176  C     C_R   0.531164 0.795408 0.006176 0.003645
C177  C     C_R   0.000362 0.272337 0.999336 -0.031307
C178  C     C_R   0.500387 0.772424 0.999398 -0.033481
C179  C     C_R   0.967253 0.341749 0.998963 0.256921
C180  C     C_R   0.033106 0.341715 0.000478 0.256690
C181  C     C_R   0.468582 0.841898 0.995817 0.255459
C182  C     C_R   0.532418 0.841769 0.002825 0.261699
C183  C     C_R   0.000117 0.364827 0.999848 -0.282751
C184  C     C_R   0.500161 0.864884 0.000166 -0.284353
H73   H     H_    0.548239 0.638315 0.025360 0.153155
H74   H     H_    0.451762 0.638600 0.974711 0.153748
H75   H     H_    0.050173 0.138236 0.021035 0.151478
H76   H     H_    0.950796 0.138450 0.977148 0.152292
H77   H     H_    0.419841 0.708247 0.970624 0.157122
H78   H     H_    0.579780 0.707772 0.030663 0.155939
H79   H     H_    0.918687 0.208022 0.973545 0.155950
H80   H     H_    0.082285 0.207830 0.024600 0.155840
H81   H     H_    0.915813 0.288326 0.979500 0.197558
H82   H     H_    0.084897 0.288150 0.019173 0.197651
H83   H     H_    0.416855 0.788609 0.976978 0.201423
H84   H     H_    0.582591 0.788085 0.025203 0.197438
N1    N     N_R   0.967852 0.422021 0.223209 0.215051
O49   O     O_R   0.998554 0.395835 0.214154 -0.382592
O50   O     O_R   0.939302 0.406287 0.212194 -0.370390
N2    N     N_R   0.032041 0.421864 0.777054 0.214991
O51   O     O_R   0.001325 0.395765 0.786165 -0.382886
O52   O     O_R   0.060571 0.406066 0.788133 -0.370938
N3    N     N_R   0.467469 0.922201 0.223753 0.216456
O53   O     O_R   0.497763 0.895769 0.215641 -0.382741
O54   O     O_R   0.439018 0.906640 0.212368 -0.368118
N4    N     N_R   0.544090 0.926857 0.763578 0.209962
O55   O     O_R   0.517252 0.896375 0.769993 -0.379211
O56   O     O_R   0.575712 0.915516 0.769918 -0.363053
N5    N     N_2   0.631737 0.568189 0.802709 -0.299666
H85   H     H_    0.642813 0.575676 0.747531 0.225594
C185  C     C_3   0.620883 0.606764 0.850535 -0.766115
H86   H     H_    0.651453 0.625582 0.831610 0.239255
H87   H     H_    0.603981 0.596581 0.911041 0.233604
H88   H     H_    0.598158 0.628724 0.846714 0.250281
N6    N     N_2   0.368110 0.568845 0.196058 -0.299919
H89   H     H_    0.357142 0.577026 0.250945 0.225372
C186  C     C_3   0.378567 0.606840 0.147286 -0.770090
H90   H     H_    0.347811 0.625243 0.165803 0.239460
H91   H     H_    0.395540 0.596029 0.087043 0.234895
H92   H     H_    0.401089 0.629413 0.150516 0.249494
N7    N     N_2   0.132047 0.064710 0.795824 -0.297606
H93   H     H_    0.143118 0.070154 0.740067 0.223817
C187  C     C_3   0.120997 0.104867 0.840295 -0.759657
H94   H     H_    0.151499 0.124280 0.819769 0.237291
H95   H     H_    0.104045 0.096678 0.901635 0.231688
H96   H     H_    0.098199 0.125478 0.834619 0.249015
N8    N     N_2   0.868055 0.067943 0.197913 -0.299211
H97   H     H_    0.856982 0.075313 0.253133 0.225520
C188  C     C_3   0.878786 0.106609 0.150367 -0.767675
H98   H     H_    0.848167 0.125499 0.169552 0.238955
H99   H     H_    0.895611 0.096522 0.089826 0.233589
H100  H     H_    0.901539 0.128460 0.154178 0.250058
N9    N     N_2   0.703802 0.398579 0.889434 -0.318953
H101  H     H_    0.718843 0.367872 0.871153 0.230359
C189  C     C_3   0.693450 0.410062 0.963447 -0.752734
H102  H     H_    0.724541 0.414331 0.959471 0.252028
H103  H     H_    0.673538 0.383085 0.004783 0.241720
H104  H     H_    0.673721 0.441215 0.985233 0.251937
N10   N     N_2   0.296803 0.393441 0.121625 -0.307239
H105  H     H_    0.280235 0.380106 0.100675 0.238549
C190  C     C_3   0.311549 0.359491 0.149725 -0.795452
H106  H     H_    0.282474 0.342937 0.200654 0.242857
H107  H     H_    0.332870 0.373980 0.165239 0.245405
H108  H     H_    0.331322 0.334228 0.104446 0.248636
N11   N     N_2   0.203613 0.901461 0.895957 -0.307605
H109  H     H_    0.219860 0.891563 0.919550 0.241655
C191  C     C_3   0.189917 0.863979 0.872334 -0.789861
H110  H     H_    0.219505 0.846084 0.824506 0.243449
H111  H     H_    0.168933 0.875024 0.853817 0.244993
H112  H     H_    0.170125 0.840773 0.921117 0.249537
N12   N     N_2   0.796467 0.898608 0.110228 -0.319002
H113  H     H_    0.781549 0.867879 0.128352 0.230607
C192  C     C_3   0.806690 0.910198 0.036344 -0.752085
H114  H     H_    0.775547 0.914464 0.040460 0.252242
H115  H     H_    0.826684 0.883279 0.994816 0.241863
H116  H     H_    0.826290 0.941380 0.014706 0.251850
N13   N     N_R   0.932632 0.365246 0.001576 0.214614
O57   O     O_R   0.891453 0.360522 0.059952 -0.374667
O58   O     O_R   0.942127 0.391272 0.945807 -0.359069
N14   N     N_R   0.067551 0.365203 0.998271 0.214610
O59   O     O_R   0.057837 0.391084 0.054342 -0.359026
O60   O     O_R   0.108779 0.360675 0.939913 -0.374236
N15   N     N_R   0.436415 0.865687 0.991938 0.203731
O61   O     O_R   0.396948 0.872683 0.054100 -0.359973
O62   O     O_R   0.443781 0.872857 0.925925 -0.374324
N16   N     N_R   0.566476 0.865230 0.001839 0.215813
O63   O     O_R   0.556118 0.892299 0.056899 -0.359268
O64   O     O_R   0.607982 0.859965 0.945029 -0.373198
N17   N     N_2   0.018223 0.581574 0.169632 -0.264125
H117  H     H_    0.030004 0.575957 0.113622 0.240426
C193  C     C_3   0.003264 0.627043 0.191554 -0.758568
H118  H     H_    0.028982 0.649950 0.147367 0.251985
H119  H     H_    0.997607 0.635266 0.246861 0.246899
H120  H     H_    0.971996 0.632354 0.196532 0.217160
N18   N     N_2   0.981851 0.581606 0.830105 -0.263702
H121  H     H_    0.969846 0.575982 0.886215 0.240316
C194  C     C_3   0.996916 0.627015 0.808263 -0.758895
H122  H     H_    0.971069 0.650024 0.852095 0.252246
H123  H     H_    0.003032 0.635197 0.752601 0.246570
H124  H     H_    0.027947 0.632210 0.804045 0.217126
N19   N     N_2   0.518602 0.081532 0.169254 -0.263932
H125  H     H_    0.530034 0.075993 0.113400 0.240080
C195  C     C_3   0.504080 0.127106 0.191239 -0.758982
H126  H     H_    0.529817 0.149855 0.146730 0.252153
H127  H     H_    0.498918 0.135254 0.246161 0.246679
H128  H     H_    0.472634 0.132750 0.196990 0.216345
N20   N     N_2   0.472858 0.077135 0.848132 -0.291837
H129  H     H_    0.487718 0.099046 0.863618 0.216288
C196  C     C_3   0.431874 0.093392 0.862220 -0.692140
H130  H     H_    0.410020 0.106070 0.921709 0.234471
H131  H     H_    0.413717 0.066735 0.855848 0.273436
H132  H     H_    0.439002 0.121195 0.822719 0.226806
N21   N     N_R   0.082571 0.504259 0.232997 0.214822
O65   O     O_R   0.091668 0.545740 0.212954 -0.379514
O66   O     O_R   0.110222 0.480901 0.238260 -0.412932
N22   N     N_R   0.917466 0.504949 0.767147 0.214833
O67   O     O_R   0.908666 0.546505 0.786968 -0.379451
O68   O     O_R   0.889471 0.481823 0.762611 -0.414978
N23   N     N_R   0.582579 0.003840 0.232937 0.214564
O69   O     O_R   0.591831 0.045308 0.212893 -0.380153
O70   O     O_R   0.610329 0.980231 0.237570 -0.414988
N24   N     N_R   0.414944 0.990453 0.772970 0.195804
O71   O     O_R   0.411940 0.024725 0.739442 -0.428792
O72   O     O_R   0.379101 0.968003 0.821131 -0.383869
N25   N     N_2   0.917835 0.481562 0.392475 -0.325267
H133  H     H_    0.904738 0.510055 0.386368 0.223561
C197  C     C_3   0.885503 0.446389 0.431323 -0.744348
H134  H     H_    0.854658 0.459901 0.483367 0.234795
H135  H     H_    0.898470 0.419922 0.449372 0.253769
H136  H     H_    0.877429 0.432132 0.393195 0.261795
N26   N     N_2   0.082097 0.480921 0.607518 -0.324983
H137  H     H_    0.095361 0.509327 0.613367 0.223568
C198  C     C_3   0.114239 0.445488 0.568889 -0.743905
H138  H     H_    0.145132 0.458737 0.516699 0.234757
H139  H     H_    0.101105 0.419092 0.551102 0.253587
H140  H     H_    0.122286 0.431215 0.607066 0.261718
N27   N     N_2   0.417674 0.982201 0.392607 -0.325549
H141  H     H_    0.404776 0.010744 0.386185 0.222968
C199  C     C_3   0.385097 0.947262 0.431780 -0.744077
H142  H     H_    0.354325 0.961027 0.483642 0.235254
H143  H     H_    0.397856 0.920770 0.450162 0.254568
H144  H     H_    0.376967 0.932969 0.393749 0.261157
N28   N     N_2   0.582533 0.994190 0.605857 -0.326864
H145  H     H_    0.590999 0.024398 0.616456 0.224547
C200  C     C_3   0.620019 0.964534 0.561141 -0.750660
H146  H     H_    0.648250 0.982807 0.511704 0.235575
H147  H     H_    0.611256 0.936592 0.538599 0.253559
H148  H     H_    0.630480 0.951406 0.596612 0.264560

loop_
_geom_bond_atom_site_label_1
_geom_bond_atom_site_label_2
_geom_bond_distance
_ccdc_geom_bond_type
C47   C51   1.404411 A    
C81   C85   1.396490 A    
C200  H146  1.110598 S    
C56   C68   1.408523 A    
Zn10  O46   2.025950 S    
C84   C88   1.396506 A    
N25   H133  1.031040 S    
C83   C87   1.396590 A    
C153  C160  1.386549 A    
C1    C97   1.442736 S    
C154  C159  1.386669 A    
C141  C145  1.411928 A    
C193  H119  1.109855 S    
C132  C145  1.398921 A    
C43   C47   1.391167 A    
C150  H72   1.084958 S    
C101  H49   1.084849 S    
C48   C52   1.403814 A    
C10   H6    1.111279 S    
N21   O65   1.301250 A    
C122  H58   1.085046 S    
C97   C101  1.396889 A    
C72   H44   1.083965 S    
C100  C104  1.396838 A    
O44   Zn11  2.022270 S    
N22   O68   1.300152 A    
N27   C199  1.446540 S    
C30   C34   1.558546 S    
C99   C103  1.396055 A    
O4    C4    1.286314 A    
C121  C128  1.391297 A    
C87   H55   1.084456 S    
N19   C195  1.449433 S    
C54   C66   1.408407 A    
C78   C82   1.410038 A    
O48   C120  1.283426 A    
C50   N6    1.426493 S    
N7    C187  1.445876 S    
N24   O71   1.300989 A    
C63   C91   1.413453 A    
C188  H100  1.110223 S    
C15   N19   1.464272 S    
O19   Zn7   2.026820 S    
N14   O60   1.301088 A    
C190  H108  1.110353 S    
N3    O54   1.301131 A    
C10   H2    1.108653 S    
C165  H77   1.083934 S    
O16   Zn4   2.029053 S    
C46   C50   1.403759 A    
O28   Zn7   2.027590 S    
O33   C113  1.285995 A    
O7    Zn4   2.025527 S    
C45   C115  1.438564 S    
O42   Zn9   2.022270 S    
O18   C105  1.285656 A    
C147  C151  1.398109 A    
O38   C116  1.282355 A    
C119  C157  1.432935 S    
C38   H22   1.114921 S    
C187  H94   1.110780 S    
C169  C173  1.408145 A    
O9    C5    1.278667 A    
O25   Zn6   2.027589 S    
C170  H82   1.082054 S    
C111  C183  1.454213 S    
C77   C81   1.410038 A    
C133  C139  1.393639 A    
C124  C129  1.391409 A    
O8    Zn4   2.026518 S    
C200  H148  1.110838 S    
H13   C33   1.112300 S    
C144  C150  1.391331 A    
N12   H113  1.031872 S    
C149  H71   1.084678 S    
C13   C29   1.567683 S    
O23   C109  1.281961 A    
C66   H38   1.080692 S    
C52   N8    1.426417 S    
C15   C31   1.567963 S    
C154  C157  1.394132 A    
C141  C147  1.391053 A    
O34   Zn10  2.026517 S    
O3    Zn2   2.025223 S    
C142  C148  1.390902 A    
O11   Zn2   2.028628 S    
C21   C25   1.561911 S    
C67   C71   1.388375 A    
C170  C174  1.408309 A    
C23   C27   1.561640 S    
C74   C94   1.389354 A    
C128  C131  1.412231 A    
C24   C28   1.565557 S    
C114  C126  1.440265 S    
O23   Zn7   2.029497 S    
C34   H30   1.109566 S    
N9    H101  1.031870 S    
C113  C125  1.440971 S    
C88   H56   1.084470 S    
Zn12  O48   2.025950 S    
C189  H104  1.110969 S    
C134  H62   1.083677 S    
C198  H138  1.110707 S    
C75   C79   1.411502 A    
N26   C198  1.446552 S    
O3    C3    1.285059 A    
N3    O53   1.301435 A    
C73   C77   1.411461 A    
C164  C177  1.399399 A    
C129  C132  1.412351 A    
N8    H97   1.030566 S    
N28   C200  1.446694 S    
C74   C78   1.411504 A    
C44   C64   1.390729 A    
C51   C55   1.405798 A    
C194  H122  1.110619 S    
C200  H147  1.110876 S    
C15   H11   1.115635 S    
O40   C118  1.282836 A    
C16   H12   1.116005 S    
C192  H115  1.110299 S    
Zn9   O45   2.026120 S    
C70   C74   1.395470 A    
C196  H130  1.110107 S    
C179  C183  1.412487 A    
C4    C100  1.442686 S    
C29   C37   1.573687 S    
N20   H129  1.031928 S    
C31   C39   1.574009 S    
N17   H117  1.029245 S    
N23   O70   1.300136 A    
C69   C73   1.395452 A    
C174  C180  1.397802 A    
O38   Zn10  2.025444 S    
C11   C15   1.545560 S    
C123  C130  1.391475 A    
C43   H35   1.084153 S    
C12   H4    1.102271 S    
C197  H135  1.110869 S    
C80   C84   1.410048 A    
C20   H28   1.114374 S    
C6    C26   1.466272 S    
O22   Zn6   2.029502 S    
C153  C157  1.394063 A    
C14   C30   1.567647 S    
C66   C70   1.388541 A    
C23   H19   1.114471 S    
O5    Zn3   2.025527 S    
C17   C25   1.562091 S    
O6    Zn3   2.026518 S    
C9    H1    1.108673 S    
C19   C27   1.562039 S    
O43   Zn12  2.022273 S    
C20   C28   1.568305 S    
C16   C32   1.560743 S    
O41   Zn10  2.022273 S    
C58   C62   1.416472 A    
C35   H31   1.109016 S    
C199  H144  1.110908 S    
C19   C35   1.535197 S    
C18   C34   1.535520 S    
N1    O50   1.301137 A    
C124  C126  1.397036 A    
C176  C178  1.413007 A    
N5    C185  1.445477 S    
C134  C140  1.393539 A    
C9    C25   1.563789 S    
C102  H50   1.084832 S    
O13   Zn3   2.028888 S    
C11   C27   1.563708 S    
C13   N17   1.464265 S    
N2    O51   1.301396 A    
C12   C28   1.567708 S    
O19   C106  1.285272 A    
C18   H26   1.115415 S    
O24   Zn8   2.029502 S    
C191  H112  1.110323 S    
C20   N24   1.474550 S    
C179  N13   1.436327 S    
C32   C110  1.468779 S    
C122  C127  1.391581 A    
C156  C158  1.393749 A    
C198  H140  1.110905 S    
C95   C99   1.395174 A    
O5    C1    1.283799 A    
C51   N7    1.426794 S    
C71   C75   1.395328 A    
N23   O69   1.301236 A    
Zn6   O30   2.026335 S    
C21   N25   1.461223 S    
C112  C184  1.453069 S    
C194  H124  1.110386 S    
C48   C118  1.438746 S    
O15   Zn4   2.028888 S    
C136  H64   1.083711 S    
C171  H83   1.082262 S    
C137  H65   1.083731 S    
C59   C79   1.400564 A    
C187  H95   1.110170 S    
C186  H92   1.110198 S    
N4    O56   1.301143 A    
C185  H87   1.110110 S    
C57   C77   1.400193 A    
N16   O64   1.301121 A    
C168  H80   1.083939 S    
C186  H91   1.110151 S    
C9    H5    1.111321 S    
O17   Zn5   2.026820 S    
C41   C45   1.390443 A    
C60   C64   1.416546 A    
N22   O67   1.301244 A    
C105  C151  1.444691 S    
C3    C99   1.439858 S    
C53   C57   1.419403 A    
C24   C40   1.554656 S    
C13   H9    1.115673 S    
C9    C13   1.545377 S    
O14   C6    1.285220 A    
C55   C59   1.419742 A    
C96   C100  1.395960 A    
H16   C36   1.109813 S    
C17   H25   1.115385 S    
O1    Zn1   2.025223 S    
C196  H132  1.110437 S    
O34   C113  1.286249 A    
C69   H41   1.083964 S    
C180  C183  1.412714 A    
C121  C125  1.397150 A    
C175  C178  1.412529 A    
O10   C6    1.278641 A    
C154  H74   1.084711 S    
C32   C40   1.571605 S    
C73   C93   1.389420 A    
O28   C110  1.282582 A    
C148  C151  1.398231 A    
C173  C177  1.412624 A    
C140  C144  1.401079 A    
C61   C89   1.413111 A    
O37   Zn9   2.025441 S    
N18   C194  1.449255 S    
C19   H27   1.115406 S    
O47   C120  1.282642 A    
O25   C107  1.282472 A    
N11   C191  1.447012 S    
C68   H40   1.080670 S    
C199  H142  1.110710 S    
C137  C141  1.401092 A    
C172  C176  1.408114 A    
O35   C114  1.286041 A    
C30   C108  1.470144 S    
N27   H141  1.031038 S    
C166  H78   1.083950 S    
Zn7   O31   2.025341 S    
O45   C119  1.283334 A    
O39   C117  1.283530 A    
O2    C2    1.286814 A    
C22   C26   1.561961 S    
N19   H125  1.029173 S    
C127  C133  1.401128 A    
C148  H70   1.084735 S    
C160  C166  1.395119 A    
C40   H24   1.114985 S    
N7    H93   1.030508 S    
C191  H110  1.111648 S    
C188  H99   1.110037 S    
C122  C125  1.397212 A    
C19   N23   1.470644 S    
C186  H90   1.110726 S    
C20   C36   1.539118 S    
O26   C108  1.282489 A    
N20   C196  1.448648 S    
C161  C164  1.410986 A    
C190  H107  1.110946 S    
C92   N12   1.423826 S    
O32   C112  1.285627 A    
C163  C178  1.399342 A    
C42   C46   1.390235 A    
C182  C184  1.412067 A    
N10   H105  1.031867 S    
C42   H34   1.084252 S    
C14   H10   1.115682 S    
O40   Zn12  2.025444 S    
C189  H102  1.111704 S    
C135  H63   1.083698 S    
C24   N28   1.461289 S    
C29   C33   1.558792 S    
C175  C181  1.396830 A    
O8    C4    1.283894 A    
C5    C25   1.466179 S    
C72   C76   1.395399 A    
O21   C107  1.282079 A    
C7    C27   1.465881 S    
C129  C135  1.401189 A    
N28   H145  1.031052 S    
C8    C28   1.466750 S    
Zn5   O29   2.025341 S    
N21   O66   1.300309 A    
C53   C65   1.408510 A    
C172  H84   1.082046 S    
C55   C67   1.408415 A    
C180  N14   1.436277 S    
C168  C170  1.388009 A    
C93   H45   1.084972 S    
N25   C197  1.446544 S    
O12   Zn2   2.028457 S    
C153  H73   1.084772 S    
C174  C177  1.412462 A    
C169  H81   1.082071 S    
C90   N10   1.424311 S    
C155  H75   1.084933 S    
C193  H120  1.110715 S    
O18   Zn6   2.025828 S    
C156  H76   1.084712 S    
C86   C90   1.396524 A    
C106  C152  1.443888 S    
C23   C39   1.555088 S    
N6    H89   1.030595 S    
C76   C96   1.389295 A    
C18   C26   1.562131 S    
C173  C179  1.397604 A    
O27   Zn8   2.027589 S    
C56   C60   1.419378 A    
O43   C117  1.285494 A    
C49   N5    1.426413 S    
C37   N1    1.470831 S    
C197  H134  1.110703 S    
C21   C37   1.555004 S    
C11   H7    1.111304 S    
O30   C111  1.286323 A    
C37   H21   1.114921 S    
C165  C171  1.388074 A    
C155  C158  1.393743 A    
O1    C1    1.286445 A    
C189  H103  1.110300 S    
C41   C61   1.390641 A    
C156  C161  1.386137 A    
C60   C80   1.400196 A    
C47   C117  1.440602 S    
C176  C182  1.398192 A    
O36   C114  1.285841 A    
C127  C131  1.412425 A    
C10   C26   1.563740 S    
C11   H3    1.108528 S    
C52   C56   1.405534 A    
O24   C110  1.282073 A    
C136  C138  1.393594 A    
C192  H114  1.111704 S    
C103  H51   1.085110 S    
C85   C89   1.396075 A    
C104  H52   1.084807 S    
O35   Zn11  2.026348 S    
C88   C92   1.396131 A    
C21   H17   1.114541 S    
N14   O59   1.299189 A    
O6    C2    1.283936 A    
O4    Zn2   2.024228 S    
N15   O61   1.300722 A    
C139  C143  1.401131 A    
C94   C98   1.396043 A    
C16   N20   1.468929 S    
C123  H59   1.085088 S    
H14   C34   1.112313 S    
C33   H29   1.109554 S    
C2    C98   1.443774 S    
C39   H23   1.114907 S    
C138  H66   1.083729 S    
C82   C102  1.388966 A    
O20   C106  1.285908 A    
C58   C78   1.400295 A    
O2    Zn1   2.024228 S    
O10   Zn1   2.028457 S    
O13   C5    1.285142 A    
C191  H111  1.110972 S    
C22   C38   1.555053 S    
O41   C115  1.285047 A    
C24   H20   1.114863 S    
O21   Zn5   2.029497 S    
N13   O58   1.299184 A    
C138  C142  1.401150 A    
C159  C163  1.411157 A    
C10   C14   1.545317 S    
C121  H57   1.085043 S    
O33   Zn9   2.026348 S    
C120  C158  1.431715 S    
C93   C97   1.395972 A    
C199  H143  1.110861 S    
C162  C164  1.411293 A    
C185  H86   1.110733 S    
C70   H42   1.083970 S    
C30   C38   1.573620 S    
N1    O49   1.301391 A    
O12   C8    1.278190 A    
O15   C7    1.285320 A    
C193  H118  1.110830 S    
C29   C107  1.470229 S    
C32   C36   1.557566 S    
C143  C146  1.411809 A    
C42   C62   1.390947 A    
C130  C136  1.401139 A    
N5    H85   1.030571 S    
O7    C3    1.283746 A    
C14   N18   1.464209 S    
C128  C134  1.401102 A    
C81   C101  1.388493 A    
C62   C90   1.413125 A    
H15   C35   1.112333 S    
C79   C83   1.410931 A    
N9    C189  1.446643 S    
C84   C104  1.388577 A    
C135  C137  1.393596 A    
O44   C118  1.285203 A    
C44   C48   1.390490 A    
C83   C103  1.389727 A    
C181  N15   1.433378 S    
O26   Zn5   2.027590 S    
C198  H139  1.110865 S    
C182  N16   1.436259 S    
C65   C69   1.388665 A    
O39   Zn11  2.025441 S    
C22   N26   1.461230 S    
C22   H18   1.114513 S    
O16   C8    1.285203 A    
C43   C63   1.390918 A    
N10   C190  1.447099 S    
N18   H121  1.029231 S    
C194  H123  1.109624 S    
C57   C61   1.416545 A    
C192  H116  1.110968 S    
C71   H43   1.083989 S    
O11   C7    1.278332 A    
C196  H131  1.106899 S    
C64   C92   1.413129 A    
Zn11  O47   2.026120 S    
O9    Zn1   2.028628 S    
C87   C91   1.396618 A    
C76   C80   1.411422 A    
N17   C193  1.449312 S    
C95   H47   1.085135 S    
C31   C109  1.470520 S    
C49   C53   1.405580 A    
C130  C132  1.412464 A    
O20   Zn8   2.025828 S    
C144  C146  1.412120 A    
C197  H136  1.110908 S    
C67   H39   1.080629 S    
O17   C105  1.285982 A    
C181  C184  1.409457 A    
C171  C175  1.407862 A    
C65   H37   1.080673 S    
O29   C111  1.286447 A    
O46   C119  1.283359 A    
C23   N27   1.461281 S    
C46   C116  1.438140 S    
C161  C167  1.394981 A    
N12   C192  1.446643 S    
C162  C168  1.395025 A    
C143  C149  1.390932 A    
N6    C186  1.445512 S    
O36   Zn12  2.026517 S    
C195  H126  1.110640 S    
C195  H127  1.109489 S    
C12   C16   1.549365 S    
C195  H128  1.110272 S    
N8    C188  1.445423 S    
C166  C172  1.387939 A    
C41   H33   1.084230 S    
C167  C169  1.387707 A    
N11   H109  1.031872 S    
C36   H32   1.107801 S    
C39   N3    1.470799 S    
C40   N4    1.471376 S    
C44   H36   1.084221 S    
C94   H46   1.084947 S    
Zn8   O32   2.026335 S    
C133  H61   1.083683 S    
C142  C145  1.411780 A    
C86   H54   1.084438 S    
O42   C116  1.285386 A    
C54   C58   1.419333 A    
O31   C112  1.286580 A    
C139  H67   1.083705 S    
C140  H68   1.083683 S    
C160  C163  1.411023 A    
C17   C33   1.535708 S    
O14   Zn3   2.029053 S    
O37   C115  1.282907 A    
C82   C86   1.396931 A    
N24   O72   1.301176 A    
C188  H98   1.110733 S    
C147  H69   1.084740 S    
C155  C162  1.386889 A    
C17   N21   1.470726 S    
C124  H60   1.085080 S    
C89   N9    1.423838 S    
N26   H137  1.031030 S    
C190  H106  1.111631 S    
C31   C35   1.558380 S    
N15   O62   1.299359 A    
N13   O57   1.301085 A    
O27   C109  1.282742 A    
C96   H48   1.084977 S    
C38   N2    1.470826 S    
C50   C54   1.405439 A    
C123  C126  1.396999 A    
C12   H8    1.111802 S    
C159  C165  1.395349 A    
C149  C152  1.397934 A    
C131  C146  1.399011 A    
C150  C152  1.398002 A    
C18   N22   1.470639 S    
N2    O52   1.301132 A    
C187  H96   1.110289 S    
C85   H53   1.084474 S    
O22   C108  1.282008 A    
C167  H79   1.083961 S    
N4    O55   1.301250 A    
C98   C102  1.397475 A    
C185  H88   1.110220 S    
N16   O63   1.298778 A    
C59   C63   1.416139 A    
C91   N11   1.424163 S    
C45   C49   1.403729 A    
C68   C72   1.388635 A    
C75   C95   1.388823 A    
