data_mof_unit_24243.cif
_audit_creation_date              2013-03-05T15:45:11-0500
_audit_creation_method            fapswitch 2.2
_symmetry_space_group_name_H-M    P1
_symmetry_Int_Tables_number       1
_space_group_crystal_system       triclinic
_cell_length_a                    11.603092
_cell_length_b                    11.574042
_cell_length_c                    19.498
_cell_angle_alpha                 90.098007
_cell_angle_beta                  89.883849
_cell_angle_gamma                 59.759716
_cell_volume                      2262.14158633

loop_
_atom_site_label
_atom_site_type_symbol
_atom_site_description
_atom_site_fract_x
_atom_site_fract_y
_atom_site_fract_z
_atom_type_partial_charge
O1    O     O_R   0.267740 0.231990 0.575440 -0.492771
O2    O     O_R   0.527280 0.186680 0.570530 -0.483107
C1    C     C_R   0.640444 0.117240 0.599162 0.565808
O3    O     O_R   0.728090 0.003480 0.576380 -0.501087
O4    O     O_R   0.682970 0.789220 0.570490 -0.488883
C2    C     C_R   0.612560 0.745662 0.598402 0.576835
O5    O     O_R   0.499290 0.771920 0.575530 -0.490811
O6    O     O_R   0.285330 0.030900 0.569730 -0.496041
C3    C     C_R   0.240851 0.145291 0.598022 0.560796
O7    O     O_R   0.270980 0.227040 0.423900 -0.478413
O8    O     O_R   0.530280 0.182090 0.430050 -0.474128
C4    C     C_R   0.644835 0.111905 0.401634 0.603428
O9    O     O_R   0.731330 0.998530 0.424830 -0.507926
O10   O     O_R   0.685970 0.784630 0.430010 -0.504313
C5    C     C_R   0.614940 0.742235 0.402828 0.615580
O11   O     O_R   0.502530 0.766960 0.423990 -0.485940
O12   O     O_R   0.288330 0.026310 0.429250 -0.536161
C6    C     C_R   0.246851 0.139829 0.400205 0.569927
Cr1   Cr    Cr6+3 0.404720 0.198220 0.499960 1.092578
Cr2   Cr    Cr6+3 0.698290 0.897110 0.500380 1.067688
Cr3   Cr    Cr6+3 0.396970 0.904720 0.499610 1.061958
O13   O     O_3   0.499990 0.000020 0.499980 -0.297280
C7    C     C_1   0.670145 0.647199 0.860253 0.014933
C8    C     C_1   0.654880 0.683276 0.728331 -0.027716
C9    C     C_1   0.663353 0.667029 0.799679 -0.027053
C10   C     C_1   0.641366 0.703199 0.667781 0.016009
C11   C     C_1   0.126870 0.199278 0.859424 0.014231
C12   C     C_1   0.171317 0.170187 0.727675 -0.026354
C13   C     C_1   0.150239 0.182532 0.798997 -0.026165
C14   C     C_1   0.195006 0.160672 0.667236 0.013457
C15   C     C_1   0.678251 0.191791 0.860870 0.014837
C16   C     C_1   0.658556 0.167264 0.728958 -0.026374
C17   C     C_1   0.665423 0.181275 0.800357 -0.025940
C18   C     C_1   0.653125 0.149496 0.668515 0.013793
C19   C     C_R   0.558259 0.797040 0.286224 -0.125235
H1    H     H_    0.480652 0.895984 0.302131 0.120678
C20   C     C_R   0.572836 0.765430 0.217937 -0.038828
H2    H     H_    0.506140 0.838334 0.181109 0.195753
C21   C     C_R   0.674072 0.640428 0.197510 0.077971
C22   C     C_R   0.756138 0.541505 0.246085 0.013305
C23   C     C_R   0.739941 0.572719 0.316019 0.158200
C24   C     C_R   0.641525 0.701634 0.334122 0.014488
C25   C     C_R   0.235759 0.240124 0.288530 -0.120650
H3    H     H_    0.276214 0.297276 0.311329 0.209937
C26   C     C_R   0.210334 0.254618 0.219222 -0.166177
H4    H     H_    0.219972 0.329859 0.191425 0.241519
C27   C     C_R   0.165260 0.178228 0.186671 -0.030488
C28   C     C_R   0.157351 0.077473 0.224298 0.252288
C29   C     C_R   0.156200 0.081947 0.296574 0.000273
C30   C     C_R   0.204864 0.157938 0.328473 -0.020003
C31   C     C_R   0.724731 0.032040 0.285522 -0.104665
H5    H     H_    0.770671 0.931427 0.305668 0.193503
C32   C     C_R   0.722589 0.048582 0.214811 0.240318
C33   C     C_R   0.654604 0.179390 0.188299 0.016710
C34   C     C_R   0.568608 0.287040 0.231960 0.168248
C35   C     C_R   0.587107 0.272688 0.303474 -0.014289
C36   C     C_R   0.661595 0.142165 0.330431 -0.020438
O14   O     O_R   0.821500 0.119550 0.952820 -0.501120
O15   O     O_R   0.037130 0.162750 0.957360 -0.497500
C37   C     C_R   0.081722 0.231481 0.928708 0.542598
O16   O     O_R   0.056440 0.344950 0.951330 -0.504526
O17   O     O_R   0.797900 0.560570 0.957460 -0.502828
C38   C     C_R   0.683673 0.604944 0.929675 0.545327
O18   O     O_R   0.596140 0.579600 0.952720 -0.501793
O19   O     O_R   0.639070 0.321380 0.958660 -0.502579
C39   C     C_R   0.708263 0.206991 0.930219 0.540512
O20   O     O_R   0.821240 0.124490 0.104360 -0.399761
O21   O     O_R   0.036900 0.167320 0.097830 -0.412876
C40   C     C_R   0.091024 0.230262 0.122409 0.582881
O22   O     O_R   0.056190 0.349890 0.102870 -0.502174
O23   O     O_R   0.797670 0.565150 0.097930 -0.471076
C41   C     C_R   0.684316 0.607897 0.126268 0.622888
O24   O     O_R   0.595880 0.584540 0.104260 -0.462559
O25   O     O_R   0.638830 0.325960 0.099140 -0.424322
C42   C     C_R   0.702431 0.207727 0.123863 0.640960
Cr4   Cr    Cr6+3 0.926180 0.152240 0.028110 1.175535
Cr5   Cr    Cr6+3 0.921340 0.452070 0.027460 1.094614
Cr6   Cr    Cr6+3 0.626260 0.447120 0.028700 1.133678
O26   O     O_3   0.824590 0.350480 0.028090 -0.283636
S1    S     S_3+6 0.772807 0.905331 0.161436 0.026783
O27   O     O_2   0.827085 0.782053 0.205064 -0.308924
O28   O     O_2   0.651624 0.924606 0.123727 -0.336537
O29   O     O_3   0.889713 0.879401 0.102784 -0.428498
H6    H     H_    0.903887 0.800100 0.076334 0.360659
S2    S     S_3+6 0.421048 0.425599 0.198867 -0.021019
O30   O     O_2   0.384641 0.389239 0.131444 -0.299411
O31   O     O_2   0.307084 0.468511 0.248277 -0.339834
O32   O     O_3   0.445510 0.554594 0.188059 -0.475875
H7    H     H_    0.381480 0.608925 0.151743 0.408987
C43   C     C_2   0.534633 0.394291 0.347920 0.320338
H8    H     H_    0.469063 0.492932 0.327194 0.186661
O33   O     O_2   0.570500 0.387388 0.407340 -0.439211
C44   C     C_2   0.852829 0.404066 0.225387 0.279762
H9    H     H_    0.947808 0.351754 0.250863 0.154009
O34   O     O_2   0.823975 0.345642 0.183111 -0.505015
S3    S     S_3+6 0.838541 0.451870 0.380107 0.012589
O35   O     O_2   0.776650 0.489120 0.450351 -0.237719
O36   O     O_2   0.857365 0.317084 0.362194 -0.265970
O37   O     O_3   0.988433 0.440811 0.382635 -0.522052
H10   H     H_    0.969209 0.532192 0.394319 0.352947
S4    S     S_3+6 0.184713 0.929074 0.183729 0.055673
O38   O     O_2   0.053150 0.940752 0.167556 -0.171808
O39   O     O_2   0.263587 0.904019 0.118636 -0.294589
O40   O     O_3   0.269781 0.801030 0.238091 -0.517358
H11   H     H_    0.213958 0.759426 0.244533 0.409599
C45   C     C_2   0.093698 0.019144 0.337924 0.329752
H12   H     H_    0.101057 0.013885 0.393214 0.138443
O41   O     O_2   0.023875 0.980795 0.311169 -0.452436

loop_
_geom_bond_atom_site_label_1
_geom_bond_atom_site_label_2
_geom_bond_distance
_ccdc_geom_bond_type
C15   C39   1.429468 S    
C34   C35   1.408568 A    
S4    O38   1.497434 D    
C11   C13   1.201760 T    
C23   C24   1.391119 A    
O17   Cr5   1.921817 S    
C19   H1    1.085112 S    
Cr4   O26   1.982349 S    
C22   C44   1.466408 S    
O14   Cr4   2.059538 S    
O4    Cr2   1.920428 S    
S2    O30   1.504391 D    
O8    Cr1   1.931977 S    
C44   H9    1.076574 S    
C12   C13   1.406014 S    
C19   C20   1.367603 A    
C20   H2    1.083093 S    
C8    C10   1.198691 T    
C11   C37   1.427240 S    
O4    C2    1.277409 A    
S1    O27   1.502422 D    
C23   S3    1.796299 S    
C45   H12   1.080984 S    
C5    O11   1.254915 A    
S3    O37   1.679222 S    
C35   C36   1.412383 A    
C26   C27   1.386805 A    
C19   C24   1.399118 A    
C27   C40   1.469368 S    
O14   C39   1.268568 A    
O37   H10   0.990772 S    
O16   Cr5   2.055357 S    
O6    C3    1.277356 A    
S3    O36   1.502667 D    
C21   C41   1.427540 S    
C15   C17   1.203141 T    
C31   C36   1.407504 A    
C7    C38   1.421923 S    
O15   C37   1.275756 A    
S4    O39   1.503070 D    
Cr3   O13   1.993387 S    
O22   Cr5   2.039646 S    
S1    O29   1.679403 S    
O40   H11   0.990563 S    
O6    Cr3   1.939205 S    
Cr5   O26   1.993096 S    
O1    Cr1   2.051264 S    
O25   C42   1.279100 A    
S2    O31   1.501692 D    
C31   H5    1.082450 S    
C27   C28   1.420213 A    
O10   Cr2   1.944214 S    
C32   S1    1.786072 S    
O1    C3    1.270599 A    
C8    C9    1.401126 S    
S1    O28   1.502092 D    
C21   C22   1.422625 A    
Cr6   O26   1.988498 S    
O21   C40   1.271070 A    
C1    C18   1.429692 S    
C26   H4    1.078917 S    
O11   Cr3   2.057657 S    
O12   Cr3   1.917889 S    
C38   O18   1.272075 A    
C37   O16   1.270743 A    
C31   C32   1.390820 A    
C16   C18   1.203200 T    
C34   S2    1.778189 S    
C25   H3    1.080793 S    
O17   C38   1.277552 A    
C43   O33   1.220927 D    
O29   H6    0.990677 S    
O7    Cr1   2.051420 S    
O24   Cr6   2.061467 S    
S3    O35   1.503179 D    
Cr1   O13   1.982441 S    
O12   C6    1.282702 A    
C4    O9    1.269272 A    
C25   C26   1.376197 A    
C29   C45   1.494975 S    
C3    C14   1.427160 S    
C4    C36   1.468694 S    
C28   C29   1.409889 A    
Cr2   O13   1.988094 S    
C29   C30   1.406771 A    
S4    O40   1.682330 S    
O20   C42   1.277510 A    
C1    O3    1.269875 A    
O23   Cr5   1.937561 S    
C6    C30   1.462323 S    
S2    O32   1.667820 S    
C33   C34   1.418948 A    
C22   C23   1.397875 A    
O19   Cr6   1.944098 S    
O9    Cr2   2.037577 S    
O2    Cr1   1.936668 S    
O18   Cr6   2.034220 S    
C5    C24   1.400270 S    
C41   O24   1.261339 A    
O8    C4    1.281213 A    
C25   C30   1.408811 A    
C32   C33   1.408187 A    
C2    O5    1.272444 A    
O21   Cr4   1.939326 S    
C16   C17   1.408318 S    
C12   C14   1.201731 T    
O2    C1    1.274074 A    
O23   C41   1.273042 A    
C20   C21   1.384181 A    
O5    Cr3   2.034724 S    
C43   H8    1.083279 S    
C2    C10   1.421908 S    
C45   O41   1.220097 D    
O7    C6    1.262643 A    
C28   S4    1.766808 S    
C35   C43   1.494376 S    
C7    C9    1.198692 T    
C40   O22   1.290081 A    
C33   C42   1.475091 S    
O3    Cr2   2.062941 S    
O32   H7    0.990893 S    
C44   O34   1.214925 D    
O19   C39   1.276698 A    
O25   Cr6   1.917152 S    
O10   C5    1.268520 A    
O20   Cr4   2.045564 S    
O15   Cr4   1.930333 S    
