data_mof_unit_5192.cif
_audit_creation_date              2013-03-05T16:06:20-0500
_audit_creation_method            fapswitch 2.2
_symmetry_space_group_name_H-M    P1
_symmetry_Int_Tables_number       1
_space_group_crystal_system       triclinic
_cell_length_a                    15.010674
_cell_length_b                    15.569831
_cell_length_c                    16.81598
_cell_angle_alpha                 91.458275
_cell_angle_beta                  100.071197
_cell_angle_gamma                 97.533552
_cell_volume                      3831.45043327

loop_
_atom_site_label
_atom_site_type_symbol
_atom_site_description
_atom_site_fract_x
_atom_site_fract_y
_atom_site_fract_z
_atom_type_partial_charge
O1    O     O_R   0.615140 0.606020 0.522930 -0.646718
O2    O     O_R   0.384860 0.393980 0.477070 -0.646067
O3    O     O_R   0.468580 0.639400 0.493740 -0.567007
O4    O     O_R   0.531420 0.360600 0.506260 -0.558182
C1    C     C_R   0.557154 0.661910 0.511483 0.854565
C2    C     C_R   0.442857 0.338177 0.487359 0.860118
O5    O     O_R   0.581950 0.481350 0.400520 -0.604382
O6    O     O_R   0.418050 0.518650 0.599480 -0.603874
O7    O     O_R   0.435380 0.514730 0.371330 -0.546847
O8    O     O_R   0.564620 0.485270 0.628670 -0.549946
C3    C     C_R   0.511321 0.498628 0.349998 0.962567
C4    C     C_R   0.487941 0.499836 0.650489 0.959446
Zn1   Zn    Zn3+2 0.597860 0.477710 0.519490 1.004556
Zn2   Zn    Zn3+2 0.402140 0.522290 0.480510 1.001172
C5    C     C_R   0.518239 0.500666 0.265366 -0.343359
C6    C     C_R   0.473011 0.482433 0.732847 -0.345349
C7    C     C_R   0.542061 0.427854 0.227275 0.488710
C8    C     C_R   0.515648 0.417697 0.775648 0.493752
C9    C     C_R   0.542226 0.427192 0.144707 -0.341784
C10   C     C_R   0.488611 0.390569 0.846895 -0.378055
C11   C     C_R   0.514462 0.496395 0.100028 -0.165968
C12   C     C_R   0.427944 0.433650 0.881162 -0.179893
C13   C     C_R   0.493343 0.570577 0.137669 0.464925
C14   C     C_R   0.385621 0.499673 0.840245 0.486395
C15   C     C_R   0.498162 0.574010 0.221609 0.372130
C16   C     C_R   0.407281 0.523169 0.765023 0.386880
C17   C     C_2   0.504501 0.489747 0.012157 0.531225
C18   C     C_2   0.437591 0.431828 0.969469 0.472043
C19   C     C_R   0.591376 0.753544 0.508811 -0.052214
C20   C     C_R   0.407770 0.246242 0.475237 -0.045310
C21   C     C_R   0.701942 0.867344 0.474893 -0.216951
C22   C     C_R   0.286794 0.126625 0.470309 -0.208630
C23   C     C_R   0.679032 0.781496 0.493541 -0.226255
C24   C     C_R   0.315823 0.215501 0.475150 -0.199017
C25   C     C_R   0.529209 0.812108 0.509448 -0.234342
C26   C     C_R   0.468695 0.188575 0.465056 -0.291971
C27   C     C_R   0.547415 0.896054 0.483821 0.075631
C28   C     C_R   0.441573 0.099126 0.460662 0.085679
C29   C     C_R   0.636265 0.924442 0.468564 0.173791
C30   C     C_R   0.349738 0.068331 0.466167 0.186492
C31   C     C_R   0.479647 0.952183 0.473302 0.073627
C32   C     C_R   0.505280 0.040044 0.457774 0.069487
C33   C     C_R   0.593867 0.066023 0.440950 -0.252407
C34   C     C_R   0.386842 0.923088 0.476404 -0.242392
C35   C     C_R   0.657925 0.008824 0.445942 -0.241962
C36   C     C_R   0.322723 0.980094 0.470723 -0.247174
H1    H     H_    0.724949 0.030985 0.432467 0.146429
H2    H     H_    0.252494 0.955382 0.473789 0.144321
H3    H     H_    0.769714 0.888238 0.462543 0.136287
H4    H     H_    0.216178 0.103489 0.473227 0.134486
H5    H     H_    0.614904 0.129616 0.421156 0.151507
H6    H     H_    0.360825 0.856180 0.481857 0.150693
N1    N     N_R   0.271750 0.551950 0.454510 -0.137246
N2    N     N_R   0.728250 0.448050 0.545490 -0.137023
C37   C     C_R   0.166202 0.634235 0.379662 -0.443219
C38   C     C_R   0.832012 0.360443 0.615057 -0.456811
C39   C     C_R   0.255718 0.613995 0.400181 0.688366
C40   C     C_R   0.742731 0.379626 0.592552 0.681035
C41   C     C_R   0.206626 0.510211 0.491062 -0.197084
C42   C     C_R   0.794829 0.493887 0.513373 -0.164018
C43   C     C_R   0.116803 0.530735 0.475097 -0.002136
C44   C     C_R   0.884495 0.472640 0.528705 0.002968
C45   C     C_R   0.097740 0.593956 0.417844 0.126107
C46   C     C_R   0.902424 0.406118 0.582699 0.125508
C47   C     C_R   0.045654 0.490312 0.512852 0.100507
C48   C     C_R   0.956102 0.514338 0.492308 0.101981
C49   C     C_R   0.940557 0.577603 0.434642 -0.237738
C50   C     C_R   0.060858 0.426280 0.569854 -0.256400
C51   C     C_R   0.010212 0.616490 0.398328 -0.187931
C52   C     C_R   0.990274 0.384757 0.603549 -0.188495
H7    H     H_    0.995195 0.664591 0.354204 0.139138
H8    H     H_    0.004528 0.334736 0.645817 0.138324
H9    H     H_    0.874835 0.598035 0.414936 0.133608
H10   H     H_    0.126395 0.405447 0.589333 0.128206
O9    O     O_3   0.567116 0.358106 0.271051 -0.587983
C53   C     C_3   0.490177 0.294013 0.264200 -0.284745
H11   H     H_    0.465542 0.269433 0.200351 0.174250
H12   H     H_    0.434023 0.318634 0.289478 0.149693
H13   H     H_    0.510143 0.238366 0.299792 0.184013
O10   O     O_3   0.583196 0.379694 0.747695 -0.545648
C54   C     C_3   0.668397 0.414415 0.794840 -0.196410
H14   H     H_    0.673262 0.396890 0.859000 0.119282
H15   H     H_    0.681662 0.486146 0.791086 0.148971
H16   H     H_    0.723474 0.386523 0.771352 0.187463
H17   H     H_    0.775056 0.545917 0.476366 0.145923
H18   H     H_    0.227813 0.461882 0.532018 0.149562
O11   O     O_3   0.669052 0.335637 0.621101 -0.545294
C55   C     C_3   0.671703 0.245306 0.621954 -0.282556
H19   H     H_    0.601860 0.212308 0.623174 0.210410
H20   H     H_    0.716332 0.228882 0.677784 0.151054
H21   H     H_    0.693268 0.219462 0.566968 0.136510
O12   O     O_3   0.329000 0.650855 0.365769 -0.546036
C56   C     C_3   0.314820 0.728953 0.327705 -0.251697
H22   H     H_    0.381599 0.762800 0.318435 0.216596
H23   H     H_    0.286125 0.774027 0.365515 0.114835
H24   H     H_    0.270735 0.715090 0.267238 0.172225
H25   H     H_    0.148737 0.680402 0.334428 0.146797
H26   H     H_    0.846726 0.310235 0.656829 0.149838
O13   O     O_3   0.374225 0.593852 0.727430 -0.567959
C57   C     C_3   0.279007 0.575034 0.699635 -0.189985
H27   H     H_    0.255545 0.505282 0.681272 0.101013
H28   H     H_    0.260801 0.612939 0.645641 0.176332
H29   H     H_    0.241428 0.596399 0.746076 0.188689
O14   O     O_3   0.478218 0.647196 0.259432 -0.548825
C58   C     C_3   0.561018 0.695898 0.298774 -0.306428
H30   H     H_    0.610089 0.710939 0.256900 0.120710
H31   H     H_    0.594046 0.661874 0.350705 0.151804
H32   H     H_    0.546094 0.758503 0.322590 0.194283
O15   O     O_3   0.382148 0.375474 0.009712 -0.636490
C59   C     C_3   0.338047 0.302239 0.960333 -0.352749
H33   H     H_    0.288373 0.320689 0.908687 0.164307
H34   H     H_    0.299084 0.258481 0.997028 0.198115
H35   H     H_    0.388503 0.265317 0.938665 0.171201
O16   O     O_3   0.555938 0.549722 0.972405 -0.597691
C60   C     C_3   0.649713 0.546290 0.999534 -0.379205
H36   H     H_    0.672159 0.573322 0.062743 0.166640
H37   H     H_    0.689176 0.586602 0.960691 0.199702
H38   H     H_    0.666295 0.478940 0.994299 0.147586
O17   O     O_3   0.456077 0.633371 0.090754 -0.552657
C61   C     C_3   0.521837 0.707262 0.092142 -0.168768
H39   H     H_    0.593625 0.692804 0.101041 0.110453
H40   H     H_    0.514333 0.755471 0.139390 0.164463
H41   H     H_    0.508289 0.737723 0.033109 0.198282
O18   O     O_3   0.336350 0.551955 0.878503 -0.554550
C62   C     C_3   0.252330 0.504418 0.887902 -0.319315
H42   H     H_    0.221781 0.457554 0.835982 0.110354
H43   H     H_    0.202935 0.550778 0.891835 0.190910
H44   H     H_    0.260204 0.470627 0.945386 0.220496
H45   H     H_    0.522907 0.341971 0.880298 0.169316
H46   H     H_    0.560369 0.371208 0.114779 0.181153
H47   H     H_    0.538681 0.215027 0.465463 0.169127
H48   H     H_    0.465818 0.789545 0.528694 0.163126
H49   H     H_    0.267338 0.259802 0.481692 0.156369
H50   H     H_    0.728182 0.736522 0.492769 0.154631

loop_
_geom_bond_atom_site_label_1
_geom_bond_atom_site_label_2
_geom_bond_distance
_ccdc_geom_bond_type
O11   C55   1.412573 S    
C56   H22   1.107767 S    
C39   O12   1.395795 S    
C31   C32   1.415236 A    
C53   H13   1.109251 S    
C38   H26   1.082709 S    
C10   H45   1.084308 S    
O7    Zn2   1.989569 S    
C33   H5    1.078166 S    
C40   O11   1.388013 S    
O16   C60   1.410242 S    
N1    C41   1.348938 A    
N2    C42   1.349509 A    
O5    C3    1.299830 A    
C58   H31   1.109059 S    
O1    C1    1.304016 A    
C9    C11   1.395908 A    
C53   H12   1.113502 S    
C28   C32   1.416940 A    
C13   O17   1.385471 S    
C5    C15   1.411298 A    
C50   H10   1.075478 S    
C60   H36   1.111409 S    
C19   C23   1.400102 A    
C14   O18   1.386057 S    
C42   C44   1.409689 A    
O4    Zn1   1.947762 S    
C51   H7    1.084569 S    
C59   H33   1.111376 S    
O12   C56   1.411886 S    
C44   C46   1.416001 A    
C3    C5    1.445799 S    
C23   H50   1.083123 S    
C4    C6    1.467449 S    
C34   C36   1.385424 A    
C60   H37   1.109131 S    
C37   C45   1.394241 A    
C62   H44   1.107885 S    
C38   C46   1.393796 A    
C49   H9    1.075910 S    
C46   C52   1.389865 A    
C38   C40   1.400643 A    
C61   H41   1.109232 S    
C16   O13   1.387758 S    
C29   C35   1.390408 A    
C60   H38   1.113890 S    
C9    H46   1.084013 S    
C13   C15   1.399983 A    
C48   C49   1.412372 A    
C11   C17   1.458550 S    
C56   H23   1.111143 S    
C12   C18   1.467960 S    
O2    C2    1.302319 A    
C21   H3    1.083709 S    
C57   H28   1.109127 S    
O14   C58   1.413222 S    
C54   H15   1.113836 S    
C61   H40   1.109271 S    
C54   H14   1.111968 S    
C1    C19   1.456230 S    
C35   H1    1.084099 S    
C6    C16   1.414873 A    
C58   H32   1.108817 S    
C36   H2    1.084279 S    
C41   C43   1.408149 A    
C44   C48   1.420838 A    
C45   C51   1.390292 A    
C53   H11   1.113155 S    
O4    C2    1.309606 A    
C26   H47   1.075723 S    
C20   C24   1.400015 A    
C24   H49   1.083187 S    
C57   H29   1.108513 S    
C49   C51   1.381610 A    
C22   C24   1.391089 A    
C30   C36   1.388487 A    
O9    C53   1.410084 S    
O7    C3    1.305496 A    
O13   C57   1.413070 S    
C55   H21   1.114242 S    
O6    C4    1.304165 A    
C47   C50   1.413026 A    
C37   H25   1.082366 S    
C21   C23   1.393461 A    
C33   C35   1.387391 A    
C59   H35   1.112150 S    
C22   H4    1.083845 S    
O3    Zn2   1.947759 S    
O8    C4    1.312548 A    
C8    O10   1.381668 S    
C2    C20   1.455266 S    
C55   H20   1.110296 S    
C56   H24   1.111056 S    
C11   C13   1.401475 A    
C62   H42   1.115703 S    
C31   C34   1.417641 A    
C12   C14   1.410010 A    
O1    Zn1   1.978555 S    
C32   C33   1.417128 A    
C54   H16   1.108030 S    
C61   H39   1.114985 S    
C7    O9    1.383330 S    
Zn1   N2    2.045288 S    
N2    C40   1.360881 A    
C5    C7    1.404562 A    
O6    Zn2   1.976070 S    
C25   C27   1.394598 A    
C43   C45   1.415442 A    
C14   C16   1.405623 A    
C10   C12   1.391144 A    
O10   C54   1.413746 S    
O3    C1    1.308937 A    
O8    Zn1   1.989568 S    
N1    C39   1.361904 A    
O17   C61   1.411143 S    
C15   O14   1.382664 S    
C18   O15   1.398629 S    
C58   H30   1.112571 S    
C19   C25   1.388701 A    
C20   C26   1.390704 A    
C37   C39   1.406525 A    
C41   H18   1.074336 S    
C27   C29   1.418028 A    
O15   C59   1.410503 S    
C28   C30   1.418558 A    
C34   H6    1.075589 S    
C26   C28   1.395136 A    
C57   H27   1.115098 S    
C7    C9    1.388688 A    
C21   C29   1.404094 A    
C8    C10   1.389033 A    
C22   C30   1.402142 A    
C27   C31   1.416983 A    
O2    Zn2   1.978558 S    
C59   H34   1.109108 S    
C17   O16   1.392195 S    
C43   C47   1.421625 A    
O5    Zn1   1.976070 S    
Zn2   N1    2.045288 S    
C55   H19   1.109198 S    
C6    C8    1.410135 A    
C47   C48   1.429086 A    
C17   C18   1.347098 D    
C62   H43   1.109159 S    
C50   C52   1.382233 A    
C42   H17   1.075043 S    
C52   H8    1.084541 S    
C25   H48   1.076759 S    
O18   C62   1.412198 S    
