data_mof_unit_38980.cif
_audit_creation_date              2012-10-26T20:03:18-0400
_audit_creation_method            fapswitch 2.2
_symmetry_space_group_name_H-M    P1
_symmetry_Int_Tables_number       1
_space_group_crystal_system       triclinic
_cell_length_a                    10.614161
_cell_length_b                    12.343396
_cell_length_c                    13.186777
_cell_angle_alpha                 116.605386
_cell_angle_beta                  77.945556
_cell_angle_gamma                 101.761966
_cell_volume                      1498.591256

loop_
_atom_site_label
_atom_site_type_symbol
_atom_type_description
_atom_site_fract_x
_atom_site_fract_y
_atom_site_fract_z
_atom_type_partial_charge
C1    C     C_R   0.515078 0.854763 0.286463 0.564302
C2    C     C_R   0.531162 0.562488 0.015406 -0.022782
C3    C     C_R   0.477108 0.648831 0.121892 -0.024989
C4    C     C_R   0.740071 0.001706 0.502364 0.533690
C5    C     C_R   0.480633 0.436959 0.979773 -0.028892
C6    C     C_R   0.384440 0.398847 0.054151 0.013974
C7    C     C_R   0.327601 0.485820 0.156141 0.272549
C8    C     C_R   0.364345 0.609930 0.182480 0.282212
C9    C     C_R   0.518124 0.348474 0.870005 -0.125507
C10   C     C_R   0.378637 0.188452 0.912185 -0.137498
C11   C     C_R   0.535313 0.772350 0.164066 0.005222
C12   C     C_3   0.012954 0.902183 0.514052 -0.141453
C13   C     C_R   0.706065 0.348371 0.329261 -0.150116
C14   C     C_R   0.323699 0.758045 0.644855 0.437557
C15   C     C_R   0.290314 0.660681 0.677701 -0.155989
C16   C     C_R   0.483091 0.144900 0.713267 0.553215
C17   C     C_R   0.356288 0.558739 0.622624 -0.192164
C18   C     C_R   0.459654 0.551556 0.534718 -0.032406
C19   C     C_R   0.494092 0.653578 0.505560 0.122628
C20   C     C_R   0.530557 0.447372 0.475335 -0.009501
C21   C     C_R   0.634641 0.447899 0.388647 0.034323
C22   C     C_R   0.667323 0.547814 0.361749 -0.174955
C23   C     C_3   0.953676 0.901061 0.415828 -0.150049
C24   C     C_R   0.599073 0.648031 0.418818 -0.102679
C25   C     C_R   0.503166 0.341740 0.497609 0.040212
C26   C     C_R   0.674596 0.248045 0.355554 0.036912
C27   C     C_R   0.259435 0.999894 0.499919 0.601508
C28   C     C_3   0.985555 0.102149 0.490449 -0.106192
C29   C     C_3   0.064929 0.998644 0.402235 -0.168262
C30   C     C_3   0.122078 0.999918 0.500586 0.064716
C31   C     C_3   0.043110 0.101061 0.587645 0.287986
C32   C     C_3   0.933114 0.004990 0.603309 -0.123731
C33   C     C_3   0.203102 0.713018 0.198959 -0.117121
C34   C     C_3   0.876712 0.003901 0.504352 0.010726
C35   C     C_3   0.127718 0.838267 0.727998 -0.143106
C36   C     C_3   0.007040 0.283822 0.741724 -0.127266
C37   C     C_3   0.256050 0.468099 0.323476 -0.103995
C38   C     C_R   0.339352 0.274022 0.021366 -0.114314
C39   C     C_R   0.463234 0.226764 0.834706 0.005379
C40   C     C_R   0.631912 0.811888 0.093391 -0.144350
C41   C     C_R   0.679149 0.728992 0.985969 -0.141672
C42   C     C_R   0.633116 0.605401 0.948553 -0.107789
Cu1   Cu    Cu3+1 0.529830 0.098270 0.475420 0.937525
Cu2   Cu    Cu3+1 0.470170 0.901730 0.524580 1.012046
H1    H     H_    0.121604 0.995253 0.320169 0.108261
H2    H     H_    0.971705 0.184005 0.481400 0.112317
H3    H     H_    0.325026 0.487480 0.651757 0.123774
H4    H     H_    0.214013 0.663583 0.747206 0.095457
H5    H     H_    0.632990 0.719290 0.391660 0.177129
H6    H     H_    0.876540 0.008319 0.685377 0.100590
H7    H     H_    0.026645 0.819211 0.521088 0.133527
H8    H     H_    0.911196 0.818905 0.345787 0.102343
H9    H     H_    0.336284 0.093935 0.886181 0.162444
H10   H     H_    0.268490 0.242737 0.077778 0.153889
H11   H     H_    0.155060 0.626631 0.136464 0.123989
H12   H     H_    0.584011 0.372523 0.807183 0.118101
H13   H     H_    0.260360 0.769647 0.154983 0.102806
H14   H     H_    0.125092 0.764018 0.259780 0.136258
H15   H     H_    0.104065 0.828578 0.809868 0.097959
H16   H     H_    0.084500 0.756167 0.657833 0.095409
H17   H     H_    0.082075 0.917255 0.740182 0.147707
H18   H     H_    0.922948 0.239285 0.781548 0.111758
H19   H     H_    0.973682 0.319968 0.689638 0.106975
H20   H     H_    0.052646 0.362866 0.812038 0.139967
H21   H     H_    0.274728 0.567040 0.380050 0.173466
H22   H     H_    0.341985 0.421628 0.309245 0.109837
H23   H     H_    0.676793 0.905993 0.123866 0.121704
H24   H     H_    0.174179 0.427902 0.368732 0.129485
H25   H     H_    0.681187 0.546332 0.867629 0.098974
H26   H     H_    0.756610 0.759899 0.933413 0.107556
H27   H     H_    0.729534 0.171152 0.309924 0.119164
H28   H     H_    0.747199 0.548844 0.295600 0.110208
H29   H     H_    0.785970 0.348256 0.262879 0.105245
H30   H     H_    0.425256 0.333109 0.561526 0.139717
N1    N     N_R   0.575030 0.246270 0.438190 -0.239216
N2    N     N_R   0.425760 0.754330 0.561190 -0.225829
O1    O     O_R   0.537510 0.972500 0.318130 -0.518804
O2    O     O_3   0.263342 0.863501 0.701842 -0.528099
O3    O     O_3   0.100268 0.203611 0.676066 -0.563637
O4    O     O_3   0.220313 0.449639 0.219253 -0.569631
O5    O     O_R   0.487140 0.806530 0.359650 -0.492825
O6    O     O_R   0.708330 0.082950 0.479220 -0.516590
O7    O     O_R   0.657960 0.916980 0.520740 -0.530661
O8    O     O_R   0.512860 0.193470 0.640350 -0.513649
O9    O     O_R   0.462490 0.027500 0.681870 -0.456097
O10   O     O_R   0.342040 0.083020 0.479260 -0.498177
O11   O     O_R   0.291670 0.917050 0.520780 -0.446434
O12   O     O_3   0.281114 0.691341 0.260731 -0.536273

loop_
_geom_bond_atom_site_label_1
_geom_bond_atom_site_label_2
_ccdc_geom_bond_type
C33   H11   S    
C33   H14   S    
C26   H27   S    
C1    O1    A    
C41   C42   A    
C1    C11   S    
C9    C39   A    
Cu2   O7    S    
C7    C8    A    
C12   C23   S    
C28   H2    S    
C23   C29   S    
C28   C29   S    
C33   O12   S    
C18   C19   A    
C5    C6    A    
C20   C25   A    
C1    O5    A    
C37   H24   S    
C16   O8    A    
C35   H15   S    
C25   H30   S    
Cu2   N2    S    
C10   H9    S    
C40   H23   S    
C37   H21   S    
C6    C38   A    
Cu2   O11   S    
C28   C34   S    
C21   C22   A    
C12   C32   S    
C27   C30   S    
Cu1   O8    S    
C15   H4    S    
C36   H18   S    
C22   H28   S    
C7    O4    S    
C17   C18   A    
Cu1   N1    S    
C37   O4    S    
C4    C34   S    
Cu2   O5    S    
C42   H25   S    
C29   H1    S    
C35   H16   S    
C8    O12   S    
C14   N2    A    
C27   O10   A    
Cu1   Cu2   S    
C5    C9    A    
C29   C30   S    
C31   C32   S    
C38   H10   S    
C23   C34   S    
C37   H22   S    
C26   N1    A    
C13   C21   A    
C35   H17   S    
C9    H12   S    
C27   O11   A    
C32   H6    S    
C40   C41   A    
C13   H29   S    
C3    C8    A    
C16   O9    A    
C22   C24   A    
C13   C26   A    
C2    C5    A    
Cu2   O9    S    
C36   H19   S    
C12   H7    S    
C24   H5    S    
C15   C17   A    
C19   N2    A    
C33   H13   S    
C12   C30   S    
Cu1   O10   S    
C28   C31   S    
C17   H3    S    
C36   O3    S    
C31   O3    S    
C6    C7    A    
Cu1   O1    S    
C35   O2    S    
C10   C38   A    
C19   C24   A    
C23   H8    S    
C30   C31   S    
C4    O7    A    
C2    C42   A    
C2    C3    A    
C18   C20   A    
C14   O2    S    
C11   C40   A    
C3    C11   A    
C16   C39   S    
C4    O6    A    
C20   C21   A    
Cu1   O6    S    
C14   C15   A    
C10   C39   A    
C25   N1    A    
C36   H20   S    
C32   C34   S    
C41   H26   S    
