data_mof_unit_30114.cif
_audit_creation_date              2012-12-11T17:44:07-0500
_audit_creation_method            fapswitch 2.2
_symmetry_space_group_name_H-M    P1
_symmetry_Int_Tables_number       1
_space_group_crystal_system       triclinic
_cell_length_a                    20.193611
_cell_length_b                    22.828637
_cell_length_c                    6.940955
_cell_angle_alpha                 89.917065
_cell_angle_beta                  86.858214
_cell_angle_gamma                 89.96972
_cell_volume                      3194.9160225

loop_
_atom_site_label
_atom_site_type_symbol
_atom_type_description
_atom_site_fract_x
_atom_site_fract_y
_atom_site_fract_z
_atom_type_partial_charge
O1    O     O_R   0.751270 0.447300 0.600030 -0.531358
O2    O     O_R   0.248730 0.947300 0.399970 -0.541687
O3    O     O_R   0.613530 0.440160 0.952150 -0.541611
O4    O     O_R   0.386470 0.940160 0.047850 -0.535547
O5    O     O_R   0.613050 0.552700 0.122560 -0.538518
O6    O     O_R   0.386950 0.052700 0.877440 -0.534241
C1    C     C_R   0.592015 0.425061 0.786991 0.784008
C2    C     C_R   0.408302 0.925373 0.213477 0.687032
O7    O     O_R   0.750780 0.440350 0.929820 -0.546799
O8    O     O_R   0.249220 0.940350 0.070180 -0.543911
O9    O     O_R   0.751280 0.552900 0.100070 -0.545677
O10   O     O_R   0.248720 0.052900 0.899930 -0.542401
C3    C     C_R   0.773959 0.426150 0.757468 0.754375
C4    C     C_R   0.226144 0.926044 0.242676 0.687576
O11   O     O_R   0.613040 0.447100 0.622520 -0.526612
O12   O     O_R   0.386960 0.947100 0.377480 -0.534157
O13   O     O_3   0.682160 0.536920 0.777780 -0.377320
O14   O     O_3   0.317840 0.036920 0.222220 -0.367967
V1    V     V_3+5 0.682160 0.493150 0.052630 1.438819
V2    V     V_3+5 0.317840 0.993150 0.947370 1.428464
O15   O     O_R   0.750790 0.559840 0.429870 -0.547741
O16   O     O_R   0.249210 0.059840 0.570130 -0.544314
C5    C     C_R   0.773812 0.574203 0.257366 0.679443
C6    C     C_R   0.226206 0.074217 0.742502 0.688098
O17   O     O_R   0.613540 0.559650 0.452200 -0.539159
O18   O     O_R   0.386460 0.059650 0.547800 -0.537046
C7    C     C_R   0.591504 0.574225 0.286880 0.687804
C8    C     C_R   0.408503 0.074126 0.712955 0.692472
V3    V     V_3+5 0.682160 0.506850 0.552630 1.450266
V4    V     V_3+5 0.317840 0.006850 0.447370 1.420656
O19   O     O_3   0.682150 0.463080 0.277610 -0.359171
O20   O     O_3   0.317850 0.963080 0.722390 -0.365595
C9    C     C_R   0.578420 0.860147 0.226977 -0.158069
C10   C     C_R   0.424731 0.356125 0.871962 -0.153471
H1    H     H_    0.536942 0.946333 0.240644 0.112253
H2    H     H_    0.467503 0.440187 0.917129 0.115605
H3    H     H_    0.670394 0.777420 0.208196 0.128107
H4    H     H_    0.332013 0.274686 0.861903 0.125795
H5    H     H_    0.628673 0.876700 0.229187 0.117548
H6    H     H_    0.375871 0.370837 0.923371 0.119110
C11   C     C_R   0.461163 0.880637 0.216794 -0.107161
C12   C     C_R   0.539556 0.379891 0.789844 -0.071167
C13   C     C_R   0.472562 0.595383 0.337329 -0.176418
C14   C     C_R   0.528216 0.093473 0.692595 -0.165307
C15   C     C_R   0.419180 0.633612 0.360728 -0.107638
C16   C     C_R   0.582727 0.129972 0.706661 -0.114061
C17   C     C_R   0.427884 0.693469 0.329503 -0.064677
C18   C     C_R   0.574135 0.190031 0.732935 -0.176877
C19   C     C_R   0.490138 0.716685 0.265273 0.090784
C20   C     C_R   0.510389 0.215906 0.737093 0.064226
C21   C     C_R   0.545789 0.677682 0.256271 0.058532
C22   C     C_R   0.454423 0.177393 0.739653 0.081489
C23   C     C_R   0.500064 0.778221 0.229226 0.067914
C24   C     C_R   0.500233 0.278095 0.757057 -0.008963
C25   C     C_R   0.566188 0.799774 0.224530 0.120922
C26   C     C_R   0.435521 0.297804 0.816907 0.141586
C27   C     C_R   0.619954 0.761012 0.218818 -0.189099
C28   C     C_R   0.381680 0.259194 0.822574 -0.188717
C29   C     C_R   0.609933 0.700844 0.226842 -0.185817
C30   C     C_R   0.390565 0.200405 0.777249 -0.191689
C31   C     C_R   0.447809 0.819788 0.201714 -0.078858
C32   C     C_R   0.551059 0.321612 0.722989 -0.065294
C33   C     C_R   0.526237 0.899915 0.232349 -0.167715
C34   C     C_R   0.476825 0.395836 0.867039 -0.213133
C35   C     C_R   0.536178 0.616620 0.288244 -0.084045
C36   C     C_R   0.463948 0.116164 0.712815 -0.086778
H7    H     H_    0.464669 0.549093 0.364833 0.107834
H8    H     H_    0.536125 0.046832 0.673432 0.105868
H9    H     H_    0.385796 0.721174 0.365996 0.121423
H10   H     H_    0.618042 0.214831 0.760018 0.136442
H11   H     H_    0.370811 0.616882 0.407896 0.127517
H12   H     H_    0.632137 0.111401 0.701254 0.125922
H13   H     H_    0.653221 0.672748 0.220513 0.110221
H14   H     H_    0.347131 0.172535 0.781479 0.108924
C37   C     C_R   0.171161 0.882356 0.260999 -0.047883
C38   C     C_R   0.828923 0.382461 0.739270 -0.032889
C39   C     C_R   0.144078 0.858100 0.096185 -0.207512
C40   C     C_R   0.856818 0.358869 0.904064 -0.216103
C41   C     C_R   0.091722 0.817733 0.113685 -0.139133
C42   C     C_R   0.909122 0.318439 0.886466 -0.140353
C43   C     C_R   0.065020 0.800496 0.297568 0.426753
C44   C     C_R   0.934921 0.300490 0.702511 0.426627
C45   C     C_R   0.092349 0.824465 0.461218 -0.180850
C46   C     C_R   0.906798 0.323822 0.538918 -0.187099
C47   C     C_R   0.144597 0.864818 0.443778 -0.195175
C48   C     C_R   0.854605 0.364231 0.556450 -0.168857
C49   C     C_R   0.908327 0.682429 0.386296 -0.143593
C50   C     C_R   0.091432 0.182314 0.613463 -0.143244
C51   C     C_R   0.856035 0.641999 0.403828 -0.218004
C52   C     C_R   0.143666 0.141813 0.595883 -0.216581
C53   C     C_R   0.934720 0.699967 0.202391 0.427558
C54   C     C_R   0.065519 0.200155 0.797414 0.427748
N1    N     N_2   0.011390 0.759757 0.325644 -0.308676
N2    N     N_2   0.988436 0.259651 0.674315 -0.308255
N3    N     N_2   0.988332 0.740725 0.174291 -0.308607
N4    N     N_2   0.012023 0.241012 0.825598 -0.309096
C55   C     C_R   0.828706 0.617980 0.239024 -0.044822
C56   C     C_R   0.171375 0.118037 0.760692 -0.046574
H15   H     H_    0.837220 0.629411 0.546986 0.131670
H16   H     H_    0.162127 0.128973 0.452738 0.132483
H17   H     H_    0.927924 0.699669 0.516711 0.134558
H18   H     H_    0.071512 0.199379 0.483075 0.134410
H19   H     H_    0.072812 0.811889 0.603717 0.120589
H20   H     H_    0.925648 0.310682 0.396403 0.120309
H21   H     H_    0.164001 0.882402 0.574047 0.134054
H22   H     H_    0.834510 0.381272 0.426211 0.134556
C57   C     C_R   0.854949 0.635827 0.056227 -0.200307
C58   C     C_R   0.145602 0.136185 0.943509 -0.200097
C59   C     C_R   0.907142 0.676236 0.038756 -0.184028
C60   C     C_R   0.093485 0.176670 0.961022 -0.184506
H23   H     H_    0.835338 0.618442 0.925968 0.131782
H24   H     H_    0.165543 0.118998 0.073767 0.133368
H25   H     H_    0.072341 0.800283 0.983266 0.134662
H26   H     H_    0.929176 0.301507 0.016843 0.135309
H27   H     H_    0.926445 0.689038 0.896243 0.120487
H28   H     H_    0.074547 0.189727 0.103537 0.120388
H29   H     H_    0.163157 0.870435 0.953041 0.133930
H30   H     H_    0.838438 0.371789 0.047207 0.134095
C61   C     C_2   0.382625 0.802399 0.130157 0.352094
H31   H     H_    0.338161 0.827009 0.172047 0.028259
O21   O     O_2   0.378592 0.762070 0.015986 -0.521337
C62   C     C_2   0.610899 0.308912 0.595330 0.313679
H32   H     H_    0.607376 0.278375 0.476611 0.070567
O22   O     O_2   0.664660 0.330728 0.623638 -0.537606

loop_
_geom_bond_atom_site_label_1
_geom_bond_atom_site_label_2
_ccdc_geom_bond_type
C9    C25   A    
C10   C26   A    
C44   N2    S    
C49   C53   A    
C31   C61   S    
O13   V3    S    
C50   C52   A    
C14   C36   A    
C11   C31   A    
O4    C2    A    
V1    O19   S    
C17   C19   A    
C30   H14   S    
O9    V1    S    
C9    H5    S    
C45   H19   S    
C51   H15   S    
C41   H25   S    
C6    C56   S    
C38   C40   A    
C40   H30   S    
C46   C48   A    
O3    C1    A    
C40   C42   A    
C27   C29   A    
C15   H11   S    
C28   C30   A    
C54   N4    S    
C56   C58   A    
C21   C35   A    
C15   C17   A    
C52   H16   S    
C37   C39   A    
O7    C3    A    
C17   H9    S    
C22   C30   A    
C49   H17   S    
C23   C31   A    
O7    V1    S    
O6    C8    A    
C50   C54   A    
O8    V2    S    
C19   C21   A    
C20   C22   A    
O3    V1    S    
O14   V4    S    
C12   C32   A    
C16   H12   S    
C9    C33   A    
C18   C20   A    
C2    O12   A    
O5    C7    A    
C57   C59   A    
C48   H22   S    
C47   H21   S    
C10   C34   A    
O18   C8    A    
C43   C45   A    
C14   C16   A    
O11   V3    S    
C16   C18   A    
C23   C25   A    
O17   V3    S    
C24   C26   A    
C2    C11   S    
C42   C44   A    
O8    C4    A    
C41   C43   A    
C1    O11   A    
C24   C32   A    
O15   V3    S    
C58   H24   S    
C51   C55   A    
O4    V2    S    
C8    C36   S    
C1    C12   S    
C7    C35   S    
C43   N1    S    
C3    C38   S    
C13   C35   A    
O10   V2    S    
O1    V3    S    
C39   C41   A    
C20   C24   A    
N2    N4    D    
C13   C15   A    
C61   O21   D    
C45   C47   A    
C42   H26   S    
O18   V4    S    
C44   C46   A    
C25   C27   A    
C46   H20   S    
O16   C6    A    
C14   H8    S    
O1    C3    A    
C11   C33   A    
C62   O22   D    
C60   H28   S    
C32   C62   S    
C22   C36   A    
C37   C47   A    
V2    O20   S    
C29   H13   S    
O16   V4    S    
C5    C55   S    
C57   H23   S    
C18   H10   S    
C12   C34   A    
C50   H18   S    
C61   H31   S    
C58   C60   A    
O5    V1    S    
O17   C7    A    
O6    V2    S    
O10   C6    A    
C39   H29   S    
O2    V4    S    
C4    C37   S    
C53   C59   A    
O15   C5    A    
V3    O19   S    
V4    O20   S    
C54   C60   A    
N1    N3    D    
C19   C23   A    
O9    C5    A    
O13   V1    S    
C26   C28   A    
O14   V2    S    
O2    C4    A    
C59   H27   S    
C53   N3    S    
C55   C57   A    
C21   C29   A    
C13   H7    S    
C38   C48   A    
C49   C51   A    
C10   H6    S    
H1    C33   S    
C62   H32   S    
H2    C34   S    
O12   V4    S    
H4    C28   S    
C52   C56   A    
H3    C27   S    
