data_mof_unit_36631.cif
_audit_creation_date              2012-12-11T14:33:13-0500
_audit_creation_method            fapswitch 2.2
_symmetry_space_group_name_H-M    P1
_symmetry_Int_Tables_number       1
_space_group_crystal_system       triclinic
_cell_length_a                    6.960867
_cell_length_b                    13.864537
_cell_length_c                    18.063257
_cell_angle_alpha                 112.012529
_cell_angle_beta                  95.013434
_cell_angle_gamma                 90.308042
_cell_volume                      1608.63341789

loop_
_atom_site_label
_atom_site_type_symbol
_atom_type_description
_atom_site_fract_x
_atom_site_fract_y
_atom_site_fract_z
_atom_type_partial_charge
O1    O     O_R   0.484560 0.544530 0.414330 -0.540796
O2    O     O_R   0.197040 0.638810 0.585080 -0.511920
O3    O     O_R   0.026800 0.455470 0.585670 -0.538528
C1    C     C_R   0.372777 0.681682 0.602762 0.728883
O4    O     O_R   0.155000 0.556150 0.414940 -0.545867
O5    O     O_R   0.984450 0.372220 0.414320 -0.503983
C2    C     C_R   0.318225 0.565066 0.386755 0.744155
O6    O     O_R   0.526900 0.627780 0.585680 -0.545911
O7    O     O_3   0.339170 0.439750 0.499990 -0.368866
V1    V     V_3+5 0.064350 0.511180 0.500000 1.486151
O8    O     O_R   0.654880 0.361190 0.414920 -0.544860
C3    C     C_R   0.818661 0.323822 0.387590 0.778876
O9    O     O_R   0.696930 0.443850 0.585060 -0.549367
C4    C     C_R   0.872643 0.432873 0.611889 0.729352
V2    V     V_3+5 0.564340 0.488820 0.500000 1.440821
O10   O     O_3   0.839390 0.560250 0.500010 -0.373140
C5    C     C_R   0.049137 0.868087 0.827798 -0.138716
C6    C     C_R   0.903619 0.395261 0.678421 -0.126005
C7    C     C_R   0.939517 0.825266 0.687952 0.333436
C8    C     C_R   0.008572 0.793721 0.750310 0.231074
C9    C     C_R   0.041057 0.974303 0.840748 -0.227510
C10   C     C_R   0.995714 0.007773 0.775726 0.013506
C11   C     C_R   0.940048 0.930811 0.699517 -0.060378
C12   C     C_R   0.999864 0.114499 0.783970 0.069644
C13   C     C_R   0.937278 0.143445 0.717027 -0.019940
C14   C     C_R   0.869061 0.061801 0.643135 0.284082
C15   C     C_R   0.880461 0.958938 0.634954 -0.099726
C16   C     C_R   0.071663 0.192511 0.856878 -0.152698
C17   C     C_R   0.074967 0.295847 0.867043 -0.222200
C18   C     C_R   0.007784 0.327532 0.804890 0.048285
C19   C     C_R   0.947992 0.251882 0.727406 0.077571
C20   C     C_R   0.009068 0.434549 0.818245 0.344978
C21   C     C_R   0.950964 0.466775 0.755937 -0.155752
C22   C     C_R   0.912892 0.288837 0.663668 -0.246478
H1    H     H_    0.832295 0.900106 0.576776 0.204445
H2    H     H_    0.942641 0.548652 0.768805 0.159214
H3    H     H_    0.839431 0.029603 0.201843 0.143652
C23   C     C_2   0.136101 0.033836 0.185308 -0.335169
C24   C     C_2   0.978125 0.071357 0.224327 -0.229171
C25   C     C_2   0.819447 0.220927 0.319675 -0.347563
C26   C     C_2   0.984454 0.169642 0.297571 0.396066
C27   C     C_R   0.405909 0.790229 0.664827 -0.137817
C28   C     C_R   0.537934 0.476964 0.823872 -0.039890
C29   C     C_R   0.522014 0.890870 0.803282 0.325342
C30   C     C_R   0.470854 0.795991 0.740888 -0.286406
C31   C     C_R   0.396564 0.884942 0.649260 0.288753
C32   C     C_R   0.440595 0.985824 0.714434 -0.009895
C33   C     C_R   0.507016 0.984745 0.790926 0.049231
C34   C     C_R   0.426901 0.087956 0.708269 0.074828
C35   C     C_R   0.493146 0.182140 0.775841 0.062777
C36   C     C_R   0.559657 0.172916 0.848171 -0.215123
C37   C     C_R   0.562858 0.077561 0.855718 -0.143748
C38   C     C_R   0.343214 0.101098 0.638839 -0.136565
C39   C     C_R   0.341394 0.197988 0.632295 -0.260506
C40   C     C_R   0.414206 0.288039 0.695753 0.103388
C41   C     C_R   0.487616 0.283262 0.769705 0.098188
C42   C     C_R   0.405979 0.383705 0.686111 -0.118690
C43   C     C_R   0.465104 0.476571 0.749231 -0.142474
C44   C     C_R   0.548573 0.380432 0.834181 -0.206458
H4    H     H_    0.601292 0.384366 0.893121 0.087605
H5    H     H_    0.450859 0.548985 0.739969 0.094123
H6    H     H_    0.349542 0.386862 0.629411 0.151026
H7    H     H_    0.334096 0.667426 0.195354 0.151974
H8    H     H_    0.615205 0.591360 0.307609 0.153333
C45   C     C_2   0.315356 0.602343 0.319397 -0.329712
C46   C     C_2   0.476970 0.611277 0.285422 -0.116976
C47   C     C_2   0.633859 0.656250 0.183410 -0.338821
C48   C     C_2   0.472345 0.647482 0.217508 -0.123607
H9    H     H_    0.177527 0.622036 0.296697 0.126950
O11   O     O_R   0.421600 0.630430 0.917010 -0.514353
O12   O     O_R   0.793840 0.702190 0.087630 -0.549157
O13   O     O_R   0.964010 0.886170 0.088190 -0.538261
C49   C     C_R   0.630743 0.693308 0.115921 0.742306
O14   O     O_R   0.751460 0.619510 0.917500 -0.534291
O15   O     O_R   0.921330 0.802900 0.916840 -0.530318
C50   C     C_R   0.574641 0.580158 0.892029 0.679336
O16   O     O_R   0.464290 0.713700 0.088350 -0.540077
O17   O     O_3   0.609200 0.818520 0.002630 -0.372123
V3    V     V_3+5 0.884140 0.747190 0.002530 1.437831
O18   O     O_R   0.251150 0.814630 0.917340 -0.544358
C51   C     C_R   0.076522 0.832804 0.895223 0.741593
O19   O     O_R   0.293530 0.897310 0.087470 -0.546731
C52   C     C_R   0.130958 0.933095 0.116066 0.750245
V4    V     V_3+5 0.384070 0.769710 0.002370 1.446655
O20   O     O_3   0.109180 0.698190 0.002460 -0.347525
O21   O     O_3   0.069386 0.510166 0.891432 -0.615619
H10   H     H_    0.012206 0.492590 0.933332 0.273806
O22   O     O_3   0.156789 0.208086 0.344507 -0.625744
H11   H     H_    0.247795 0.150971 0.334381 0.286631
H12   H     H_    0.682296 0.187793 0.285654 0.085371
H13   H     H_    0.274060 0.076722 0.205041 0.132959
H14   H     H_    0.614761 0.077254 0.913942 0.167420
H15   H     H_    0.278137 0.202660 0.576771 0.147428
O23   O     O_3   0.588956 0.893074 0.877806 -0.637890
H16   H     H_    0.591529 0.820388 0.874502 0.323210
H17   H     H_    0.905995 0.238499 0.601500 0.160049
H18   H     H_    0.484719 0.724501 0.751712 0.105038
O24   O     O_3   0.359956 0.879465 0.571454 -0.654418
H19   H     H_    0.327259 0.806829 0.534470 0.274923
H20   H     H_    0.609840 0.238849 0.901238 0.124063
H21   H     H_    0.270967 0.039070 0.588560 0.212956
H22   H     H_    0.771725 0.636556 0.206079 0.126487
H23   H     H_    0.137960 0.350341 0.924473 0.126825
O25   O     O_3   0.871188 0.753435 0.614369 -0.636411
H24   H     H_    0.846798 0.688127 0.622093 0.358325
O26   O     O_3   0.035599 0.689370 0.733024 -0.671729
H25   H     H_    0.138674 0.681934 0.771692 0.272043
H26   H     H_    0.066231 0.028060 0.902122 0.115207
O27   O     O_3   0.783211 0.076821 0.577212 -0.646657
H27   H     H_    0.684343 0.128649 0.596608 0.302523
H28   H     H_    0.133026 0.176118 0.907494 0.121958

loop_
_geom_bond_atom_site_label_1
_geom_bond_atom_site_label_2
_ccdc_geom_bond_type
C13   C19   A    
C46   C48   S    
C40   C41   A    
C23   C52   S    
C4    C6    S    
O2    C1    A    
C7    C8    A    
C1    O6    A    
C21   H2    S    
O12   V3    S    
C42   H6    S    
C24   C26   S    
C38   C39   A    
C14   C15   A    
O14   C50   A    
C16   C17   A    
C22   H17   S    
O13   V3    S    
O5    C3    A    
C23   C24   D    
C34   C38   A    
O26   H25   S    
V2    O10   S    
C28   C50   S    
C5    C8    A    
C17   H23   S    
C27   C31   A    
C34   C35   A    
C39   H15   S    
C28   C43   A    
C31   C32   A    
O8    V2    S    
C38   H21   S    
C47   C49   S    
C11   C15   A    
O11   V4    S    
O7    V1    S    
C28   C44   A    
C43   H5    S    
C31   O24   S    
C44   H4    S    
O1    C2    A    
O9    C4    A    
O25   H24   S    
C8    O26   S    
C16   H28   S    
O18   V4    S    
C9    H26   S    
V4    O20   S    
C32   C34   A    
O12   C49   A    
O17   V3    S    
O15   C51   A    
O16   V4    S    
C15   H1    S    
C13   C14   A    
C23   H13   S    
C35   C41   A    
C36   C37   A    
C27   C30   A    
H8    C46   S    
C3    C25   S    
C7    C11   A    
C47   C48   D    
C17   C18   A    
C2    C45   S    
C7    O25   S    
C32   C33   A    
C20   O21   S    
C35   C36   A    
C19   C22   A    
C12   C13   A    
C6    C22   A    
C14   O27   S    
O3    C4    A    
O1    V2    S    
C25   C26   D    
O24   H19   S    
O6    V2    S    
O19   V4    S    
O14   V3    S    
C40   C42   A    
O11   C50   A    
C10   C12   A    
C37   H14   S    
O2    V1    S    
V3    O20   S    
C29   C30   A    
O4    C2    A    
C36   H20   S    
C26   O22   S    
C39   C40   A    
O21   H10   S    
C12   C16   A    
O18   C51   A    
O5    V1    S    
O8    C3    A    
H7    C48   S    
C41   C44   A    
C20   C21   A    
O9    V2    S    
O7    V2    S    
O4    V1    S    
H3    C24   S    
O3    V1    S    
V1    O10   S    
O27   H27   S    
C18   C20   A    
C42   C43   A    
C18   C19   A    
C1    C27   S    
C45   H9    S    
C5    C51   S    
C45   C46   D    
O23   H16   S    
C6    C21   A    
C5    C9    A    
O13   C52   A    
C29   O23   S    
O17   V4    S    
C33   C37   A    
O22   H11   S    
O19   C52   A    
C49   O16   A    
C10   C11   A    
C30   H18   S    
C25   H12   S    
C9    C10   A    
O15   V3    S    
C29   C33   A    
C47   H22   S    
