data_mof_unit_36172.cif
_audit_creation_date              2012-12-10T16:45:24-0500
_audit_creation_method            fapswitch 2.2
_symmetry_space_group_name_H-M    P1
_symmetry_Int_Tables_number       1
_space_group_crystal_system       triclinic
_cell_length_a                    7.476747
_cell_length_b                    8.688859
_cell_length_c                    15.700364
_cell_angle_alpha                 94.960872
_cell_angle_beta                  75.608211
_cell_angle_gamma                 103.471076
_cell_volume                      960.333832229

loop_
_atom_site_label
_atom_site_type_symbol
_atom_type_description
_atom_site_fract_x
_atom_site_fract_y
_atom_site_fract_z
_atom_type_partial_charge
C1    C     C_R   0.545257 0.800205 0.502746 0.849623
C2    C     C_R   0.454644 0.199795 0.497388 0.861703
C3    C     C_R   0.323860 0.298113 0.061954 0.424997
C4    C     C_R   0.748401 0.514451 0.907348 0.483845
C5    C     C_R   0.200582 0.249524 0.005738 -0.293211
C6    C     C_R   0.877075 0.544915 0.961848 -0.315823
C7    C     C_2   0.570415 0.968450 0.504022 -0.346337
C8    C     C_2   0.429359 0.031558 0.496287 -0.342237
C9    C     C_R   0.385041 0.486716 0.666117 0.775165
C10   C     C_R   0.614798 0.511564 0.333263 0.818673
C11   C     C_R   0.316047 0.450932 0.759599 -0.202204
C12   C     C_R   0.683214 0.515776 0.236390 -0.117190
C13   C     C_R   0.113062 0.268598 0.869543 -0.160471
C14   C     C_R   0.942727 0.559817 0.106454 -0.172452
C15   C     C_R   0.154651 0.330858 0.786433 -0.234016
C16   C     C_R   0.878033 0.547481 0.197465 -0.256206
C17   C     C_R   0.433911 0.511552 0.817873 0.444506
C18   C     C_R   0.553367 0.491111 0.182125 0.449984
C19   C     C_R   0.412366 0.428176 0.894353 0.054734
C20   C     C_R   0.618866 0.473820 0.089851 -0.004074
C21   C     C_R   0.241086 0.315740 0.923576 0.010075
C22   C     C_R   0.813775 0.526578 0.052489 0.056826
C23   C     C_R   0.551955 0.456876 0.944553 -0.021271
C24   C     C_R   0.494921 0.412492 0.033697 -0.098285
Cu1   Cu    Cu3+1 0.322120 0.483240 0.490330 1.065379
Cu2   Cu    Cu3+1 0.677880 0.516760 0.509670 1.054950
H1    H     H_    0.071421 0.160619 0.026667 0.149998
H2    H     H_    0.027230 0.584204 0.933329 0.149514
H3    H     H_    0.980432 0.569903 0.237665 0.206511
H4    H     H_    0.062939 0.282865 0.742439 0.197407
H5    H     H_    0.984413 0.179155 0.890222 0.165984
H6    H     H_    0.093571 0.593867 0.078180 0.147594
H7    H     H_    0.706017 0.040646 0.511241 0.192536
H8    H     H_    0.293742 0.959363 0.489088 0.192669
N1    N     N_2   0.945180 0.542040 0.524240 0.142250
N2    N     N_2   0.054820 0.457960 0.475760 0.141617
O1    O     O_R   0.384450 0.714270 0.493720 -0.539896
O2    O     O_R   0.615550 0.285730 0.506280 -0.538963
O3    O     O_R   0.684880 0.742590 0.510050 -0.609774
O4    O     O_R   0.315120 0.257410 0.489950 -0.608155
O5    O     O_R   0.265540 0.477900 0.617090 -0.538853
O6    O     O_R   0.734460 0.522100 0.382910 -0.552721
O7    O     O_R   0.565970 0.506210 0.633420 -0.568696
O8    O     O_R   0.434030 0.493790 0.366580 -0.535894
O9    O     O_3   0.367636 0.499458 0.219581 -0.685486
H9    H     H_    0.315963 0.539203 0.175581 0.311730
O10   O     O_3   0.560143 0.656625 0.804785 -0.698101
H10   H     H_    0.530917 0.714694 0.760148 0.307346
O11   O     O_3   0.288753 0.223882 0.140752 -0.696619
H11   H     H_    0.164687 0.147632 0.150251 0.325498
O12   O     O_3   0.815429 0.520807 0.817088 -0.677273
H12   H     H_    0.951685 0.573119 0.802865 0.330690
O13   O     O_3   0.015222 0.634079 0.586433 -0.599480
H13   H     H_    0.912591 0.686879 0.617891 0.346015
O14   O     O_3   0.984682 0.365786 0.413635 -0.597462
H14   H     H_    0.087191 0.312792 0.382264 0.353332

loop_
_geom_bond_atom_site_label_1
_geom_bond_atom_site_label_2
_ccdc_geom_bond_type
O10   H10   S    
C19   C23   A    
O14   H14   S    
O13   H13   S    
C6    H2    S    
N1    O13   S    
C9    C11   S    
C2    O2    A    
C9    O5    A    
N1    N2    D    
C10   O8    A    
C1    O1    A    
C23   C24   A    
Cu1   O1    S    
C14   C22   A    
C3    O11   S    
C13   C21   A    
C7    C8    D    
N2    O14   S    
C8    H8    S    
O9    H9    S    
C7    H7    S    
C16   H3    S    
C3    C24   A    
C10   C12   S    
C1    C7    S    
Cu1   O8    S    
C19   C21   A    
C20   C22   A    
Cu2   O7    S    
C18   C20   A    
C13   C15   A    
Cu1   O4    S    
C14   C16   A    
Cu2   O3    S    
C9    O7    A    
C10   O6    A    
C1    O3    A    
C4    O12   S    
Cu1   O5    S    
O12   H12   S    
C6    C22   A    
C18   O9    S    
C2    O4    A    
Cu2   N1    S    
C5    C21   A    
Cu2   O6    S    
C15   H4    S    
C4    C6    A    
O11   H11   S    
C12   C18   A    
C4    C23   A    
C20   C24   A    
Cu2   O2    S    
C2    C8    S    
Cu1   N2    S    
C17   C19   A    
Cu1   Cu2   S    
C5    H1    S    
C11   C15   A    
C13   H5    S    
C11   C17   A    
C12   C16   A    
C17   O10   S    
C14   H6    S    
C3    C5    A    
