data_mof_unit_52045.cif
_audit_creation_date              2013-03-05T16:17:29-0500
_audit_creation_method            fapswitch 2.2
_symmetry_space_group_name_H-M    P1
_symmetry_Int_Tables_number       1
_space_group_crystal_system       triclinic
_cell_length_a                    30.467435
_cell_length_b                    34.666811
_cell_length_c                    8.624182
_cell_angle_alpha                 90.642205
_cell_angle_beta                  89.425108
_cell_angle_gamma                 89.689511
_cell_volume                      9107.76696494

loop_
_atom_site_label
_atom_site_type_symbol
_atom_site_description
_atom_site_fract_x
_atom_site_fract_y
_atom_site_fract_z
_atom_type_partial_charge
P1    P     P_3+3 0.909970 0.458430 0.077330 0.981601
P2    P     P_3+3 0.909970 0.541570 0.577330 0.983716
P3    P     P_3+3 0.409970 0.958430 0.077330 0.981432
P4    P     P_3+3 0.409970 0.041570 0.577330 0.979042
O1    O     O_2   0.914200 0.445720 0.903420 -0.455988
O2    O     O_2   0.914200 0.554280 0.403420 -0.452194
O3    O     O_2   0.414200 0.945720 0.903420 -0.456264
O4    O     O_2   0.414200 0.054280 0.403420 -0.455649
O5    O     O_3   0.950020 0.480960 0.143730 -0.530525
O6    O     O_3   0.950020 0.519040 0.643730 -0.540339
O7    O     O_3   0.450020 0.980960 0.143730 -0.530829
O8    O     O_3   0.450020 0.019040 0.643730 -0.539414
O9    O     O_3   0.985090 0.412220 0.642040 -0.495097
O10   O     O_3   0.985090 0.587780 0.142040 -0.501272
O11   O     O_3   0.485090 0.912220 0.642040 -0.494713
O12   O     O_3   0.485090 0.087780 0.142040 -0.480191
O13   O     O_2   0.910278 0.382656 0.754347 -0.481887
O14   O     O_2   0.909782 0.616914 0.256896 -0.466411
O15   O     O_2   0.410114 0.882893 0.753943 -0.481741
O16   O     O_2   0.410788 0.117668 0.261934 -0.482994
O17   O     O_3   0.863332 0.488124 0.083244 -0.620265
O18   O     O_3   0.863404 0.512279 0.581093 -0.621935
O19   O     O_3   0.363074 0.987799 0.084113 -0.620510
O20   O     O_3   0.363456 0.012214 0.580900 -0.619972
O21   O     O_3   0.966893 0.332616 0.650310 -0.593127
O22   O     O_3   0.965812 0.667890 0.165569 -0.583269
O23   O     O_3   0.466716 0.832651 0.651679 -0.592318
O24   O     O_3   0.467111 0.167150 0.160835 -0.584461
H1    H     H_    0.027763 0.347643 0.560532 0.045971
H2    H     H_    0.029312 0.647866 0.196239 0.091121
H3    H     H_    0.527169 0.847248 0.557118 0.043681
H4    H     H_    0.517174 0.152907 0.003184 -0.004599
C1    C     C_3   0.018810 0.286284 0.554904 -0.337421
C2    C     C_3   0.028915 0.707536 0.134772 -0.340848
C3    C     C_3   0.518240 0.785877 0.557218 -0.335303
C4    C     C_3   0.519129 0.212770 0.067793 -0.321662
H5    H     H_    0.034485 0.282825 0.669685 0.133335
H6    H     H_    0.064709 0.706547 0.111059 0.125797
H7    H     H_    0.534546 0.783047 0.671188 0.134547
H8    H     H_    0.542361 0.207343 0.163693 0.148984
H9    H     H_    0.991963 0.264950 0.542710 0.128238
H10   H     H_    0.023409 0.718953 0.254190 0.138717
H11   H     H_    0.491336 0.764487 0.548785 0.127712
H12   H     H_    0.496395 0.236597 0.102043 0.119133
P5    P     P_3+3 0.089830 0.458070 0.612460 0.958669
P6    P     P_3+3 0.089830 0.541930 0.112460 0.951210
P7    P     P_3+3 0.589830 0.958070 0.612460 0.967094
P8    P     P_3+3 0.589830 0.041930 0.112460 0.965791
P9    P     P_3+3 0.057353 0.376107 0.062256 0.952315
P10   P     P_3+3 0.056553 0.623280 0.573637 0.953712
P11   P     P_3+3 0.557267 0.876056 0.062360 0.951816
P12   P     P_3+3 0.556213 0.123696 0.574284 0.956802
O25   O     O_2   0.085560 0.445380 0.786390 -0.456553
O26   O     O_2   0.085560 0.554620 0.286390 -0.450211
O27   O     O_2   0.585560 0.945380 0.786390 -0.456770
O28   O     O_2   0.585560 0.054620 0.286390 -0.432591
O29   O     O_3   0.014550 0.412170 0.047860 -0.516753
O30   O     O_3   0.014550 0.587830 0.547860 -0.488007
O31   O     O_3   0.514550 0.912170 0.047860 -0.516193
O32   O     O_3   0.514550 0.087830 0.547860 -0.512678
O33   O     O_2   0.084042 0.377352 0.908663 -0.470533
O34   O     O_2   0.092247 0.615106 0.448625 -0.474496
O35   O     O_2   0.584059 0.877385 0.909038 -0.472110
O36   O     O_2   0.592559 0.115182 0.451903 -0.461148
O37   O     O_3   0.132804 0.491344 0.618859 -0.624964
O38   O     O_3   0.131269 0.506867 0.122174 -0.622171
O39   O     O_3   0.632359 0.991912 0.620779 -0.620698
O40   O     O_3   0.631462 0.006978 0.124882 -0.619676
O41   O     O_3   0.033062 0.330412 0.056002 -0.597495
O42   O     O_3   0.033998 0.667245 0.516746 -0.580602
O43   O     O_3   0.532921 0.830387 0.055322 -0.596550
O44   O     O_3   0.534752 0.168134 0.516995 -0.587003
C5    C     C_3   0.987401 0.334996 0.043475 0.324541
C6    C     C_3   0.006372 0.680609 0.637457 0.291070
C7    C     C_3   0.487206 0.835034 0.045431 0.325632
C8    C     C_3   0.489409 0.168322 0.548792 0.354289
H13   H     H_    0.979074 0.352147 0.939721 0.116861
H14   H     H_    0.980812 0.658918 0.666684 0.009189
H15   H     H_    0.478442 0.852182 0.942113 0.116514
H16   H     H_    0.472432 0.148070 0.468983 0.105769
H17   H     H_    0.973614 0.349274 0.149372 -0.025682
H18   H     H_    0.025949 0.687612 0.742108 0.005780
H19   H     H_    0.473917 0.849348 0.152009 -0.028305
H20   H     H_    0.482282 0.160159 0.670866 -0.080788
C9    C     C_3   0.966280 0.295635 0.025614 -0.315792
C10   C     C_3   0.983448 0.717324 0.586757 -0.322812
C11   C     C_3   0.465927 0.795703 0.028969 -0.317504
C12   C     C_3   0.471161 0.208591 0.522934 -0.322879
H21   H     H_    0.980774 0.280016 0.924116 0.131996
H22   H     H_    0.961273 0.710959 0.488364 0.150239
H23   H     H_    0.479860 0.780070 0.926540 0.132651
H24   H     H_    0.480566 0.218811 0.405759 0.140673
H25   H     H_    0.971525 0.278440 0.131807 0.140412
H26   H     H_    0.008089 0.738994 0.550296 0.115064
H27   H     H_    0.471705 0.778497 0.134780 0.139803
H28   H     H_    0.484177 0.228885 0.611565 0.121583
C13   C     C_3   0.171691 0.525370 0.143818 0.262016
C14   C     C_3   0.172408 0.471381 0.641471 0.257879
C15   C     C_3   0.667558 0.018440 0.033995 0.257524
C16   C     C_3   0.673424 0.973187 0.615408 0.242663
H29   H     H_    0.180154 0.543147 0.041333 0.022555
H30   H     H_    0.180243 0.452705 0.539162 0.024034
H31   H     H_    0.657572 0.025440 0.913969 0.007397
H32   H     H_    0.673613 0.944862 0.674186 0.024546
H33   H     H_    0.170988 0.543757 0.250496 0.054832
H34   H     H_    0.170900 0.453716 0.748381 0.045912
H35   H     H_    0.683680 0.043868 0.088241 0.046395
H36   H     H_    0.696999 0.991505 0.679533 0.045343
C17   C     C_3   0.207340 0.494953 0.161897 -0.369561
C18   C     C_3   0.209193 0.500468 0.659942 -0.360291
C19   C     C_3   0.700632 0.985477 0.022384 -0.360747
C20   C     C_3   0.690043 0.969695 0.448772 -0.351107
H37   H     H_    0.209435 0.476528 0.055815 0.116968
H38   H     H_    0.212068 0.518235 0.553945 0.119487
H39   H     H_    0.684801 0.959387 0.972772 0.114258
H40   H     H_    0.667185 0.952481 0.376957 0.092936
H41   H     H_    0.239494 0.509144 0.180094 0.092966
H42   H     H_    0.240759 0.485116 0.678393 0.092687
H43   H     H_    0.728518 0.993867 0.946322 0.079540
H44   H     H_    0.722758 0.955423 0.446339 0.112008
H45   H     H_    0.199800 0.476570 0.263285 0.114760
H46   H     H_    0.202299 0.519671 0.761347 0.114764
H47   H     H_    0.713687 0.978590 0.138231 0.116332
H48   H     H_    0.693076 0.998927 0.398515 0.124686
Ba1   Ba    Ba6+2 0.999930 0.472870 0.844940 1.609054
Ba2   Ba    Ba6+2 0.999930 0.527130 0.344940 1.615700
Ba3   Ba    Ba6+2 0.499930 0.972870 0.844940 1.607587
Ba4   Ba    Ba6+2 0.499930 0.027130 0.344940 1.617472
C21   C     C_3   0.872778 0.523407 0.014607 0.299853
C22   C     C_3   0.873075 0.476635 0.511936 0.299395
C23   C     C_3   0.372003 0.023058 0.014657 0.300290
C24   C     C_3   0.373175 0.976597 0.511655 0.300588
H49   H     H_    0.883043 0.518655 0.892203 0.028138
H50   H     H_    0.883909 0.480827 0.390392 0.028914
H51   H     H_    0.382205 0.018239 0.892204 0.030348
H52   H     H_    0.384094 0.980832 0.390241 0.029807
H53   H     H_    0.898628 0.538767 0.080692 0.050647
H54   H     H_    0.898646 0.461209 0.578674 0.049190
H55   H     H_    0.397687 0.038719 0.080412 0.048095
H56   H     H_    0.398694 0.961157 0.578581 0.049280
C25   C     C_3   0.831299 0.548079 0.017669 -0.353753
C26   C     C_3   0.831467 0.452532 0.512020 -0.352926
C27   C     C_3   0.330208 0.047314 0.017554 -0.354729
C28   C     C_3   0.331564 0.952498 0.511227 -0.353777
H57   H     H_    0.804700 0.533068 0.954265 0.141035
H58   H     H_    0.805171 0.467743 0.448205 0.142429
H59   H     H_    0.303697 0.031862 0.955400 0.141137
H60   H     H_    0.305309 0.967748 0.447345 0.142305
H61   H     H_    0.837387 0.576172 0.961607 0.072154
H62   H     H_    0.837548 0.424224 0.454844 0.073614
H63   H     H_    0.335826 0.075301 0.960045 0.075469
H64   H     H_    0.337668 0.924219 0.453850 0.073026
H65   H     H_    0.820544 0.553476 0.139476 0.130864
H66   H     H_    0.820267 0.447600 0.633117 0.129686
H67   H     H_    0.319595 0.052939 0.139355 0.130031
H68   H     H_    0.320291 0.947506 0.632198 0.129850
O45   O     O_3   0.049930 0.518940 0.045960 -0.525545
O46   O     O_3   0.049930 0.481060 0.545960 -0.517945
O47   O     O_3   0.549930 0.018940 0.045960 -0.531194
O48   O     O_3   0.549930 0.981060 0.545960 -0.515597
P13   P     P_3+3 0.943145 0.622797 0.123022 0.962487
P14   P     P_3+3 0.943237 0.377781 0.617843 0.937610
P15   P     P_3+3 0.442882 0.122495 0.123528 0.948850
P16   P     P_3+3 0.443207 0.877813 0.617982 0.938364
C29   C     C_3   0.000634 0.326936 0.540010 0.298212
C30   C     C_3   0.010202 0.667178 0.119596 0.363694
C31   C     C_3   0.499964 0.826429 0.539979 0.297794
C32   C     C_3   0.493337 0.176449 0.031805 0.283578
H69   H     H_    0.988190 0.330106 0.419938 -0.018822
H70   H     H_    0.014099 0.657440 0.996740 -0.094436
H71   H     H_    0.486938 0.828960 0.420451 -0.017428
H72   H     H_    0.472318 0.182315 0.930119 0.013437
H73   H     H_    0.043567 0.280762 0.462068 0.144418
H74   H     H_    0.012963 0.727043 0.050712 0.122697
H75   H     H_    0.542480 0.779846 0.463168 0.143925
H76   H     H_    0.537859 0.221480 0.963007 0.130918
H77   H     H_    0.930515 0.299271 0.006800 0.119424
H78   H     H_    0.963928 0.729535 0.685029 0.134086
H79   H     H_    0.430065 0.799385 0.012578 0.117449
H80   H     H_    0.434836 0.208046 0.531781 0.122559
H81   H     H_    0.703001 0.346295 0.062228 0.125468
H82   H     H_    0.704938 0.655565 0.555885 0.125606
H83   H     H_    0.205438 0.845960 0.041336 0.125444
H84   H     H_    0.205777 0.155726 0.544805 0.125652
H85   H     H_    0.151934 0.797460 0.969525 0.123657
H86   H     H_    0.152916 0.204432 0.468459 0.123777
H87   H     H_    0.649143 0.297839 0.993076 0.123353
H88   H     H_    0.651811 0.704065 0.479470 0.123518
C33   C     C_R   0.923160 0.410543 0.323882 -0.290186
C34   C     C_R   0.921522 0.589566 0.829190 -0.279007
C35   C     C_R   0.423273 0.910570 0.323903 -0.289905
C36   C     C_R   0.420513 0.088947 0.831046 -0.275790
C37   C     C_R   0.245920 0.697559 0.080059 -0.026142
C38   C     C_R   0.248145 0.303662 0.571662 -0.024026
C39   C     C_R   0.745606 0.197978 0.076250 -0.025632
C40   C     C_R   0.748073 0.803426 0.567365 -0.024416
C41   C     C_R   0.213970 0.669461 0.039959 0.592656
C42   C     C_R   0.216763 0.331849 0.527471 0.586314
C43   C     C_R   0.713616 0.169906 0.036159 0.590925
C44   C     C_R   0.716443 0.831514 0.524285 0.586084
O49   O     O_2   0.223428 0.635251 0.047823 -0.606901
O50   O     O_2   0.226661 0.365952 0.531912 -0.610306
O51   O     O_2   0.723585 0.135730 0.037569 -0.604556
O52   O     O_2   0.726352 0.865625 0.526515 -0.610484
N1    N     N_R   0.172546 0.680380 0.989541 -0.423305
N2    N     N_R   0.175311 0.321134 0.477345 -0.423224
N3    N     N_R   0.671514 0.180842 0.993207 -0.423870
N4    N     N_R   0.674703 0.820687 0.477760 -0.423598
C45   C     C_R   0.162612 0.719466 0.977084 0.577792
C46   C     C_R   0.164608 0.282231 0.469801 0.590108
C47   C     C_R   0.660778 0.219878 0.989367 0.588339
C48   C     C_R   0.663851 0.781806 0.473306 0.590748
O53   O     O_2   0.126496 0.729449 0.931689 -0.613787
O54   O     O_2   0.128161 0.272601 0.426960 -0.609092
O55   O     O_2   0.623785 0.229778 0.953213 -0.612746
O56   O     O_2   0.627182 0.772123 0.433071 -0.608719
C49   C     C_R   0.193725 0.748180 0.017731 -0.020501
C50   C     C_R   0.195296 0.253384 0.513110 -0.024282
C51   C     C_R   0.692055 0.248585 0.028694 -0.022871
C52   C     C_R   0.694672 0.753063 0.516711 -0.024713
C53   C     C_R   0.235616 0.737123 0.069263 -0.050809
C54   C     C_R   0.237280 0.264219 0.564366 -0.051239
C55   C     C_R   0.734694 0.237527 0.072361 -0.050977
C56   C     C_R   0.737025 0.763993 0.563796 -0.050829
C57   C     C_R   0.288150 0.687005 0.130196 -0.075475
C58   C     C_R   0.290309 0.314007 0.622672 -0.075895
C59   C     C_R   0.788459 0.187425 0.119603 -0.074032
C60   C     C_R   0.790659 0.813851 0.613575 -0.075511
C61   C     C_R   0.819645 0.215421 0.158465 -0.073849
C62   C     C_R   0.821523 0.785812 0.655361 -0.074090
C63   C     C_R   0.319322 0.715025 0.168857 -0.073783
C64   C     C_R   0.320917 0.285876 0.665714 -0.075208
C65   C     C_R   0.809180 0.255073 0.155824 -0.021457
C66   C     C_R   0.810905 0.746290 0.653343 -0.022880
C67   C     C_R   0.309403 0.754702 0.159770 -0.021099
C68   C     C_R   0.310502 0.246329 0.659646 -0.020963
C69   C     C_R   0.766523 0.266128 0.112466 -0.050228
C70   C     C_R   0.768449 0.735381 0.607567 -0.050895
C71   C     C_R   0.267344 0.765748 0.109951 -0.050678
C72   C     C_R   0.268502 0.235499 0.608672 -0.050519
C73   C     C_R   0.183826 0.787852 0.008432 -0.073322
C74   C     C_R   0.184877 0.213844 0.507096 -0.072345
C75   C     C_R   0.681599 0.288233 0.025935 -0.072049
C76   C     C_R   0.684058 0.713545 0.514772 -0.072404
C77   C     C_R   0.712701 0.316216 0.065817 -0.072327
C78   C     C_R   0.714724 0.685553 0.558865 -0.071386
C79   C     C_R   0.214721 0.815860 0.049860 -0.073287
C80   C     C_R   0.215388 0.185733 0.551159 -0.072149
C81   C     C_R   0.755521 0.305661 0.109625 -0.028498
C82   C     C_R   0.757263 0.695985 0.605728 -0.027312
C83   C     C_R   0.256847 0.805302 0.101063 -0.028074
C84   C     C_R   0.257534 0.196078 0.602449 -0.027972
C85   C     C_R   0.787305 0.333720 0.151918 0.592440
C86   C     C_R   0.788632 0.667945 0.651729 0.589678
C87   C     C_R   0.288410 0.833402 0.144764 0.592445
C88   C     C_R   0.288702 0.167906 0.648608 0.591699
N5    N     N_R   0.829515 0.322835 0.194266 -0.424331
N6    N     N_R   0.830683 0.678684 0.695795 -0.424041
N7    N     N_R   0.330117 0.822544 0.192931 -0.424140
N8    N     N_R   0.330333 0.178553 0.697651 -0.424386
C89   C     C_R   0.840406 0.283758 0.195850 0.579024
C90   C     C_R   0.841818 0.717563 0.695930 0.589310
C91   C     C_R   0.340609 0.783420 0.199504 0.578273
C92   C     C_R   0.341157 0.217507 0.703412 0.577614
C93   C     C_2   0.117391 0.651813 0.804246 -0.087960
C94   C     C_2   0.121906 0.349695 0.286953 -0.099256
C95   C     C_2   0.616027 0.152776 0.807843 -0.089215
C96   C     C_2   0.621567 0.849435 0.287214 -0.098477
C97   C     C_3   0.082547 0.624844 0.777266 -0.067442
C98   C     C_3   0.095520 0.382069 0.240874 -0.025878
C99   C     C_3   0.581469 0.125541 0.779147 -0.046284
C100  C     C_3   0.595357 0.881925 0.241191 -0.028206
C101  C     C_1   0.104685 0.586142 0.999491 -0.005522
C102  C     C_1   0.099986 0.411332 0.502745 0.016029
C103  C     C_1   0.604123 0.086505 0.000520 -0.006505
C104  C     C_1   0.599593 0.911011 0.503749 0.020709
C105  C     C_2   0.129517 0.617283 0.053478 -0.136247
C106  C     C_2   0.131414 0.383833 0.542556 -0.124385
C107  C     C_2   0.629066 0.117467 0.054929 -0.109165
C108  C     C_2   0.630286 0.882922 0.544456 -0.120535
C109  C     C_2   0.139780 0.650959 0.948384 0.230616
C110  C     C_2   0.143238 0.350800 0.433368 0.236184
C111  C     C_2   0.638774 0.151488 0.951339 0.233154
C112  C     C_2   0.642506 0.850260 0.434214 0.235090
C113  C     C_R   0.882051 0.349368 0.380837 -0.090463
C114  C     C_R   0.882678 0.652417 0.884160 -0.099249
C115  C     C_R   0.382216 0.849366 0.380605 -0.091024
C116  C     C_R   0.381309 0.151516 0.887424 -0.099969
C117  C     C_R   0.914376 0.378857 0.429720 -0.038249
C118  C     C_R   0.914409 0.622405 0.933724 -0.037805
C119  C     C_R   0.414492 0.878863 0.429623 -0.039493
C120  C     C_R   0.412827 0.121378 0.936881 -0.050353
C121  C     C_R   0.902130 0.413193 0.189217 0.048465
C122  C     C_R   0.901836 0.587148 0.691947 0.053767
C123  C     C_R   0.402436 0.913110 0.188843 0.049838
C124  C     C_R   0.401521 0.086987 0.692582 0.047679
C125  C     C_R   0.871627 0.384256 0.145181 -0.104495
C126  C     C_R   0.872560 0.616803 0.646521 -0.083611
C127  C     C_R   0.372236 0.884006 0.144153 -0.105455
C128  C     C_R   0.372486 0.116820 0.646970 -0.103485
C129  C     C_R   0.861769 0.352098 0.241700 0.210798
C130  C     C_R   0.862704 0.649367 0.744034 0.216352
C131  C     C_R   0.362230 0.851905 0.240831 0.208399
C132  C     C_R   0.362110 0.149036 0.745871 0.214892
O57   O     O_2   0.777014 0.367834 0.153373 -0.591140
O58   O     O_2   0.778167 0.633984 0.654529 -0.592182
O59   O     O_2   0.278339 0.867547 0.142237 -0.591825
O60   O     O_2   0.278399 0.133891 0.647276 -0.591298
O61   O     O_2   0.877433 0.273795 0.231600 -0.612523
O62   O     O_2   0.878821 0.727272 0.732183 -0.614379
O63   O     O_2   0.377279 0.773431 0.239322 -0.612270
O64   O     O_2   0.377624 0.227218 0.746008 -0.613669
C133  C     C_2   0.091942 0.587906 0.845695 -0.140025
C134  C     C_2   0.075418 0.401549 0.373206 -0.162951
C135  C     C_2   0.591007 0.088534 0.847092 -0.154430
C136  C     C_2   0.575237 0.901475 0.373411 -0.166300
H89   H     H_    0.852119 0.205814 0.191111 0.122753
H90   H     H_    0.853844 0.795280 0.689886 0.121298
H91   H     H_    0.351326 0.705421 0.206660 0.122740
H92   H     H_    0.352892 0.295290 0.704195 0.122366
H93   H     H_    0.874518 0.325921 0.458363 0.109777
H94   H     H_    0.875214 0.676370 0.961748 0.110235
H95   H     H_    0.374508 0.826064 0.458614 0.111782
H96   H     H_    0.373511 0.175170 0.966092 0.108933
H97   H     H_    0.297337 0.656902 0.139647 0.121376
H98   H     H_    0.299855 0.344023 0.629614 0.121181
H99   H     H_    0.798108 0.157339 0.123725 0.122307
H100  H     H_    0.800359 0.843857 0.617465 0.120652
H101  H     H_    0.143488 0.616347 0.168557 0.115289
H102  H     H_    0.145941 0.385001 0.656811 0.104889
H103  H     H_    0.643830 0.116007 0.168653 0.117801
H104  H     H_    0.643348 0.882846 0.660927 0.108827
H105  H     H_    0.125120 0.673489 0.718508 0.107257
H106  H     H_    0.129080 0.326644 0.204232 0.110781
H107  H     H_    0.623268 0.175026 0.723988 0.107235
H108  H     H_    0.629056 0.826564 0.204010 0.108187
H109  H     H_    0.854950 0.387077 0.035662 0.122430
H110  H     H_    0.856484 0.614107 0.535629 0.119866
H111  H     H_    0.355870 0.886702 0.034003 0.125836
H112  H     H_    0.356985 0.114511 0.534934 0.123760
H113  H     H_    0.944365 0.433501 0.361982 0.045109
H114  H     H_    0.939952 0.565566 0.871020 0.027181
H115  H     H_    0.444293 0.933623 0.362371 0.044928
H116  H     H_    0.438882 0.064875 0.872532 0.027110
C137  C     C_3   0.073196 0.553058 0.772713 -0.193291
C138  C     C_3   0.023621 0.555033 0.799022 -0.204628
H117  H     H_    0.005513 0.545021 0.899104 0.141740
H118  H     H_    0.010558 0.584915 0.802684 0.018156
H119  H     H_    0.013515 0.537178 0.703807 0.205746
H120  H     H_    0.081862 0.552364 0.647429 0.142834
H121  H     H_    0.087968 0.525951 0.813143 0.139041
C139  C     C_3   0.036227 0.424430 0.339701 -0.248599
C140  C     C_3   0.051687 0.457797 0.238532 -0.174751
H122  H     H_    0.071269 0.479321 0.300219 0.133553
H123  H     H_    0.074024 0.449542 0.141515 0.112173
H124  H     H_    0.022496 0.470025 0.187964 0.207314
H125  H     H_    0.010868 0.404765 0.296985 0.056584
H126  H     H_    0.017045 0.434676 0.435722 0.161152
C141  C     C_3   0.571937 0.053811 0.774098 -0.196007
C142  C     C_3   0.522497 0.055960 0.802147 -0.204842
H127  H     H_    0.504904 0.045898 0.903376 0.142472
H128  H     H_    0.509278 0.085797 0.803526 0.017699
H129  H     H_    0.512475 0.037857 0.708148 0.205161
H130  H     H_    0.580491 0.052999 0.648768 0.146302
H131  H     H_    0.586392 0.026469 0.812755 0.130434
C143  C     C_3   0.536149 0.924459 0.339700 -0.247235
C144  C     C_3   0.551743 0.957775 0.238523 -0.176802
H132  H     H_    0.571323 0.979281 0.300301 0.135386
H133  H     H_    0.574117 0.949472 0.141661 0.109365
H134  H     H_    0.522581 0.970036 0.187817 0.207422
H135  H     H_    0.510761 0.904841 0.296923 0.057100
H136  H     H_    0.516941 0.934760 0.435590 0.160529

loop_
_geom_bond_atom_site_label_1
_geom_bond_atom_site_label_2
_geom_bond_distance
_ccdc_geom_bond_type
C24   C28   1.522083 S    
C15   H31   1.110910 S    
C40   C60   1.408942 A    
C81   C85   1.423471 A    
C11   H23   1.110632 S    
C42   N2    1.390080 Am   
C26   H58   1.110697 S    
C2    H10   1.110012 S    
N8    C92   1.392276 Am   
C18   H42   1.110386 S    
C93   C109  1.424443 A    
C39   C55   1.409869 A    
C35   C119  1.460071 S    
N5    C89   1.393219 Am   
O38   C13   1.404807 S    
C89   O61   1.221531 D    
C122  C126  1.418467 A    
N7    C91   1.393674 Am   
H81   C77   1.083123 S    
C63   H91   1.083150 S    
P5    C102  1.889591 S    
C64   H92   1.083167 S    
C4    C32   1.518578 S    
C126  C130  1.428913 A    
C65   C69   1.408313 A    
C104  C108  1.396533 A    
O42   C6    1.405056 S    
N4    C112  1.469509 S    
C107  C111  1.516150 S    
P4    O8    1.562247 S    
O6    Ba1   2.823852 S    
C25   H57   1.110676 S    
C116  H96   1.082275 S    
C87   O59   1.221701 D    
C27   H63   1.107917 S    
C44   N4    1.389675 Am   
P9    O41   1.752606 S    
O18   C22   1.394769 S    
H84   C80   1.083143 S    
C8    H20   1.112813 S    
C22   H50   1.107177 S    
P11   O43   1.752667 S    
C5    H17   1.111498 S    
C140  H123  1.107331 S    
C33   C121  1.335832 D    
C29   H69   1.112716 S    
O32   Ba4   2.762641 S    
C10   H22   1.110909 S    
C20   H44   1.110284 S    
Ba1   O46   2.998665 S    
C31   H71   1.112504 S    
C48   C52   1.421284 A    
C14   H30   1.111745 S    
O16   P15   1.546519 D    
C45   O53   1.221239 D    
P12   O44   1.748598 S    
N4    C48   1.389780 Am   
C139  C140  1.530179 S    
C114  H94   1.082325 S    
O39   C16   1.406489 S    
C21   H49   1.108263 S    
H3    C31   1.111902 S    
H4    C32   1.113516 S    
C85   O57   1.221721 D    
C4    H12   1.110645 S    
C22   H54   1.111597 S    
C23   C27   1.522008 S    
C65   C89   1.422095 A    
N8    C132  1.471144 S    
C73   C79   1.401897 A    
C13   H33   1.113318 S    
C128  H112  1.082073 S    
O10   Ba2   2.788388 S    
C20   H48   1.110581 S    
O22   P13   1.749074 S    
C14   H34   1.113264 S    
C39   C59   1.409236 A    
C141  H131  1.099567 S    
C3    H75   1.108838 S    
O10   P13   1.767920 S    
P10   O42   1.745901 S    
C45   C49   1.421739 A    
C26   H62   1.107160 S    
C58   C64   1.401284 A    
C96   H108  1.085160 S    
C62   C66   1.409440 A    
C144  H134  1.081269 S    
O28   Ba4   2.825062 S    
C136  C143  1.462694 S    
O24   C32   1.404878 S    
C37   C57   1.409234 A    
C21   H53   1.111480 S    
C141  C142  1.524519 S    
C5    H13   1.110587 S    
N2    C110  1.470274 S    
C56   C70   1.431176 A    
C143  H135  1.096691 S    
C80   C84   1.409249 A    
C101  C133  1.387654 A    
C139  H126  1.065330 S    
C126  H110  1.082193 S    
C16   H32   1.110091 S    
P14   C117  1.853754 S    
C17   H45   1.110640 S    
N6    C130  1.471275 S    
C115  H95   1.082290 S    
C53   C71   1.432381 A    
C61   H89   1.083154 S    
O29   Ba1   2.788722 S    
O14   P13   1.546540 D    
O31   Ba3   2.788722 S    
C113  C117  1.484031 S    
C64   C68   1.409397 A    
P9    O29   1.807800 S    
C19   H43   1.110179 S    
C137  H120  1.109658 S    
C134  C139  1.462946 S    
P12   O32   1.796029 S    
C9    H25   1.110753 S    
O4    Ba4   2.810497 S    
C96   C100  1.438931 A    
C11   H27   1.110757 S    
C42   O50   1.221948 D    
C141  H130  1.109306 S    
C3    H11   1.110718 S    
C18   H38   1.110984 S    
P15   C120  1.860006 S    
C44   O52   1.221999 D    
C94   C110  1.426176 A    
C35   C123  1.335688 D    
P5    O25   1.572248 D    
P11   C100  1.948886 S    
C70   C82   1.409338 A    
C97   C133  1.444381 A    
N3    C47   1.391330 Am   
N6    C90   1.391619 Am   
C90   O62   1.221011 D    
C142  H127  1.081941 S    
C62   H90   1.083177 S    
C39   C43   1.423400 A    
C16   H36   1.109104 S    
C16   C20   1.522210 S    
C57   H97   1.083138 S    
P3    O7    1.562438 S    
C55   C69   1.432688 A    
P7    C104  1.893072 S    
N3    C111  1.473386 S    
C74   C80   1.401359 A    
C113  C129  1.359220 D    
C28   H68   1.110792 S    
P2    O18   1.749394 S    
C13   C17   1.520056 S    
N2    C46   1.390194 Am   
C138  H118  1.107734 S    
C32   H72   1.111025 S    
C24   H52   1.107076 S    
C15   C19   1.521232 S    
C72   C84   1.409198 A    
O19   C23   1.394128 S    
C26   H66   1.110789 S    
O17   C21   1.394966 S    
O25   Ba1   2.811668 S    
C33   C117  1.460183 S    
C7    C11   1.518778 S    
C34   C122  1.334263 D    
O27   Ba3   2.811668 S    
O30   Ba2   2.762641 S    
P5    O37   1.750519 S    
C20   H40   1.108868 S    
C138  H119  1.071440 S    
Ba2   O45   2.991622 S    
C77   C81   1.409423 A    
C67   C91   1.421863 A    
C59   C61   1.402208 A    
C1    C29   1.518642 S    
C8    H16   1.111055 S    
P7    Ba3   3.411278 S    
C79   C83   1.409300 A    
C47   C51   1.422228 A    
C38   C54   1.409488 A    
O9    Ba1   2.762384 S    
C28   H64   1.107155 S    
C25   H65   1.110814 S    
C38   C42   1.421189 A    
C7    H15   1.110665 S    
C88   N8    1.391495 Am   
C76   C78   1.401723 A    
C86   O58   1.221835 D    
C50   C74   1.409191 A    
C61   C65   1.409881 A    
C22   C26   1.522064 S    
C23   H55   1.111449 S    
C85   N5    1.391732 Am   
C66   C90   1.420799 A    
O1    Ba1   2.823738 S    
C125  C129  1.430138 A    
O11   Ba3   2.762384 S    
O3    Ba3   2.823738 S    
Ba3   O48   2.998665 S    
C142  H129  1.067666 S    
Ba4   O47   2.991622 S    
C82   C86   1.421933 A    
C43   O51   1.221722 D    
C12   H28   1.110646 S    
C14   C18   1.520013 S    
C34   H114  1.069301 S    
C41   N1    1.390947 Am   
C92   O64   1.221580 D    
C60   C62   1.401344 A    
C140  H122  1.094562 S    
C17   H41   1.110375 S    
O9    P14   1.763867 S    
O26   Ba2   2.825062 S    
P1    O1    1.562349 D    
C116  C120  1.484227 S    
P7    O27   1.572248 D    
O37   C14   1.404137 S    
P6    O38   1.751090 S    
P3    O3    1.562349 D    
H82   C78   1.083135 S    
P4    O20   1.749420 S    
Ba1   O45   2.809657 S    
C21   C25   1.521976 S    
C105  H101  1.084566 S    
C66   C70   1.408663 A    
H1    C29   1.111908 S    
C93   C97   1.437386 A    
C143  C144  1.530106 S    
C95   C99   1.439438 A    
C102  C134  1.390828 A    
O41   C5    1.404722 S    
C91   O63   1.221589 D    
C28   H60   1.110701 S    
P9    C98   1.949179 S    
C37   C53   1.409670 A    
C36   C124  1.333366 D    
C2    H6    1.107831 S    
C49   C53   1.408308 A    
C6    H18   1.112071 S    
C12   H80   1.108873 S    
P6    C101  1.880238 S    
P9    O33   1.548458 D    
C114  C118  1.485648 S    
C19   H47   1.107101 S    
P10   O30   1.792781 S    
P4    C124  1.867752 S    
O11   P16   1.763632 S    
P1    O5    1.562438 S    
O2    Ba2   2.810497 S    
H87   C75   1.083151 S    
P12   O36   1.547038 D    
C59   H99   1.083128 S    
C40   C44   1.421264 A    
P4    Ba4   3.410567 S    
C108  H104  1.084163 S    
H85   C73   1.083150 S    
O21   C29   1.405144 S    
P3    O19   1.750053 S    
C101  C105  1.399745 A    
C3    H7    1.110824 S    
P8    Ba4   3.422484 S    
O20   C24   1.394560 S    
C83   C87   1.423000 A    
P10   C97   1.934012 S    
C95   C111  1.425460 A    
P6    O26   1.562414 D    
P11   O35   1.548209 D    
C144  H133  1.107438 S    
C93   H105  1.085236 S    
P8    O40   1.754290 S    
C95   H107  1.085265 S    
C113  H93   1.082367 S    
C60   H100  1.083159 S    
C68   C92   1.420749 A    
Ba1   Ba2   4.723792 S    
H88   C76   1.083165 S    
C106  H102  1.084666 S    
Ba3   Ba4   4.723792 S    
C143  H136  1.065517 S    
C140  H124  1.081089 S    
H86   C74   1.083171 S    
C105  C109  1.517956 S    
C9    H21   1.110604 S    
C67   C71   1.408087 A    
C114  C130  1.361809 D    
C123  C127  1.421808 A    
C88   O60   1.221858 D    
P1    C121  1.865681 S    
C24   H56   1.111556 S    
C15   H35   1.112328 S    
C27   H67   1.110812 S    
C1    H9    1.110713 S    
C38   C58   1.408988 A    
C5    C9    1.518720 S    
C18   H46   1.110779 S    
C7    H19   1.111363 S    
C34   C118  1.458116 S    
C54   C72   1.430984 A    
P13   C118  1.860156 S    
C121  C125  1.422299 A    
C49   C73   1.409710 A    
C58   H98   1.083156 S    
C51   C55   1.408587 A    
C124  C128  1.418840 A    
C9    H77   1.110002 S    
C6    H14   1.114496 S    
C35   H115  1.078307 S    
C2    C30   1.518433 S    
C127  C131  1.430351 A    
C128  C132  1.429742 A    
C47   O55   1.220895 D    
P1    O17   1.750123 S    
C127  H111  1.082023 S    
P2    C122  1.868376 S    
C103  C107  1.398001 A    
C144  H132  1.094472 S    
P4    O4    1.572195 D    
C142  H128  1.107867 S    
C94   H106  1.085128 S    
C25   H61   1.107864 S    
O8    Ba3   2.823852 S    
C27   H59   1.110686 S    
C52   C76   1.409278 A    
C57   C63   1.402085 A    
C133  C137  1.476311 S    
C96   C112  1.425003 A    
C2    H74   1.110662 S    
P1    Ba1   3.421504 S    
C23   H51   1.108450 S    
P3    Ba3   3.421504 S    
P12   C99   1.934677 S    
C86   N6    1.391495 Am   
C100  C136  1.448966 A    
C10   H26   1.110666 S    
C36   H116  1.069248 S    
C48   O56   1.220829 D    
P5    Ba1   3.411278 S    
C75   C77   1.402255 A    
C3    C31   1.518641 S    
C41   O49   1.221716 D    
C104  C136  1.390872 A    
C1    H73   1.108817 S    
C8    C12   1.519433 S    
C17   H37   1.111000 S    
C84   C88   1.421366 A    
C115  C131  1.359466 D    
C139  H125  1.096920 S    
C116  C132  1.361014 D    
C69   C81   1.409646 A    
P2    O2    1.572195 D    
C10   H78   1.109189 S    
P7    O39   1.754131 S    
C50   C54   1.409082 A    
P7    O48   1.567053 S    
Ba2   O46   2.822335 S    
O12   P15   1.766134 S    
C98   C134  1.448383 A    
P8    O47   1.567213 S    
C87   N7    1.392061 Am   
C71   C83   1.409426 A    
C12   H24   1.110023 S    
C4    H8    1.110959 S    
H2    C30   1.112428 S    
C94   C98   1.438878 A    
H83   C79   1.083131 S    
C103  C135  1.388480 A    
C46   O54   1.220869 D    
P6    O45   1.567213 S    
C68   C72   1.408714 A    
C137  H121  1.101401 S    
O23   P16   1.746677 S    
N1    C45   1.392329 Am   
O21   P14   1.746698 S    
C36   C120  1.456638 S    
C125  H109  1.082136 S    
C43   N3    1.390614 Am   
O44   C8    1.405685 S    
C40   C56   1.409700 A    
C6    C10   1.519203 S    
O12   Ba4   2.788388 S    
P2    Ba2   3.410567 S    
P10   O34   1.546469 D    
C115  C119  1.483569 S    
P11   O31   1.807211 S    
P2    O6    1.562247 S    
Ba3   O47   2.809657 S    
C52   C56   1.409246 A    
Ba4   O48   2.822335 S    
C1    H5    1.110797 S    
C78   C82   1.409346 A    
P8    O28   1.562414 D    
O22   C30   1.405581 S    
N1    C109  1.474074 S    
C102  C106  1.395577 A    
C99   C135  1.445659 A    
P6    Ba2   3.422484 S    
P5    O46   1.567053 S    
C108  C112  1.512878 S    
C107  H103  1.084697 S    
P16   C119  1.853380 S    
C63   C67   1.409873 A    
C4    H76   1.109566 S    
O5    Ba2   2.811115 S    
C46   C50   1.420903 A    
C135  C141  1.476731 S    
O7    Ba4   2.811115 S    
O40   C15   1.405763 S    
O43   C7    1.404790 S    
N5    C129  1.473678 S    
C138  H117  1.081235 S    
C33   H113  1.078318 S    
C37   C41   1.423171 A    
N7    C131  1.474261 S    
C30   H70   1.113416 S    
C51   C75   1.409731 A    
O15   P16   1.546664 D    
O13   P14   1.546867 D    
C11   H79   1.110010 S    
P8    C103  1.881978 S    
O24   P15   1.746675 S    
C106  C110  1.514053 S    
C19   H39   1.110848 S    
C137  C138  1.526156 S    
C13   H29   1.112117 S    
O23   C31   1.405002 S    
P3    C123  1.865281 S    
