data_mof_unit_33758.cif
_audit_creation_date              2013-03-05T15:48:18-0500
_audit_creation_method            fapswitch 2.2
_symmetry_space_group_name_H-M    P1
_symmetry_Int_Tables_number       1
_space_group_crystal_system       triclinic
_cell_length_a                    10.108452
_cell_length_b                    10.877519
_cell_length_c                    16.745348
_cell_angle_alpha                 91.243596
_cell_angle_beta                  76.644016
_cell_angle_gamma                 96.417061
_cell_volume                      1780.19401602

loop_
_atom_site_label
_atom_site_type_symbol
_atom_site_description
_atom_site_fract_x
_atom_site_fract_y
_atom_site_fract_z
_atom_type_partial_charge
O1    O     O_R   0.430310 0.692580 0.506610 -0.617835
O2    O     O_R   0.569690 0.307420 0.493390 -0.622125
O3    O     O_R   0.652740 0.659410 0.485540 -0.560267
O4    O     O_R   0.347260 0.340590 0.514460 -0.563112
C1    C     C_R   0.558491 0.732715 0.494749 0.843541
C2    C     C_R   0.441499 0.267299 0.505347 0.836302
O5    O     O_R   0.375640 0.518570 0.627580 -0.607116
O6    O     O_R   0.624360 0.481430 0.372420 -0.608749
O7    O     O_R   0.598070 0.485390 0.606510 -0.619312
O8    O     O_R   0.401930 0.514610 0.393490 -0.616454
C3    C     C_R   0.479889 0.494930 0.654858 0.873427
C4    C     C_R   0.517750 0.496582 0.344938 0.883172
Zn1   Zn    Zn3+2 0.351480 0.522150 0.514070 0.995206
Zn2   Zn    Zn3+2 0.648520 0.477850 0.485930 0.991455
C5    C     C_R   0.457849 0.453601 0.739517 -0.072352
C6    C     C_R   0.524905 0.482683 0.257446 -0.070892
C7    C     C_R   0.551250 0.380929 0.759963 -0.191278
C8    C     C_R   0.405578 0.481938 0.228782 -0.194695
C9    C     C_R   0.528674 0.333443 0.838266 -0.193957
C10   C     C_R   0.408157 0.456773 0.147390 -0.197738
C11   C     C_R   0.414361 0.360549 0.898198 0.148999
C12   C     C_R   0.530006 0.431448 0.093010 0.174023
C13   C     C_R   0.313439 0.425207 0.877070 0.214360
C14   C     C_R   0.652926 0.436694 0.120348 0.200071
C15   C     C_R   0.336885 0.471769 0.797145 -0.208263
C16   C     C_R   0.648441 0.461977 0.203099 -0.226576
C17   C     C_2   0.420967 0.349224 0.983704 -0.234020
C18   C     C_2   0.528685 0.409937 0.006859 -0.225823
H1    H     H_    0.642594 0.360902 0.715565 0.180409
H2    H     H_    0.309258 0.498837 0.269443 0.170385
H3    H     H_    0.741003 0.463160 0.225436 0.163243
H4    H     H_    0.261918 0.523936 0.780470 0.160128
H5    H     H_    0.614394 0.453038 0.960881 0.165324
H6    H     H_    0.333067 0.306814 0.028331 0.158889
H7    H     H_    0.314359 0.458791 0.126907 0.149162
H8    H     H_    0.605749 0.282895 0.854001 0.157026
H9    H     H_    0.605499 0.104423 0.453576 0.213433
H10   H     H_    0.394164 0.895415 0.546478 0.213388
C19   C     C_2   0.595760 0.865270 0.488610 0.109493
C20   C     C_2   0.404171 0.134809 0.511838 0.113895
C21   C     C_2   0.493482 0.935990 0.512212 -0.215571
C22   C     C_2   0.506315 0.063985 0.488130 -0.214920
H11   H     H_    0.113955 0.420005 0.449789 0.168061
H12   H     H_    0.886152 0.580152 0.550077 0.171998
N1    N     N_2   0.846390 0.448330 0.467170 -0.186106
N2    N     N_2   0.153610 0.551670 0.532830 -0.183894
C23   C     C_2   0.926748 0.510719 0.506516 -0.087984
C24   C     C_2   0.073309 0.489356 0.493410 -0.087737
H13   H     H_    0.112034 0.616928 0.573774 0.181008
H14   H     H_    0.887924 0.382994 0.426274 0.179922
C25   C     C_3   0.185598 0.453034 0.938909 -0.451268
C26   C     C_3   0.204955 0.581545 0.975592 -0.843822
H15   H     H_    0.291760 0.588829 0.006352 0.267247
H16   H     H_    0.225379 0.653366 0.926814 0.263283
H17   H     H_    0.110583 0.598713 0.021628 0.248145
H18   H     H_    0.098101 0.447869 0.908664 0.212486
H19   H     H_    0.156524 0.383098 0.988934 0.201763
C27   C     C_3   0.788647 0.413940 0.063960 -0.451957
C28   C     C_3   0.792875 0.277546 0.041111 -0.831368
H20   H     H_    0.774267 0.219938 0.097410 0.268354
H21   H     H_    0.714956 0.246321 0.005849 0.265201
H22   H     H_    0.895293 0.263862 0.002496 0.244590
H23   H     H_    0.809222 0.471809 0.007748 0.201496
H24   H     H_    0.874324 0.441860 0.094246 0.209774
N3    N     N_R   0.265414 0.085033 0.547821 0.213473
O9    O     O_R   0.191325 0.143190 0.607524 -0.365608
O10   O     O_R   0.206756 0.993157 0.512929 -0.354467
N4    N     N_R   0.734695 0.915288 0.453255 0.213750
O11   O     O_R   0.809693 0.857234 0.393899 -0.363837
O12   O     O_R   0.792477 0.007430 0.488385 -0.356781

loop_
_geom_bond_atom_site_label_1
_geom_bond_atom_site_label_2
_geom_bond_distance
_ccdc_geom_bond_type
O7    Zn2   1.967286 S    
C26   H17   1.110405 S    
C19   N4    1.441506 S    
C8    H2    1.083362 S    
C7    H1    1.083296 S    
H11   C24   1.085421 S    
C13   C25   1.513097 S    
C23   C24   1.490481 S    
H12   C23   1.085351 S    
O5    Zn1   1.973287 S    
O6    C4    1.293224 A    
O3    C1    1.289898 A    
C15   H4    1.083973 S    
C20   C22   1.338782 D    
C11   C17   1.457202 S    
C28   H20   1.110933 S    
C19   C21   1.338898 D    
C12   C18   1.459324 S    
O5    C3    1.293566 A    
O7    C3    1.292519 A    
N2    H13   1.031036 S    
C17   H6    1.085055 S    
O2    C2    1.291204 A    
O3    Zn2   1.970730 S    
O8    C4    1.294132 A    
N1    H14   1.031047 S    
O1    C1    1.291254 A    
C6    C16   1.402591 A    
C14   C27   1.517332 S    
C28   H21   1.109403 S    
C9    C11   1.398885 A    
C14   C16   1.398239 A    
C26   H16   1.110796 S    
C18   H5    1.086228 S    
N3    O9    1.301200 A    
Zn2   N1    2.012791 S    
C8    C10   1.379203 A    
C9    H8    1.084272 S    
C13   C15   1.399996 A    
C11   C13   1.413679 A    
C27   H24   1.112174 S    
C20   N3    1.441355 S    
O2    Zn2   1.929044 S    
C12   C14   1.415110 A    
C5    C15   1.402147 A    
O4    C2    1.289820 A    
O1    Zn1   1.929044 S    
H9    C22   1.085332 S    
C25   C26   1.525382 S    
N2    C24   1.288101 D    
C1    C19   1.448663 S    
C25   H19   1.109402 S    
C16   H3    1.083654 S    
C2    C20   1.448250 S    
C26   H15   1.110418 S    
H10   C21   1.085248 S    
C6    C8    1.396612 A    
C25   H18   1.111993 S    
C21   C22   1.441413 S    
N1    C23   1.288057 D    
C27   H23   1.109741 S    
C5    C7    1.400501 A    
N4    O12   1.301568 A    
Zn1   N2    2.012791 S    
C28   H22   1.110443 S    
O6    Zn2   1.973288 S    
C4    C6    1.455486 S    
C7    C9    1.379485 A    
C27   C28   1.526874 S    
C10   H7    1.082746 S    
C3    C5    1.456295 S    
N3    O10   1.301541 A    
O4    Zn1   1.970730 S    
C10   C12   1.403202 A    
N4    O11   1.301177 A    
C17   C18   1.339895 D    
O8    Zn1   1.967286 S    
