data_mof_unit_28776.cif
_audit_creation_date              2012-12-10T20:28:42-0500
_audit_creation_method            fapswitch 2.2
_symmetry_space_group_name_H-M    P1
_symmetry_Int_Tables_number       1
_space_group_crystal_system       triclinic
_cell_length_a                    10.748744
_cell_length_b                    10.64287
_cell_length_c                    9.864837
_cell_angle_alpha                 89.756339
_cell_angle_beta                  86.037341
_cell_angle_gamma                 91.160004
_cell_volume                      1125.56581279

loop_
_atom_site_label
_atom_site_type_symbol
_atom_type_description
_atom_site_fract_x
_atom_site_fract_y
_atom_site_fract_z
_atom_type_partial_charge
C1    C     C_R   0.507087 0.260007 0.499843 0.891237
C2    C     C_R   0.049040 0.475214 0.623089 0.105749
C3    C     C_R   0.125921 0.521360 0.512125 -0.195831
C4    C     C_R   0.074134 0.560375 0.393585 -0.278850
C5    C     C_R   0.947419 0.550712 0.381461 0.463998
C6    C     C_R   0.873722 0.486305 0.485687 -0.248310
C7    C     C_R   0.532135 0.063698 0.621979 0.131110
C8    C     C_R   0.534615 0.129582 0.499620 -0.122140
C9    C     C_R   0.566558 0.067127 0.377486 -0.162813
C10   C     C_R   0.564154 0.936735 0.376622 -0.132657
C11   C     C_R   0.532954 0.871667 0.498650 -0.109368
C12   C     C_R   0.259665 0.508310 0.504568 0.922266
C13   C     C_R   0.531803 0.935510 0.621520 0.127848
C14   C     C_3   0.441840 0.925553 0.743709 -0.444511
C15   C     C_3   0.441679 0.067679 0.743627 -0.452706
C16   C     C_R   0.458715 0.396210 0.075614 0.221073
C17   C     C_R   0.550303 0.597894 0.067507 -0.077335
C18   C     C_R   0.550945 0.597594 0.923635 -0.132037
C19   C     C_R   0.458705 0.396439 0.932558 0.194431
C20   C     C_3   0.329417 0.343411 0.939412 -0.560998
C21   C     C_3   0.329634 0.341776 0.092215 -0.039430
C22   C     C_R   0.506525 0.740200 0.499329 0.898276
C23   C     C_R   0.740264 0.495414 0.495047 0.915921
C24   C     C_R   0.084681 0.471788 0.757313 -0.191853
C25   C     C_R   0.014256 0.402556 0.857366 -0.162664
C26   C     C_R   0.907624 0.336607 0.823449 0.219791
C27   C     C_R   0.864326 0.352901 0.694664 -0.153660
C28   C     C_R   0.928866 0.434734 0.598889 0.015834
H1    H     H_    0.133468 0.600760 0.310749 0.209772
H2    H     H_    0.484940 0.885298 0.832991 0.210201
H3    H     H_    0.350409 0.106359 0.719471 0.208518
H4    H     H_    0.484672 0.109049 0.832991 0.228643
H5    H     H_    0.589154 0.677928 0.118236 0.184083
H6    H     H_    0.590823 0.677074 0.866133 0.159021
H7    H     H_    0.264656 0.411962 0.904525 0.193501
H8    H     H_    0.321819 0.249639 0.893057 0.228754
H9    H     H_    0.261635 0.407377 0.142005 0.171493
H10   H     H_    0.160891 0.530640 0.786503 0.174126
H11   H     H_    0.042507 0.399921 0.960524 0.190658
H12   H     H_    0.778299 0.305334 0.671841 0.159990
H13   H     H_    0.582358 0.117619 0.282111 0.205686
H14   H     H_    0.576985 0.888234 0.280516 0.189732
H15   H     H_    0.350573 0.882222 0.721114 0.212040
N1    N     N_R   0.499160 0.499140 0.142800 -0.118721
N2    N     N_R   0.499160 0.499180 0.857150 -0.107049
O1    O     O_R   0.500020 0.316790 0.614690 -0.624733
O2    O     O_R   0.500000 0.316760 0.385350 -0.599083
O3    O     O_R   0.316770 0.500020 0.614690 -0.629742
O4    O     O_R   0.316760 0.499980 0.385350 -0.624170
O5    O     O_R   0.500000 0.683240 0.614650 -0.631496
O6    O     O_R   0.499980 0.683210 0.385310 -0.616441
O7    O     O_R   0.683240 0.500020 0.614650 -0.629002
O8    O     O_R   0.683230 0.499980 0.385310 -0.523280
Zn1   Zn    Zn3+2 0.500010 0.500020 0.653130 0.953196
Zn2   Zn    Zn3+2 0.499990 0.499980 0.346870 1.025332
I1    I     I_    0.318378 0.154642 0.172760 -0.343744
I2    I     I_    0.804343 0.223694 0.969326 -0.325724
S1    S     S_3+6 0.888595 0.622130 0.236044 0.019856
O9    O     O_2   0.792432 0.716923 0.280096 -0.314093
O10   O     O_2   0.991864 0.687677 0.150642 -0.316875
O11   O     O_3   0.823354 0.510649 0.141948 -0.536857
H16   H     H_    0.818732 0.549259 0.050944 0.374036

loop_
_geom_bond_atom_site_label_1
_geom_bond_atom_site_label_2
_ccdc_geom_bond_type
C21   I1    S    
C24   H10   S    
C24   C25   A    
C19   N2    A    
C12   O4    A    
C16   C21   S    
C10   H14   S    
C1    C8    S    
C11   C13   A    
C9    C10   A    
C16   N1    A    
C11   C22   S    
C9    H13   S    
C19   C20   S    
C22   O5    A    
C27   H12   S    
C12   O3    A    
C7    C13   A    
O1    Zn1   S    
S1    O11   S    
C7    C15   S    
C17   C18   A    
C23   O7    A    
C17   N1    A    
C7    C8    A    
C13   C14   S    
C25   H11   S    
O3    Zn1   S    
C4    C5    A    
C18   H6    S    
N1    Zn2   S    
C26   C27   A    
O5    Zn1   S    
C17   H5    S    
C5    S1    S    
C14   H2    S    
C16   C19   A    
C5    C6    A    
C6    C23   S    
C1    O2    A    
O7    Zn1   S    
N2    Zn1   S    
C23   O8    A    
C2    C3    A    
O8    Zn2   S    
C2    C24   A    
O11   H16   S    
C26   I2    S    
S1    O9    D    
C1    O1    A    
C22   O6    A    
C10   C11   A    
S1    O10   D    
C3    C4    A    
C20   H8    S    
C18   N2    A    
C15   H4    S    
C21   H9    S    
C20   C21   S    
O2    Zn2   S    
C27   C28   A    
C14   C15   S    
C8    C9    A    
C2    C28   A    
C3    C12   S    
O6    Zn2   S    
C25   C26   A    
O4    Zn2   S    
C20   H7    S    
C15   H3    S    
C6    C28   A    
C4    H1    S    
C14   H15   S    
