data_mof_unit_42806.cif
_audit_creation_date              2013-03-05T16:41:26-0500
_audit_creation_method            fapswitch 2.2
_symmetry_space_group_name_H-M    P1
_symmetry_Int_Tables_number       1
_space_group_crystal_system       triclinic
_cell_length_a                    10.597717
_cell_length_b                    10.638693
_cell_length_c                    9.937178
_cell_angle_alpha                 89.403758
_cell_angle_beta                  101.799256
_cell_angle_gamma                 91.917499
_cell_volume                      1096.08078871

loop_
_atom_site_label
_atom_site_type_symbol
_atom_site_description
_atom_site_fract_x
_atom_site_fract_y
_atom_site_fract_z
_atom_type_partial_charge
O1    O     O_R   0.500020 0.316790 0.614700 -0.577936
O2    O     O_R   0.500000 0.316760 0.385350 -0.577138
C1    C     C_R   0.511454 0.260897 0.503237 1.015175
O3    O     O_R   0.317820 0.500020 0.571850 -0.559438
O4    O     O_R   0.317800 0.499980 0.342510 -0.594419
C2    C     C_R   0.257859 0.502065 0.444711 0.884559
Zn1   Zn    Zn3+2 0.500010 0.500020 0.653140 1.152235
Zn2   Zn    Zn3+2 0.499990 0.499980 0.346860 1.178987
O5    O     O_R   0.500000 0.683240 0.614650 -0.562766
O6    O     O_R   0.499980 0.683210 0.385300 -0.537934
O7    O     O_R   0.682200 0.500020 0.657490 -0.584071
O8    O     O_R   0.682180 0.499980 0.428150 -0.528981
C3    C     C_R   0.505915 0.740189 0.500640 0.964604
C4    C     C_R   0.741621 0.509162 0.555649 0.887816
H1    H     H_    0.135812 0.662242 0.564229 0.238530
C5    C     C_2   0.118184 0.514187 0.419459 0.140528
C6    C     C_2   0.071222 0.598850 0.495204 -0.211036
C7    C     C_2   0.880051 0.537620 0.585555 -0.018637
C8    C     C_2   0.933674 0.603363 0.493829 0.636588
C9    C     C_R   0.527577 0.063164 0.629656 -0.159096
C10   C     C_R   0.544879 0.131272 0.513995 -0.226663
C11   C     C_R   0.593089 0.069509 0.410131 0.177147
C12   C     C_R   0.582797 0.937790 0.405469 0.658287
C13   C     C_R   0.531973 0.872437 0.507313 -0.259026
C14   C     C_R   0.520278 0.935296 0.625464 -0.170348
C15   C     C_3   0.420331 0.925303 0.711762 1.111058
C16   C     C_3   0.429420 0.068213 0.718929 0.674457
C17   C     C_R   0.407984 0.432900 0.051625 -0.083821
N1    N     N_R   0.499160 0.499140 0.142600 -0.172603
C18   C     C_R   0.595416 0.559150 0.092532 0.743236
C19   C     C_R   0.597166 0.558461 0.949826 0.247961
N2    N     N_R   0.499160 0.499180 0.856960 -0.151671
C20   C     C_R   0.410042 0.429430 0.909766 -0.014331
C21   C     C_3   0.267799 0.442016 0.869434 0.664847
C22   C     C_3   0.264999 0.452185 0.023015 0.251250
F1    F     F_    0.859801 0.662653 0.385888 -0.505228
N3    N     N_R   0.482814 0.116650 0.857088 0.220181
O9    O     O_R   0.588291 0.186378 0.881063 -0.309230
O10   O     O_R   0.425221 0.089184 0.957839 -0.210911
F2    F     F_    0.686352 0.627169 0.178955 -0.482955
N4    N     N_R   0.703756 0.619885 0.905673 0.260656
O11   O     O_R   0.685942 0.720860 0.830579 -0.276338
O12   O     O_R   0.820354 0.594843 0.968590 -0.178740
F3    F     F_    0.238075 0.551736 0.795681 -0.588127
N5    N     N_R   0.203033 0.329802 0.798199 0.243356
O13   O     O_R   0.142606 0.337725 0.670872 -0.276520
O14   O     O_R   0.211315 0.219829 0.857065 -0.229306
N6    N     N_R   0.230895 0.578013 0.061994 0.247630
O15   O     O_R   0.124360 0.593402 0.104752 -0.220550
O16   O     O_R   0.300697 0.677148 0.042893 -0.256482
N7    N     N_R   0.192876 0.350482 0.078140 0.233731
O17   O     O_R   0.252703 0.266997 0.162327 -0.268012
O18   O     O_R   0.068046 0.340633 0.039828 -0.172969
N8    N     N_R   0.951776 0.511962 0.720730 0.216431
O19   O     O_R   0.926472 0.408311 0.782026 -0.245175
O20   O     O_R   0.006425 0.606259 0.795182 -0.218102
N9    N     N_R   0.036110 0.423743 0.333260 0.241454
O21   O     O_R   0.928678 0.456495 0.253968 -0.197923
O22   O     O_R   0.068958 0.306937 0.335081 -0.221621
N10   N     N_R   0.652392 0.138100 0.312554 0.258532
O23   O     O_R   0.731760 0.232480 0.353560 -0.311386
O24   O     O_R   0.643359 0.095724 0.188546 -0.162724
F4    F     F_    0.620658 0.874810 0.302992 -0.505209
F5    F     F_    0.302356 0.878045 0.640654 -0.597836
F6    F     F_    0.463704 0.864328 0.835576 -0.556481
F7    F     F_    0.317104 0.125233 0.655551 -0.567499

loop_
_geom_bond_atom_site_label_1
_geom_bond_atom_site_label_2
_geom_bond_distance
_ccdc_geom_bond_type
O4    Zn2   1.922425 S    
C12   C13   1.407470 A    
H1    C6    1.086544 S    
N3    O9    1.302249 A    
C9    C16   1.501367 S    
N4    O11   1.298368 A    
C4    C7    1.458096 S    
C19   N2    1.380007 A    
Zn2   O8    1.934593 S    
C11   N10   1.439273 S    
N2    C20   1.365890 A    
N6    O16   1.302545 A    
O2    C1    1.293227 A    
N9    O21   1.300953 A    
C18   F2    1.348223 S    
N3    O10   1.300827 A    
C16   F7    1.383912 S    
O1    Zn1   1.990306 S    
C10   C11   1.417839 A    
C13   C14   1.386520 A    
N10   O24   1.300524 A    
Zn1   O7    1.922424 S    
N4    O12   1.300533 A    
C15   C16   1.521695 S    
N1    C18   1.361284 A    
C16   N3    1.465641 S    
O3    Zn1   1.934593 S    
O4    C2    1.304111 A    
Zn2   N1    2.028098 S    
C12   F4    1.358758 S    
N6    O15   1.300790 A    
C6    C8    1.457364 S    
O8    C4    1.297557 A    
C17   C20   1.415181 A    
C20   C21   1.488711 S    
C5    N9    1.439638 S    
N5    O14   1.300141 A    
C22   N7    1.469197 S    
C18   C19   1.422101 A    
O7    C4    1.297949 A    
N8    O20   1.300199 A    
C1    C10   1.432763 S    
N9    O22   1.300620 A    
C9    C14   1.360552 A    
C7    N8    1.430149 S    
C2    C5    1.459758 S    
N7    O17   1.302305 A    
C5    C6    1.350115 D    
Zn1   O5    1.982481 S    
C21   F3    1.382495 S    
C9    C10   1.392696 A    
C3    C13   1.424284 S    
O3    C2    1.293241 A    
C21   C22   1.537504 S    
C14   C15   1.493541 S    
C21   N5    1.470177 S    
C7    C8    1.347181 D    
O5    C3    1.291036 A    
N8    O19   1.300745 A    
C17   N1    1.363080 A    
C15   F5    1.385378 S    
Zn1   N2    2.027182 S    
C19   N4    1.429295 S    
N7    O18   1.300616 A    
C8    F1    1.355302 S    
C11   C12   1.402423 A    
C15   F6    1.384888 S    
Zn2   O6    1.990305 S    
O2    Zn2   1.982484 S    
C17   C22   1.504162 S    
C22   N6    1.474120 S    
N10   O23   1.301361 A    
O1    C1    1.291717 A    
O6    C3    1.291321 A    
N5    O13   1.299277 A    
