data_mof_unit_44245.cif
_audit_creation_date              2012-12-11T17:01:30-0500
_audit_creation_method            fapswitch 2.2
_symmetry_space_group_name_H-M    P1
_symmetry_Int_Tables_number       1
_space_group_crystal_system       triclinic
_cell_length_a                    14.967987
_cell_length_b                    14.847551
_cell_length_c                    14.864879
_cell_angle_alpha                 109.653522
_cell_angle_beta                  109.045591
_cell_angle_gamma                 109.444907
_cell_volume                      2551.4384008

loop_
_atom_site_label
_atom_site_type_symbol
_atom_type_description
_atom_site_fract_x
_atom_site_fract_y
_atom_site_fract_z
_atom_type_partial_charge
C1    C     C_R   0.929602 0.744412 0.023073 -0.104090
C2    C     C_R   0.210212 0.804785 0.301501 -0.214462
C3    C     C_R   0.972900 0.408271 0.223739 -0.084103
C4    C     C_R   0.781069 0.256970 0.687131 -0.144191
C5    C     C_R   0.313812 0.591359 0.067127 -0.159846
C6    C     C_R   0.050063 0.501286 0.326535 0.064803
C7    C     C_R   0.324536 0.498818 0.051631 0.083056
C8    C     C_R   0.302878 0.867540 0.302137 0.011534
C9    C     C_R   0.934841 0.131468 0.934813 0.078612
C10   C     C_3   0.533997 0.493107 0.965505 -0.465835
C11   C     C_3   0.434448 0.499454 0.964156 -0.494040
C12   C     C_R   0.678321 0.228092 0.674636 0.192242
C13   C     C_3   0.532878 0.396364 0.077097 0.261757
C14   C     C_3   0.632439 0.605240 0.172392 -0.359360
C15   C     C_3   0.602445 0.498501 0.072792 0.154271
C16   C     C_R   0.096547 0.591837 0.792466 -0.147508
C17   C     C_3   0.426272 0.498136 0.065242 0.179555
C18   C     C_3   0.424553 0.392825 0.066501 0.473444
C19   C     C_3   0.528440 0.601369 0.172052 -0.378670
C20   C     C_R   0.585900 0.092054 0.482384 0.091194
C21   C     C_R   0.580765 0.162335 0.568048 -0.182474
C22   C     C_R   0.479178 0.155058 0.549929 0.374239
C23   C     C_R   0.067175 0.501329 0.698411 0.086125
C24   C     C_R   0.382962 0.062239 0.455473 0.373537
C25   C     C_R   0.391601 0.979075 0.383029 -0.181955
C26   C     C_R   0.493316 0.002118 0.392359 0.215157
C27   C     C_3   0.544954 0.930978 0.383876 -0.418882
C28   C     C_R   0.699948 0.408053 0.003993 -0.093711
C29   C     C_3   0.647611 0.030377 0.483683 -0.514834
C30   C     C_R   0.155323 0.604405 0.530768 0.157715
C31   C     C_R   0.099073 0.504945 0.431252 0.028722
C32   C     C_R   0.073714 0.406860 0.435639 -0.163483
C33   C     C_R   0.077132 0.406457 0.530757 -0.166342
C34   C     C_R   0.699111 0.499238 0.067863 0.114391
C35   C     C_R   0.106792 0.504378 0.621175 0.021832
C36   C     C_R   0.159582 0.604008 0.624689 0.167190
C37   C     C_3   0.150621 0.705944 0.663716 -0.522258
C38   C     C_3   0.145214 0.706245 0.560947 -0.495492
C39   C     C_R   0.841577 0.873193 0.945695 0.161276
C40   C     C_R   0.005045 0.409250 0.699514 -0.127913
C41   C     C_R   0.897478 0.829235 0.902659 0.036132
C42   C     C_R   0.924367 0.859819 0.831092 -0.180622
C43   C     C_R   0.923354 0.953025 0.828910 -0.205002
C44   C     C_R   0.894081 0.014148 0.897241 0.029144
C45   C     C_R   0.066870 0.592470 0.313683 -0.127526
C46   C     C_R   0.839404 0.964171 0.942376 0.161247
C47   C     C_3   0.847192 0.011221 0.052668 -0.512093
C48   C     C_3   0.850484 0.912526 0.057029 -0.510236
C49   C     C_R   0.790842 0.591022 0.096974 -0.159182
C50   C     C_R   0.685978 0.250515 0.776284 -0.110003
C51   C     C_R   0.024273 0.748971 0.933748 -0.151282
C52   C     C_R   0.946228 0.773514 0.948399 0.079422
C53   C     C_3   0.312222 0.883341 0.101839 -0.241077
C54   C     C_3   0.340787 0.276840 0.122523 -0.080732
C55   C     C_R   0.222263 0.407069 0.974818 -0.126334
C56   C     C_R   0.298328 0.803571 0.207335 0.558094
C57   C     C_R   0.904775 0.195860 0.995308 -0.159257
C58   C     C_R   0.997652 0.195040 0.905476 -0.141739
Cl1   Cl    Cl    0.610296 0.394390 0.197321 -0.637266
Cl2   Cl    Cl    0.471424 0.257650 0.645389 -0.623717
Cl3   Cl    Cl    0.255162 0.051123 0.430922 -0.619930
H1    H     H_    0.870771 0.746119 0.049012 0.102794
H2    H     H_    0.440275 0.576376 0.964514 0.204785
H3    H     H_    0.803972 0.250205 0.624457 0.119486
H4    H     H_    0.360492 0.428852 0.886130 0.191165
H5    H     H_    0.509737 0.319284 0.005802 0.017862
H6    H     H_    0.357677 0.320235 0.984567 -0.063789
H7    H     H_    0.687765 0.615893 0.251111 0.210507
H8    H     H_    0.675696 0.678896 0.167312 0.151917
H9    H     H_    0.531681 0.679206 0.178783 0.147505
H10   H     H_    0.527130 0.599142 0.245668 0.215087
H11   H     H_    0.160245 0.675165 0.828269 0.096079
H12   H     H_    0.200750 0.321505 0.937502 0.094576
H13   H     H_    0.508887 0.862848 0.399165 0.175819
H14   H     H_    0.553542 0.905983 0.309168 0.217793
H15   H     H_    0.671333 0.019676 0.556913 0.203825
H16   H     H_    0.714373 0.062142 0.465771 0.196438
H17   H     H_    0.037885 0.328684 0.362685 0.130871
H18   H     H_    0.043694 0.327914 0.527388 0.133632
H19   H     H_    0.073537 0.691425 0.665565 0.204823
H20   H     H_    0.226115 0.776912 0.739662 0.192230
H21   H     H_    0.064761 0.691621 0.505225 0.209783
H22   H     H_    0.645286 0.322642 0.973790 0.102081
H23   H     H_    0.840441 0.167792 0.014074 0.107143
H24   H     H_    0.217250 0.777840 0.577823 0.198664
H25   H     H_    0.959916 0.822268 0.788757 0.130632
H26   H     H_    0.958139 0.983660 0.784968 0.130861
H27   H     H_    0.924611 0.089585 0.116245 0.205014
H28   H     H_    0.771849 0.012443 0.047505 0.195613
H29   H     H_    0.930165 0.936139 0.123223 0.217232
H30   H     H_    0.777462 0.857414 0.055286 0.191477
H31   H     H_    0.982363 0.325148 0.647750 0.088201
H32   H     H_    0.820734 0.675914 0.154168 0.099122
H33   H     H_    0.620761 0.234611 0.795516 0.141618
H34   H     H_    0.021008 0.166133 0.844721 0.089442
H35   H     H_    0.055884 0.759661 0.880142 0.093677
H36   H     H_    0.124663 0.677491 0.374386 0.109637
H37   H     H_    0.281318 0.933299 0.142812 0.148863
H38   H     H_    0.246421 0.814960 0.018706 0.139197
H39   H     H_    0.374833 0.938174 0.091722 0.171295
H40   H     H_    0.371935 0.222182 0.090572 0.133043
H41   H     H_    0.255934 0.245592 0.060314 0.093022
H42   H     H_    0.339124 0.274247 0.195687 0.174833
H43   H     H_    0.181516 0.832720 0.357348 0.186375
H44   H     H_    0.940984 0.322921 0.202798 0.092297
H45   H     H_    0.377298 0.676220 0.115387 0.151090
H46   H     H_    0.507322 0.414865 0.892818 0.216311
H47   H     H_    0.583128 0.562253 0.957650 0.202577
N1    N     N_R   0.995640 0.706130 0.053910 -0.038034
N2    N     N_R   0.054010 0.556790 0.847890 -0.037701
N3    N     N_R   0.789940 0.443190 0.997130 -0.041887
N4    N     N_R   0.997630 0.443170 0.791110 -0.039306
N5    N     N_R   0.846320 0.556810 0.053910 -0.038943
N6    N     N_R   0.791080 0.293860 0.847890 -0.055918
N7    N     N_R   0.052880 0.706130 0.997130 -0.050394
N8    N     N_R   0.002370 0.556830 0.208890 -0.038039
N9    N     N_R   0.153680 0.443190 0.946090 -0.043701
N10   N     N_R   0.208920 0.706140 0.152110 -0.099131
N11   N     N_R   0.947120 0.293870 0.002870 -0.040624
N12   N     N_R   0.004360 0.293870 0.946090 -0.037135
N13   N     N_R   0.151690 0.706140 0.208890 -0.077859
N14   N     N_R   0.945990 0.443210 0.152110 -0.041715
N15   N     N_R   0.210060 0.556810 0.002870 -0.036952
N16   N     N_R   0.848310 0.293860 0.791110 -0.050719
Ni1   Ni    Ni4+2 0.999010 0.630300 0.130220 0.231011
Ni2   Ni    Ni4+2 0.000990 0.369700 0.869780 0.211763
Ni3   Ni    Ni4+2 0.130280 0.630280 0.000000 0.226012
Ni4   Ni    Ni4+2 0.869720 0.369720 0.000000 0.226157
O1    O     O_3   0.360282 0.841431 0.162963 -0.656379
O2    O     O_3   0.408859 0.386929 0.154118 -0.582254

loop_
_geom_bond_atom_site_label_1
_geom_bond_atom_site_label_2
_ccdc_geom_bond_type
C49   N5    A    
C24   Cl3   S    
C6    C45   A    
C27   C29   S    
C41   C42   A    
C54   H40   S    
C10   H47   S    
C35   C36   A    
C16   H11   S    
C7    C55   A    
C43   C44   A    
C3    C6    A    
C1    H1    S    
C8    C56   A    
C16   N2    A    
C39   C41   A    
C29   H15   S    
C3    H44   S    
C4    N16   A    
C26   C27   S    
N8    N14   A    
C13   C18   S    
C36   C37   S    
C11   H2    S    
C10   C15   S    
C22   Cl2   S    
C30   C31   A    
N12   Ni2   S    
N5    Ni1   S    
C23   C40   A    
N7    Ni3   S    
C30   C38   S    
C9    C58   A    
C1    N1    A    
C19   H10   S    
C47   C48   S    
C7    C17   S    
C48   H30   S    
C5    N15   A    
C42   H25   S    
C4    C12   A    
C27   H13   S    
N9    Ni2   S    
C15   C34   S    
N4    Ni2   S    
C56   O1    S    
C3    N14   A    
N2    Ni3   S    
C57   N11   A    
N6    N16   A    
N11   Ni4   S    
C6    C31   S    
C28   C34   A    
C5    H45   S    
C53   H39   S    
C48   H29   S    
C21   C22   A    
C38   H21   S    
C28   H22   S    
C50   H33   S    
C8    C25   S    
C47   H28   S    
C37   H20   S    
C10   H46   S    
C27   H14   S    
C44   C46   A    
C13   H5    S    
C28   N3    A    
C54   O2    S    
C37   H19   S    
C38   H24   S    
C51   C52   A    
C53   H38   S    
C54   H42   S    
C24   C25   A    
C40   N4    A    
C5    C7    A    
C33   H18   S    
C25   C26   A    
C12   C21   S    
C51   N7    A    
C50   N6    A    
N10   N13   A    
C58   H34   S    
N13   Ni1   S    
C37   C38   S    
N6    Ni4   S    
N15   Ni3   S    
C31   C32   A    
C2    H43   S    
C58   N12   A    
C17   C18   S    
C57   H23   S    
N3    N5    A    
C40   H31   S    
C9    C44   S    
C39   C46   A    
N1    Ni1   S    
C16   C23   A    
C23   C35   S    
N8    Ni1   S    
C13   C15   S    
C14   H8    S    
C22   C24   A    
C18   O2    S    
C53   O1    S    
C42   C43   A    
C17   C19   S    
N16   Ni2   S    
C55   N9    A    
C2    N13   A    
C4    H3    S    
C46   C47   S    
C11   C17   S    
C34   C49   A    
C41   C52   S    
C56   N10   A    
C14   C19   S    
C54   H41   S    
C2    C8    A    
C12   C50   A    
N11   N12   A    
N14   Ni4   S    
C13   Cl1   S    
C53   H37   S    
C51   H35   S    
C30   C36   A    
C43   H26   S    
C47   H27   S    
C18   H6    S    
C45   H36   S    
C32   C33   A    
C45   N8    A    
C20   C26   A    
C33   C35   A    
C9    C57   A    
N9    N15   A    
C1    C52   A    
N2    N4    A    
C10   C11   S    
N1    N7    A    
C32   H17   S    
C55   H12   S    
C29   H16   S    
C20   C21   A    
C20   C29   S    
N10   Ni3   S    
N3    Ni4   S    
C14   H7    S    
C14   C15   S    
C19   H9    S    
C49   H32   S    
C11   H4    S    
C39   C48   S    
