data_mof_unit_59635.cif
_audit_creation_date              2012-12-10T17:22:04-0500
_audit_creation_method            fapswitch 2.2
_symmetry_space_group_name_H-M    P1
_symmetry_Int_Tables_number       1
_space_group_crystal_system       triclinic
_cell_length_a                    10.286548
_cell_length_b                    10.603096
_cell_length_c                    15.744678
_cell_angle_alpha                 92.407983
_cell_angle_beta                  81.195596
_cell_angle_gamma                 94.75419
_cell_volume                      1690.43633745

loop_
_atom_site_label
_atom_site_type_symbol
_atom_type_description
_atom_site_fract_x
_atom_site_fract_y
_atom_site_fract_z
_atom_type_partial_charge
C1    C     C_R   0.554404 0.733606 0.498518 0.891980
C2    C     C_3   0.394435 0.584561 0.065348 -0.397012
C3    C     C_3   0.510612 0.505196 0.082368 -0.023168
C4    C     C_3   0.483940 0.368265 0.044047 -0.255588
C5    C     C_3   0.513664 0.372487 0.944724 -0.299689
C6    C     C_1   0.506341 0.502218 0.174447 0.027107
C7    C     C_1   0.502603 0.511476 0.824909 0.164325
C8    C     C_1   0.500756 0.507548 0.749856 0.033675
C9    C     C_2   0.581366 0.867903 0.514202 -0.273168
C10   C     C_2   0.482822 0.932874 0.554767 -0.199386
C11   C     C_2   0.417866 0.134239 0.527059 -0.478392
C12   C     C_R   0.500194 0.502635 0.661262 0.911891
C13   C     C_2   0.499407 0.068193 0.563917 0.459172
C14   C     C_2   0.929721 0.516619 0.503181 -0.072420
C15   C     C_2   0.072266 0.486967 0.490885 0.422591
C16   C     C_R   0.445884 0.267536 0.511446 1.004078
C17   C     C_R   0.500499 0.500063 0.338683 0.912585
C18   C     C_3   0.376531 0.571157 0.967309 0.247539
C19   C     C_3   0.631899 0.592747 0.940946 0.198494
C20   C     C_3   0.646314 0.569570 0.037326 0.159464
C21   C     C_1   0.502286 0.500940 0.249940 -0.108836
C22   C     C_3   0.505136 0.512388 0.916472 -0.131154
H1    H     H_    0.301984 0.546286 0.105734 0.186827
H2    H     H_    0.383968 0.888680 0.573851 0.170787
H3    H     H_    0.335176 0.086004 0.500183 0.165982
H4    H     H_    0.679568 0.913095 0.494664 0.189964
H5    H     H_    0.123741 0.621119 0.577534 0.138831
H6    H     H_    0.862947 0.366083 0.432645 0.269576
H7    H     H_    0.612016 0.693254 0.940825 0.157372
H8    H     H_    0.660952 0.664587 0.068800 0.094488
H9    H     H_    0.615505 0.345587 0.922565 0.250490
H10   H     H_    0.377632 0.338317 0.064171 0.159761
N1    N     N_2   0.842720 0.448890 0.465540 -0.170623
N2    N     N_2   0.157250 0.551040 0.534500 -0.250228
O1    O     O_R   0.431050 0.692470 0.506940 -0.624044
O2    O     O_R   0.651130 0.659650 0.484820 -0.616063
O3    O     O_R   0.389910 0.516410 0.633920 -0.612779
O4    O     O_R   0.609990 0.483590 0.611800 -0.559502
O5    O     O_R   0.348870 0.340350 0.515180 -0.541401
O6    O     O_R   0.568950 0.307530 0.493060 -0.567763
O7    O     O_R   0.390010 0.516410 0.388200 -0.556012
O8    O     O_R   0.610090 0.483590 0.366080 -0.616273
Zn1   Zn    Zn3+2 0.353060 0.521920 0.514770 1.045510
Zn2   Zn    Zn3+2 0.646940 0.478080 0.485230 1.056197
C23   C     C_1   0.413598 0.717530 0.097226 0.324169
N3    N     N_1   0.428625 0.821037 0.122425 -0.134961
C24   C     C_1   0.257588 0.484312 0.960351 0.276059
N4    N     N_1   0.164130 0.417418 0.955119 -0.065963
C25   C     C_1   0.555902 0.269899 0.076580 0.384347
N5    N     N_1   0.611346 0.192222 0.102028 -0.093222
S1    S     S_3+6 0.623241 0.133235 0.623909 0.068050
O9    O     O_2   0.742429 0.184682 0.564441 -0.259441
O10   O     O_2   0.570008 0.236809 0.683842 -0.328832
O11   O     O_3   0.667886 0.019023 0.682074 -0.500605
H11   H     H_    0.734128 0.061990 0.715199 0.403904
S2    S     S_3+6 0.110844 0.358178 0.413169 0.049709
O12   O     O_2   0.059540 0.387743 0.332281 -0.331341
O13   O     O_2   0.249091 0.324336 0.385838 -0.263474
O14   O     O_3   0.026324 0.226362 0.454593 -0.542292
H12   H     H_    0.015249 0.169085 0.404426 0.384716
C26   C     C_1   0.887869 0.624878 0.555900 0.244705
N6    N     N_1   0.855259 0.712074 0.598053 -0.103889
S3    S     S_3+6 0.335812 0.717588 0.922933 0.034909
O15   O     O_2   0.219576 0.767390 0.980502 -0.231173
O16   O     O_2   0.448098 0.818501 0.915468 -0.283587
O17   O     O_3   0.292298 0.686856 0.824943 -0.571862
H13   H     H_    0.266958 0.768560 0.806794 0.394324
S4    S     S_3+6 0.779329 0.591107 0.860507 0.089767
O18   O     O_2   0.812332 0.458337 0.834028 -0.245420
O19   O     O_2   0.754494 0.657264 0.782664 -0.293463
O20   O     O_3   0.908727 0.671532 0.896447 -0.441267
H14   H     H_    0.984892 0.658671 0.851048 0.399842
S5    S     S_3+6 0.791122 0.492024 0.056320 0.093448
O21   O     O_2   0.820521 0.384055 0.993453 -0.205053
O22   O     O_2   0.909309 0.586391 0.048720 -0.208859
O23   O     O_3   0.770723 0.434878 0.155955 -0.531286
H15   H     H_    0.793945 0.507817 0.193644 0.369017
C27   C     C_1   0.428368 0.274824 0.904979 0.237214
N7    N     N_1   0.362201 0.198277 0.873836 -0.083376

loop_
_geom_bond_atom_site_label_1
_geom_bond_atom_site_label_2
_ccdc_geom_bond_type
S3    O16   D    
C2    C18   S    
S5    O22   D    
S5    O21   D    
C19   C20   S    
C3    C6    S    
C18   C24   S    
C14   N1    D    
C7    C8    T    
C20   H8    S    
C23   N3    T    
C18   S3    S    
C11   H3    S    
S2    O12   D    
C12   O3    A    
C17   O8    A    
C13   S1    S    
C5    C22   S    
S4    O18   D    
O1    Zn1   S    
C9    C10   D    
C15   N2    D    
O17   H13   S    
S3    O17   S    
O14   H12   S    
C2    C23   S    
O7    Zn1   S    
O8    Zn2   S    
C9    H4    S    
H5    N2    S    
S1    O9    D    
C3    C20   S    
C19   C22   S    
C1    C9    S    
O23   H15   S    
C27   N7    T    
O5    Zn1   S    
C10   H2    S    
C14   C26   S    
C17   C21   S    
S1    O10   D    
O3    Zn1   S    
O4    Zn2   S    
C11   C16   S    
C24   N4    T    
C8    C12   S    
C19   S4    S    
C6    C21   T    
C4    H10   S    
C16   O6    A    
H6    N1    S    
S5    O23   S    
O2    Zn2   S    
C3    C4    S    
C19   H7    S    
C1    O1    A    
O11   H11   S    
C18   C22   S    
N1    Zn2   S    
N2    Zn1   S    
C4    C5    S    
C10   C13   S    
C7    C22   S    
S2    O14   S    
C4    C25   S    
S1    O11   S    
C15   S2    S    
C2    C3    S    
O20   H14   S    
C11   C13   D    
S4    O20   S    
S2    O13   D    
C20   S5    S    
C12   O4    A    
C26   N6    T    
C17   O7    A    
C16   O5    A    
S3    O15   D    
O6    Zn2   S    
S4    O19   D    
C25   N5    T    
C2    H1    S    
C14   C15   S    
C5    C27   S    
C1    O2    A    
C5    H9    S    
