data_mof_unit_43826.cif
_audit_creation_date              2012-12-11T15:57:41-0500
_audit_creation_method            fapswitch 2.2
_symmetry_space_group_name_H-M    P1
_symmetry_Int_Tables_number       1
_space_group_crystal_system       triclinic
_cell_length_a                    10.786711
_cell_length_b                    10.744328
_cell_length_c                    17.101808
_cell_angle_alpha                 99.638122
_cell_angle_beta                  99.899165
_cell_angle_gamma                 61.198134
_cell_volume                      1702.74095737

loop_
_atom_site_label
_atom_site_type_symbol
_atom_type_description
_atom_site_fract_x
_atom_site_fract_y
_atom_site_fract_z
_atom_type_partial_charge
C1    C     C_R   0.354921 0.775508 0.402012 0.614005
C2    C     C_2   0.819620 0.333451 0.155025 0.080245
C3    C     C_2   0.838268 0.222981 0.192805 0.094994
C4    C     C_2   0.795175 0.248599 0.271611 0.150298
C5    C     C_2   0.325681 0.862954 0.338244 0.120242
C6    C     C_2   0.347426 0.824078 0.155921 0.055485
C7    C     C_2   0.393631 0.891603 0.217561 -0.085694
C8    C     C_2   0.431013 0.841631 0.295505 0.084586
C9    C     C_2   0.403055 0.390738 0.681899 -0.082480
C10   C     C_2   0.337016 0.346044 0.830346 -0.093131
C11   C     C_2   0.471036 0.301710 0.813375 0.073311
C12   C     C_R   0.368661 0.345703 0.357548 0.559392
C13   C     C_2   0.497015 0.291464 0.730082 0.097514
C14   C     C_1   0.818740 0.341756 0.708568 -0.029157
C15   C     C_1   0.846296 0.313548 0.776146 -0.033251
C16   C     C_1   0.339367 0.810194 0.709201 -0.036792
C17   C     C_1   0.312598 0.838573 0.776952 -0.035547
C18   C     C_R   0.894068 0.307655 0.086280 0.551913
C19   C     C_R   0.317248 0.297362 0.120615 0.572647
C20   C     C_R   0.294694 0.890511 0.082797 0.554469
C21   C     C_R   0.886994 0.296691 0.858244 0.569387
C22   C     C_R   0.308818 0.295359 0.895597 0.554798
C23   C     C_R   0.772703 0.377741 0.403618 0.565608
C24   C     C_R   0.277869 0.885589 0.856431 0.553887
C25   C     C_R   0.358820 0.768709 0.627374 0.540397
C26   C     C_R   0.413694 0.381374 0.596987 0.589673
C27   C     C_R   0.773301 0.380856 0.629686 0.546514
C28   C     C_1   0.339812 0.333674 0.274526 -0.030338
C29   C     C_1   0.328329 0.322652 0.203844 -0.018989
C30   C     C_2   0.834803 0.329759 0.328993 -0.048427
Cr1   Cr    Cr6+3 0.608020 0.610770 0.522990 1.023815
Cr2   Cr    Cr6+3 0.289390 0.599570 0.488050 1.051291
Cr3   Cr    Cr6+3 0.602610 0.289690 0.489020 1.060684
Cr4   Cr    Cr6+3 0.053780 0.052210 0.965970 1.026662
Cr5   Cr    Cr6+3 0.060060 0.372530 0.992430 1.056162
Cr6   Cr    Cr6+3 0.372600 0.061970 0.991430 1.026456
H1    H     H_    0.245777 0.397683 0.787404 0.081498
H2    H     H_    0.315939 0.486877 0.706403 0.069681
H3    H     H_    0.900373 0.374152 0.316720 0.081588
H4    H     H_    0.399321 0.987869 0.211569 0.125756
O1    O     O_R   0.749250 0.499990 0.439200 -0.527423
O2    O     O_R   0.299400 0.468710 0.556310 -0.508198
O3    O     O_R   0.489240 0.256450 0.560730 -0.467803
O4    O     O_R   0.723350 0.306730 0.584410 -0.503792
O5    O     O_3   0.500010 0.500010 0.500020 -0.298275
O6    O     O_R   0.170650 0.915100 0.051290 -0.507041
O7    O     O_R   0.941960 0.184500 0.049060 -0.519992
O8    O     O_R   0.922640 0.402670 0.071640 -0.509840
O9    O     O_R   0.196880 0.368740 0.083740 -0.477244
O10   O     O_R   0.411120 0.181190 0.091480 -0.524574
O11   O     O_R   0.364220 0.944920 0.062310 -0.507610
O12   O     O_R   0.477870 0.725740 0.440280 -0.528195
O13   O     O_R   0.158740 0.906940 0.874970 -0.501682
O14   O     O_R   0.930920 0.176940 0.885610 -0.487427
O15   O     O_R   0.910730 0.394510 0.895320 -0.508256
O16   O     O_R   0.185840 0.361180 0.920280 -0.490307
O17   O     O_R   0.399210 0.173040 0.915160 -0.516491
O18   O     O_R   0.353170 0.937370 0.898860 -0.494067
O19   O     O_3   0.162150 0.162240 0.983280 -0.268459
O20   O     O_R   0.260770 0.742210 0.412610 -0.468980
O21   O     O_R   0.297990 0.466320 0.394220 -0.485766
O22   O     O_R   0.487720 0.253870 0.385870 -0.494891
O23   O     O_R   0.721940 0.304340 0.422320 -0.454314
O24   O     O_R   0.750770 0.502570 0.614050 -0.502354
O25   O     O_R   0.479280 0.728140 0.602370 -0.495712
O26   O     O_R   0.262290 0.744790 0.587460 -0.517759
N1    N     N_3   0.899740 0.076400 0.159740 -0.633633
H5    H     H_    0.006685 0.039950 0.154056 0.265221
H6    H     H_    0.842671 0.065934 0.105292 0.260186
N2    N     N_3   0.616861 0.166619 0.699755 -0.567418
H7    H     H_    0.709079 0.156045 0.735876 0.249168
H8    H     H_    0.604308 0.077824 0.704913 0.237825
N3    N     N_3   0.713635 0.182484 0.285591 -0.543952
H9    H     H_    0.776992 0.071786 0.279086 0.258869
H10   H     H_    0.627529 0.208348 0.241427 0.240987
N4    N     N_3   0.735565 0.478630 0.186545 -0.638297
H11   H     H_    0.658745 0.532250 0.141050 0.263022
H12   H     H_    0.801426 0.527179 0.202131 0.251759
N5    N     N_3   0.579912 0.752977 0.316928 -0.597428
H13   H     H_    0.611915 0.794313 0.371744 0.254891
H14   H     H_    0.598460 0.648869 0.319412 0.282794
I1    I     I_    0.330405 0.637277 0.162411 -0.396242
N6    N     N_3   0.178855 0.959365 0.315966 -0.622088
H15   H     H_    0.169547 0.058884 0.309932 0.213041
H16   H     H_    0.145312 0.919184 0.261449 0.261612
N7    N     N_3   0.593156 0.241031 0.871050 -0.614422
H17   H     H_    0.569459 0.297242 0.927218 0.246105
H18   H     H_    0.620947 0.134131 0.873605 0.255294

loop_
_geom_bond_atom_site_label_1
_geom_bond_atom_site_label_2
_ccdc_geom_bond_type
C6    I1    S    
C9    C26   S    
C2    C18   S    
Cr3   O5    S    
Cr2   O5    S    
Cr1   O12   S    
Cr6   O19   S    
C18   O7    A    
C22   O17   A    
C21   O15   A    
C7    C8    S    
C10   C22   S    
C12   C28   S    
C10   H1    S    
C1    C5    S    
C28   C29   T    
N4    H12   S    
Cr2   O21   S    
C20   O11   A    
Cr6   O18   S    
C21   O14   A    
C5    N6    S    
N7    H18   S    
C13   N2    S    
C11   N7    S    
Cr5   O19   S    
N3    H9    S    
C9    C13   D    
C27   O4    A    
Cr6   O10   S    
Cr3   O22   S    
Cr5   O9    S    
C8    N5    S    
C7    H4    S    
N2    H7    S    
Cr4   O6    S    
C14   C27   S    
C23   O23   A    
N3    H10   S    
Cr5   O8    S    
C26   O3    A    
C17   C24   S    
Cr5   O15   S    
N1    H5    S    
Cr3   O3    S    
C23   C30   S    
C25   O25   A    
N4    H11   S    
Cr6   O17   S    
C10   C11   D    
C1    O20   A    
N5    H14   S    
N7    H17   S    
C16   C17   T    
C22   O16   A    
C24   O13   A    
N1    H6    S    
C12   O22   A    
C19   O9    A    
N6    H15   S    
Cr3   O23   S    
C4    N3    S    
Cr6   O11   S    
N6    H16   S    
Cr4   O14   S    
Cr4   O19   S    
Cr2   O20   S    
C3    C4    S    
C19   C29   S    
C2    N4    S    
C26   O2    A    
Cr2   O26   S    
C16   C25   S    
Cr1   O25   S    
Cr1   O1    S    
Cr5   O16   S    
Cr3   O4    S    
Cr1   O24   S    
C3    N1    S    
C25   O26   A    
C18   O8    A    
C5    C8    D    
C6    C7    D    
C6    C20   S    
C23   O1    A    
C2    C3    D    
C12   O21   A    
C11   C13   S    
C19   O10   A    
C9    H2    S    
C30   H3    S    
C1    O12   A    
C4    C30   D    
C27   O24   A    
N5    H13   S    
C15   C21   S    
Cr4   O13   S    
C24   O18   A    
Cr1   O5    S    
Cr2   O2    S    
C14   C15   T    
N2    H8    S    
Cr4   O7    S    
C20   O6    A    
