data_mof_unit_48337.cif
_audit_creation_date              2012-12-11T14:41:04-0500
_audit_creation_method            fapswitch 2.2
_symmetry_space_group_name_H-M    P1
_symmetry_Int_Tables_number       1
_space_group_crystal_system       triclinic
_cell_length_a                    25.012075
_cell_length_b                    17.93004
_cell_length_c                    15.761506
_cell_angle_alpha                 89.98162
_cell_angle_beta                  130.824557
_cell_angle_gamma                 89.91106
_cell_volume                      5348.84231723

loop_
_atom_site_label
_atom_site_type_symbol
_atom_type_description
_atom_site_fract_x
_atom_site_fract_y
_atom_site_fract_z
_atom_type_partial_charge
C1    C     C_R   0.340879 0.374382 0.214269 -0.173947
C2    C     C_R   0.675416 0.640641 0.507057 0.037447
C3    C     C_3   0.270852 0.886617 0.467186 -0.681431
C4    C     C_3   0.764265 0.410365 0.047188 -0.863635
C5    C     C_3   0.794874 0.603356 0.039307 -0.786772
C6    C     C_3   0.262558 0.914111 0.056162 -0.868797
C7    C     C_3   0.293992 0.097896 0.033355 -0.805923
C8    C     C_3   0.325921 0.734006 0.997845 -0.697703
C9    C     C_3   0.312618 0.289942 0.971113 -0.735894
C10   C     C_3   0.813885 0.217019 0.977810 -0.732639
C11   C     C_3   0.804769 0.793717 0.961054 -0.688248
C12   C     C_3   0.408161 0.393393 0.698344 -0.998625
C13   C     C_R   0.170658 0.850491 0.506073 0.047628
C14   C     C_3   0.415452 0.577937 0.707080 -1.021167
C15   C     C_3   0.915798 0.915677 0.707380 -1.021820
C16   C     C_3   0.907137 0.102298 0.698511 -0.996083
C17   C     C_3   0.247564 0.392766 0.291235 -0.932819
C18   C     C_3   0.244865 0.585209 0.288461 -0.865280
C19   C     C_3   0.749647 0.882869 0.286857 -0.902509
C20   C     C_3   0.745626 0.091278 0.293970 -0.884466
C21   C     C_3   0.459576 0.384856 0.155130 -0.986706
C22   C     C_3   0.455287 0.619797 0.152185 -0.982057
C23   C     C_3   0.955295 0.894071 0.147471 -0.979903
C24   C     C_R   0.185564 0.118577 0.507688 -0.001051
C25   C     C_3   0.958228 0.118926 0.154896 -0.983386
C26   C     C_R   0.335831 0.342861 0.495855 0.188126
C27   C     C_R   0.318913 0.620341 0.499150 0.157823
C28   C     C_R   0.825518 0.866487 0.502475 0.165240
C29   C     C_R   0.829451 0.148285 0.492999 0.183272
C30   C     C_3   0.350265 0.220398 0.585350 0.202235
C31   C     C_3   0.325465 0.719613 0.618586 0.171947
C32   C     C_3   0.832545 0.769096 0.624398 0.184270
C33   C     C_R   0.346074 0.634438 0.229131 -0.173063
C34   C     C_3   0.845572 0.273242 0.575514 0.198153
C35   C     C_3   0.787875 0.715223 0.629676 0.192805
C36   C     C_3   0.809767 0.327038 0.601499 0.210631
C37   C     C_3   0.311514 0.169265 0.608752 0.205088
C38   C     C_3   0.281958 0.774046 0.625540 0.198650
C39   C     C_3   0.253734 0.313336 0.527434 0.092304
C40   C     C_3   0.212248 0.650878 0.479641 0.135972
C41   C     C_3   0.720194 0.838395 0.484227 0.120521
C42   C     C_3   0.750773 0.181869 0.529258 0.094206
C43   C     C_3   0.245954 0.237566 0.380616 0.394231
C44   C     C_R   0.836828 0.883348 0.204346 -0.190038
C45   C     C_3   0.256552 0.745222 0.411977 0.402779
C46   C     C_3   0.765963 0.741253 0.419492 0.403680
C47   C     C_3   0.737081 0.251930 0.374141 0.393563
C48   C     C_3   0.296827 0.280269 0.495045 -0.256178
C49   C     C_3   0.278895 0.682064 0.500153 -0.267841
C50   C     C_3   0.786685 0.805666 0.505484 -0.276312
C51   C     C_3   0.790968 0.212168 0.490612 -0.256732
C52   C     C_3   0.716284 0.699361 0.507709 -0.206265
C53   C     C_3   0.726040 0.319687 0.505649 -0.203218
C54   C     C_3   0.228257 0.176120 0.507286 -0.207343
C55   C     C_R   0.842552 0.129535 0.220678 -0.177340
C56   C     C_3   0.209958 0.790156 0.504854 -0.215737
C57   C     C_3   0.669833 0.773862 0.454809 0.718703
C58   C     C_3   0.700161 0.241195 0.513273 0.717099
C59   C     C_3   0.200712 0.255973 0.507166 0.723326
C60   C     C_3   0.163074 0.716495 0.454123 0.712579
C61   C     C_R   0.661090 0.376148 0.783400 -0.031871
C62   C     C_R   0.663071 0.619585 0.788462 -0.046633
C63   C     C_R   0.162585 0.879235 0.788079 -0.039667
C64   C     C_R   0.162638 0.120819 0.786073 -0.043873
C65   C     C_3   0.734659 0.673284 0.434553 -0.154122
C66   C     C_R   0.637721 0.344985 0.833819 0.102408
C67   C     C_3   0.707798 0.322803 0.388202 -0.101339
C68   C     C_3   0.214633 0.168652 0.394142 -0.108542
C69   C     C_3   0.226518 0.814218 0.428280 -0.148531
C70   C     C_2   0.683364 0.301948 0.937403 -0.204551
C71   C     C_2   0.688361 0.687114 0.950512 -0.215723
C72   C     C_2   0.184064 0.805196 0.942265 -0.203836
C73   C     C_2   0.190136 0.184819 0.951584 -0.199594
C74   C     C_2   0.747024 0.328508 0.026783 0.276549
C75   C     C_2   0.758617 0.674613 0.027977 0.236734
C76   C     C_2   0.246089 0.832279 0.034758 0.248744
C77   C     C_R   0.642571 0.645165 0.845738 0.088798
C78   C     C_2   0.259815 0.169059 0.028144 0.245453
C79   C     C_2   0.332035 0.729831 0.099681 0.144896
C80   C     C_2   0.327967 0.284251 0.081009 0.151014
C81   C     C_2   0.827328 0.220938 0.086213 0.133987
C82   C     C_2   0.822593 0.792133 0.072706 0.143655
C83   C     C_2   0.300461 0.779724 0.119221 -0.124916
C84   C     C_2   0.306604 0.226910 0.107690 -0.115406
C85   C     C_2   0.801951 0.275929 0.109926 -0.101708
C86   C     C_2   0.803481 0.735122 0.103931 -0.134983
C87   C     C_R   0.616659 0.398194 0.412541 -0.151677
C88   C     C_R   0.139152 0.848517 0.838730 0.104037
C89   C     C_R   0.611195 0.615169 0.411206 -0.147246
C90   C     C_R   0.107688 0.878741 0.410588 -0.152287
C91   C     C_R   0.116905 0.101403 0.412724 -0.143958
C92   C     C_R   0.394928 0.378788 0.591555 0.241926
C93   C     C_R   0.387557 0.599556 0.592396 0.358329
C94   C     C_R   0.890877 0.893945 0.594568 0.343772
C95   C     C_R   0.891371 0.116487 0.589755 0.241810
C96   C     C_R   0.689932 0.398343 0.596664 0.577060
C97   C     C_R   0.686384 0.610816 0.597716 0.533920
C98   C     C_R   0.184324 0.884224 0.597336 0.530409
C99   C     C_R   0.142855 0.145945 0.844448 0.093730
C100  C     C_R   0.190323 0.100102 0.597065 0.572093
C101  C     C_R   0.319740 0.378663 0.403501 0.335714
C102  C     C_R   0.311672 0.600801 0.406277 0.285748
C103  C     C_R   0.815060 0.889310 0.407927 0.308866
C104  C     C_R   0.816262 0.114879 0.402159 0.318829
C105  C     C_R   0.572503 0.375506 0.785595 -0.089378
C106  C     C_R   0.575357 0.618397 0.792725 -0.042950
C107  C     C_R   0.073152 0.877753 0.788000 -0.045494
C108  C     C_R   0.075944 0.118778 0.792872 -0.085243
C109  C     C_R   0.428554 0.378123 0.209794 0.373585
C110  C     C_R   0.685002 0.379297 0.507181 -0.004812
C111  C     C_R   0.429478 0.626922 0.214676 0.363619
C112  C     C_R   0.925668 0.883028 0.203806 0.366410
C113  C     C_R   0.928533 0.124401 0.211695 0.370148
C114  C     C_R   0.364625 0.344612 0.163131 0.046065
C115  C     C_R   0.369743 0.667024 0.179220 0.068154
C116  C     C_R   0.859038 0.854453 0.151286 0.053586
C117  C     C_R   0.866042 0.160804 0.169706 0.057187
C118  C     C_3   0.779216 0.600637 0.476806 -0.678711
C119  C     C_3   0.726590 0.398639 0.365560 -0.733104
C120  C     C_3   0.235174 0.091138 0.379056 -0.722203
Cl1   Cl    Cl    0.401565 0.169913 0.561851 -0.515736
Cl2   Cl    Cl    0.699732 0.231435 0.626826 -0.515238
Cl3   Cl    Cl    0.193480 0.269226 0.612870 -0.506984
Cl4   Cl    Cl    0.121196 0.695688 0.510505 -0.439202
Cl5   Cl    Cl    0.282643 0.214048 0.316184 -0.647799
Cl6   Cl    Cl    0.322464 0.769558 0.402069 -0.608684
Cl7   Cl    Cl    0.834282 0.716002 0.415284 -0.579887
Cl8   Cl    Cl    0.768097 0.271562 0.300260 -0.666188
Cl9   Cl    Cl    0.214930 0.403851 0.472275 -0.482117
Cl10  Cl    Cl    0.164404 0.575726 0.382864 -0.433619
Cl11  Cl    Cl    0.675820 0.918425 0.395134 -0.444543
Cl12  Cl    Cl    0.406512 0.762122 0.665710 -0.560091
Cl13  Cl    Cl    0.709016 0.092784 0.472807 -0.461588
Cl14  Cl    Cl    0.599590 0.768620 0.304432 -0.612104
Cl15  Cl    Cl    0.608950 0.223257 0.390187 -0.532953
Cl16  Cl    Cl    0.111829 0.274457 0.377549 -0.538600
Cl17  Cl    Cl    0.089377 0.723901 0.304644 -0.587515
Cl18  Cl    Cl    0.766077 0.420544 0.732104 -0.531617
Cl19  Cl    Cl    0.766940 0.586405 0.729733 -0.594105
Cl20  Cl    Cl    0.266273 0.905173 0.729308 -0.585666
Cl21  Cl    Cl    0.266116 0.072005 0.729917 -0.548423
Cl22  Cl    Cl    0.914705 0.727438 0.675392 -0.553812
Cl23  Cl    Cl    0.893195 0.320007 0.542115 -0.524315
Cl24  Cl    Cl    0.344137 0.199144 0.745235 -0.561845
Cl25  Cl    Cl    0.273143 0.736961 0.723501 -0.596057
Cl26  Cl    Cl    0.776611 0.754006 0.723880 -0.617437
Cl27  Cl    Cl    0.848126 0.301171 0.742381 -0.546716
Cl28  Cl    Cl    0.624615 0.795468 0.505504 -0.446218
H1    H     H_    0.289413 0.364700 0.186162 0.154979
H2    H     H_    0.231814 0.623861 0.559029 0.170919
H3    H     H_    0.753248 0.832054 0.251004 0.244161
H4    H     H_    0.700736 0.877299 0.272656 0.304513
H5    H     H_    0.753995 0.052723 0.248994 0.212372
H6    H     H_    0.714925 0.060857 0.310726 0.315249
H7    H     H_    0.713687 0.137541 0.235287 0.268076
H8    H     H_    0.491532 0.436287 0.183885 0.226856
H9    H     H_    0.491708 0.334727 0.173447 0.285668
H10   H     H_    0.417359 0.391750 0.063348 0.257529
H11   H     H_    0.490559 0.570742 0.182560 0.228427
H12   H     H_    0.410154 0.609297 0.062204 0.258451
H13   H     H_    0.739378 0.863183 0.564543 0.175004
H14   H     H_    0.483006 0.671236 0.161196 0.304814
H15   H     H_    0.997228 0.936951 0.191826 0.224087
H16   H     H_    0.975591 0.840457 0.143138 0.301370
H17   H     H_    0.914063 0.916350 0.061723 0.249387
H18   H     H_    0.991548 0.068516 0.183836 0.227722
H19   H     H_    0.915257 0.110637 0.063622 0.255372
H20   H     H_    0.988672 0.169913 0.170804 0.291858
H21   H     H_    0.790923 0.170725 0.620217 0.173199
H22   H     H_    0.722217 0.761633 0.334148 0.103994
H23   H     H_    0.691843 0.213283 0.318848 0.123550
H24   H     H_    0.200738 0.275208 0.320389 0.117978
H25   H     H_    0.211919 0.723287 0.328278 0.106296
H26   H     H_    0.685398 0.657875 0.349393 0.176897
H27   H     H_    0.650183 0.318157 0.317780 0.175638
H28   H     H_    0.157600 0.172615 0.320227 0.174653
H29   H     H_    0.299103 0.650566 0.213861 0.151654
H30   H     H_    0.176721 0.829264 0.343470 0.176675
H31   H     H_    0.713130 0.369388 0.811982 0.184176
H32   H     H_    0.714239 0.627359 0.814229 0.198679
H33   H     H_    0.215616 0.875447 0.820229 0.187446
H34   H     H_    0.213259 0.129052 0.809616 0.185825
H35   H     H_    0.311665 0.779371 0.198420 0.179943
H36   H     H_    0.322559 0.223433 0.190156 0.202621
H37   H     H_    0.820823 0.281023 0.194154 0.206110
H38   H     H_    0.818990 0.734078 0.186455 0.173711
H39   H     H_    0.671183 0.243150 0.932680 0.162361
H40   H     H_    0.782551 0.884059 0.166145 0.138943
H41   H     H_    0.665842 0.736709 0.956307 0.158785
H42   H     H_    0.172725 0.745998 0.936045 0.166026
H43   H     H_    0.169425 0.234434 0.961084 0.156846
H44   H     H_    0.596394 0.401733 0.328344 0.141252
H45   H     H_    0.591072 0.619349 0.326988 0.165997
H46   H     H_    0.085984 0.871388 0.326060 0.172647
H47   H     H_    0.096516 0.098980 0.328396 0.140606
H48   H     H_    0.545816 0.367280 0.817103 0.132349
H49   H     H_    0.548718 0.623344 0.824982 0.130496
H50   H     H_    0.046387 0.871554 0.819683 0.135840
H51   H     H_    0.792790 0.141519 0.198900 0.170161
H52   H     H_    0.050502 0.123927 0.827006 0.123538
H53   H     H_    0.394476 0.247085 0.663406 0.160752
H54   H     H_    0.341131 0.676887 0.680459 0.161376
H55   H     H_    0.847486 0.811837 0.685503 0.161299
H56   H     H_    0.891397 0.247585 0.653673 0.163083
H57   H     H_    0.756484 0.556912 0.494785 0.206540
H58   H     H_    0.778938 0.578085 0.410882 0.259304
H59   H     H_    0.834739 0.609149 0.553422 0.311376
H60   H     H_    0.703251 0.446008 0.376662 0.192324
H61   H     H_    0.783890 0.408709 0.421303 0.303025
H62   H     H_    0.819124 0.663458 0.667875 0.226404
H63   H     H_    0.704140 0.401674 0.277269 0.267877
H64   H     H_    0.207997 0.046033 0.385900 0.191439
H65   H     H_    0.217517 0.086006 0.293828 0.267804
H66   H     H_    0.292366 0.079743 0.441457 0.301216
H67   H     H_    0.268974 0.908187 0.399194 0.257862
H68   H     H_    0.249086 0.931008 0.486044 0.204910
H69   H     H_    0.326767 0.878386 0.542572 0.313509
H70   H     H_    0.789367 0.424314 0.134877 0.269611
H71   H     H_    0.801551 0.423924 0.033762 0.270522
H72   H     H_    0.716083 0.445339 0.991353 0.225128
H73   H     H_    0.825945 0.385484 0.605418 0.187332
H74   H     H_    0.828896 0.583273 0.127293 0.264129
H75   H     H_    0.756903 0.558548 0.985220 0.222070
H76   H     H_    0.828489 0.613696 0.017690 0.275570
H77   H     H_    0.285213 0.927714 0.142762 0.266630
H78   H     H_    0.301769 0.928126 0.046994 0.270210
H79   H     H_    0.214357 0.948704 0.998043 0.226658
H80   H     H_    0.327459 0.074607 0.119562 0.266736
H81   H     H_    0.254887 0.054963 0.975487 0.225008
H82   H     H_    0.327919 0.109645 0.012673 0.280096
H83   H     H_    0.301453 0.682087 0.948021 0.247735
H84   H     H_    0.328521 0.110393 0.617966 0.194051
H85   H     H_    0.293726 0.781722 0.942483 0.256828
H86   H     H_    0.378902 0.741547 0.024304 0.267872
H87   H     H_    0.294016 0.347128 0.936398 0.240720
H88   H     H_    0.361289 0.277348 0.985088 0.266642
H89   H     H_    0.271229 0.250717 0.906666 0.258004
H90   H     H_    0.791027 0.161933 0.937632 0.240760
H91   H     H_    0.777370 0.260707 0.916870 0.254452
H92   H     H_    0.864137 0.225319 0.995165 0.268333
H93   H     H_    0.817492 0.848251 0.945325 0.239623
H94   H     H_    0.834785 0.749234 0.958950 0.280927
H95   H     H_    0.313270 0.825710 0.661823 0.226234
H96   H     H_    0.747315 0.784771 0.891949 0.254788
H97   H     H_    0.363094 0.424924 0.678426 0.290450
H98   H     H_    0.417376 0.343766 0.747397 0.264829
H99   H     H_    0.455366 0.427159 0.756566 0.238776
H100  H     H_    0.439124 0.625499 0.765855 0.282004
H101  H     H_    0.373594 0.551663 0.702681 0.268419
H102  H     H_    0.460327 0.539883 0.745468 0.236124
H103  H     H_    0.871765 0.939525 0.699497 0.270700
H104  H     H_    0.941083 0.869017 0.767973 0.278336
H105  H     H_    0.958605 0.956375 0.745795 0.237721
H106  H     H_    0.291996 0.324054 0.618567 0.176055
H107  H     H_    0.915202 0.152779 0.745442 0.267217
H108  H     H_    0.863643 0.069422 0.681709 0.288094
H109  H     H_    0.955638 0.070026 0.756271 0.237945
H110  H     H_    0.250413 0.438251 0.247479 0.226107
H111  H     H_    0.225706 0.344452 0.234427 0.266942
H112  H     H_    0.209324 0.410058 0.300547 0.310139
H113  H     H_    0.257566 0.558302 0.240572 0.206398
H114  H     H_    0.211860 0.544140 0.287239 0.305583
H115  H     H_    0.214257 0.635928 0.241834 0.255728
H116  H     H_    0.742719 0.933068 0.240365 0.232658
N1    N     N_R   0.389430 0.421450 0.294590 -0.057724
N2    N     N_R   0.581780 0.577610 0.443390 -0.073835
N3    N     N_R   0.081780 0.922390 0.443390 -0.077806
N4    N     N_R   0.081780 0.077610 0.443390 -0.064169
N5    N     N_R   0.419850 0.423100 0.556610 -0.077530
N6    N     N_R   0.419850 0.576900 0.556610 -0.067249
N7    N     N_R   0.919850 0.923100 0.556610 -0.074820
N8    N     N_R   0.919850 0.076900 0.556610 -0.072850
N9    N     N_R   0.627410 0.423100 0.556610 -0.096447
N10   N     N_R   0.627410 0.576900 0.556610 -0.095001
N11   N     N_R   0.127410 0.923100 0.556610 -0.095214
N12   N     N_R   0.389430 0.578550 0.294590 -0.057791
N13   N     N_R   0.127410 0.076900 0.556610 -0.094668
N14   N     N_R   0.374220 0.422390 0.443390 -0.086737
N15   N     N_R   0.374220 0.577610 0.443390 -0.069879
N16   N     N_R   0.874220 0.922390 0.443390 -0.074849
N17   N     N_R   0.874220 0.077610 0.443390 -0.084572
N18   N     N_R   0.555000 0.424040 0.705410 -0.060108
N19   N     N_R   0.555000 0.575960 0.705410 -0.056226
N20   N     N_R   0.055000 0.924040 0.705410 -0.060867
N21   N     N_R   0.055000 0.075960 0.705410 -0.055081
N22   N     N_R   0.446630 0.421450 0.294590 -0.062474
N23   N     N_R   0.889430 0.921450 0.294590 -0.047047
N24   N     N_R   0.446630 0.578550 0.294590 -0.063135
N25   N     N_R   0.946630 0.921450 0.294590 -0.059563
N26   N     N_R   0.946630 0.078550 0.294590 -0.063725
N27   N     N_R   0.889430 0.078550 0.294590 -0.060718
N28   N     N_R   0.612200 0.424040 0.705410 -0.054174
N29   N     N_R   0.612200 0.575960 0.705410 -0.053292
N30   N     N_R   0.112200 0.924040 0.705410 -0.054886
N31   N     N_R   0.112200 0.075960 0.705410 -0.052377
N32   N     N_R   0.581780 0.422390 0.443390 -0.063770
Ni1   Ni    Ni4+2 0.382890 0.500000 0.370170 0.228112
Ni2   Ni    Ni4+2 0.882890 0.000000 0.370170 0.231437
Ni3   Ni    Ni4+2 0.618740 0.500000 0.629830 0.309841
Ni4   Ni    Ni4+2 0.118740 0.000000 0.629830 0.309933
Ni5   Ni    Ni4+2 0.514090 0.500000 0.370170 0.217455
Ni6   Ni    Ni4+2 0.014090 0.000000 0.370170 0.217382
Ni7   Ni    Ni4+2 0.487550 0.500000 0.629830 0.224414
Ni8   Ni    Ni4+2 0.987550 0.000000 0.629830 0.224145

loop_
_geom_bond_atom_site_label_1
_geom_bond_atom_site_label_2
_ccdc_geom_bond_type
C37   H84   S    
C11   H96   S    
N16   Ni2   S    
C62   C77   A    
C42   C58   S    
N12   Ni1   S    
C68   H28   S    
C55   N27   A    
C47   Cl8   S    
C23   C112  S    
N3    N11   A    
C118  H58   S    
C18   H114  S    
N12   N24   A    
C63   C88   A    
C22   H11   S    
C26   C92   A    
C12   H97   S    
C81   C117  S    
C28   C94   A    
C89   N2    A    
C36   C53   S    
C55   H51   S    
C43   C68   S    
C70   C74   D    
C65   C118  S    
N23   N25   A    
C32   Cl22  S    
C8    H85   S    
C11   C82   S    
N25   Ni6   S    
C76   C83   S    
C34   Cl23  S    
C58   Cl2   S    
N21   Ni8   S    
C45   C69   S    
C101  N14   A    
C46   C65   S    
C41   Cl11  S    
N4    N13   A    
N9    N32   A    
N6    N15   A    
C45   H25   S    
C104  N17   A    
C91   H47   S    
C75   C86   S    
C4    H71   S    
C89   H45   S    
C6    H79   S    
N21   N31   A    
C83   H35   S    
C17   H112  S    
C2    C52   S    
C106  H49   S    
N18   N28   A    
C61   H31   S    
C27   C93   A    
C55   C117  A    
C24   C100  A    
N17   Ni2   S    
C107  H50   S    
C47   H23   S    
C53   C58   S    
N6    Ni7   S    
C33   N12   A    
C25   H18   S    
C12   H99   S    
C32   H55   S    
C90   N3    A    
N10   Ni3   S    
C66   C70   S    
C82   C116  S    
C44   C116  A    
N28   Ni3   S    
C24   C54   S    
C52   C65   S    
C87   H44   S    
C7    H82   S    
C120  H64   S    
C108  H52   S    
C63   H33   S    
C37   Cl24  S    
C79   C115  S    
C100  N13   A    
C9    H87   S    
N24   Ni5   S    
N22   Ni5   S    
C107  N20   A    
C102  N15   A    
C43   Cl5   S    
C15   C94   S    
C95   N8    A    
C87   C110  A    
C38   H95   S    
C34   C51   S    
C30   C48   S    
C77   C106  A    
C96   Cl18  S    
C16   H107  S    
C54   C68   S    
C40   C49   S    
C6    H77   S    
C59   Cl16  S    
C18   C102  S    
C19   H116  S    
C23   H17   S    
C64   C99   A    
C34   H56   S    
C19   H3    S    
C111  N24   A    
C14   C93   S    
C13   C56   S    
C64   H34   S    
C5    H74   S    
C10   H91   S    
C112  N25   A    
C103  N16   A    
C72   H42   S    
C54   C59   S    
C25   H20   S    
C85   H37   S    
C20   H5    S    
C33   H29   S    
C46   Cl7   S    
C84   H36   S    
C98   N11   A    
C39   Cl9   S    
C120  H65   S    
C46   H22   S    
C29   C104  A    
N20   N30   A    
C45   Cl6   S    
C109  C114  A    
C113  C117  A    
C109  N22   A    
C70   H39   S    
C4    H70   S    
C9    H89   S    
C11   H93   S    
C66   C105  A    
C112  C116  A    
C23   H16   S    
C29   C51   S    
C44   N23   A    
C12   C92   S    
C21   C109  S    
C6    C76   S    
C58   Cl15  S    
C27   C102  A    
C119  H63   S    
C87   N32   A    
N15   Ni1   S    
C118  H59   S    
C18   H115  S    
C68   C120  S    
C22   H12   S    
N19   N29   A    
C12   H98   S    
C34   C36   S    
C74   C85   S    
C53   C67   S    
C5    H76   S    
C38   C56   S    
C56   C69   S    
C119  H60   S    
C67   C119  S    
C36   H73   S    
C97   Cl19  S    
C81   C85   D    
C27   C49   S    
C8    H86   S    
C105  H48   S    
C20   H7    S    
C41   H13   S    
C65   H26   S    
C21   H10   S    
C71   C77   S    
C80   C84   D    
C40   C60   S    
N23   Ni2   S    
C35   H62   S    
C100  Cl21  S    
C15   H105  S    
C22   H14   S    
C8    H83   S    
C15   H104  S    
N26   N27   A    
N27   Ni2   S    
C31   H54   S    
C2    C97   A    
C67   H27   S    
C4    H72   S    
C8    C79   S    
C1    H1    S    
C17   H111  S    
C97   N10   A    
C26   C48   S    
N8    Ni8   S    
N7    Ni8   S    
C31   C49   S    
C3    H67   S    
C59   Cl3   S    
C119  H61   S    
C33   C115  A    
C14   H100  S    
C118  H57   S    
C18   H113  S    
N4    Ni6   S    
C14   H101  S    
C88   C107  A    
C47   C51   S    
C3    H68   S    
C82   C86   D    
C96   C110  A    
C56   C60   S    
C30   C37   S    
C35   Cl26  S    
C5    C75   S    
C2    C89   A    
N9    Ni3   S    
C99   C108  A    
C42   H21   S    
C25   C113  S    
N13   Ni4   S    
C36   Cl27  S    
C90   H46   S    
C30   Cl1   S    
C45   C49   S    
C39   C59   S    
C105  N18   A    
C71   H41   S    
N18   Ni7   S    
N7    N16   A    
C86   H38   S    
C57   Cl14  S    
C13   C90   A    
C1    C114  A    
C91   N4    A    
C41   C50   S    
N11   Ni4   S    
N5    Ni7   S    
C7    H81   S    
N8    N17   A    
C30   H53   S    
C40   Cl10  S    
N31   Ni4   S    
C14   H102  S    
C61   N28   A    
C10   C81   S    
N1    Ni1   S    
C31   C38   S    
C113  N26   A    
C41   C57   S    
C79   C83   D    
C16   H109  S    
C16   H108  S    
C28   C103  A    
N2    N10   A    
C6    H78   S    
C64   N31   A    
C52   C57   S    
C57   Cl28  S    
C35   C52   S    
N3    Ni6   S    
C39   C48   S    
C53   C110  S    
C10   H92   S    
C72   C76   D    
C39   H106  S    
C25   H19   S    
C20   H6    S    
C42   Cl13  S    
C3    C69   S    
C26   C101  A    
C62   H32   S    
C69   H30   S    
N14   Ni1   S    
C7    H80   S    
C120  H66   S    
C62   N29   A    
C106  N19   A    
C13   C98   A    
C60   Cl4   S    
C17   C101  S    
C108  N21   A    
C19   C103  S    
C61   C66   A    
C93   N6    A    
C73   C78   D    
N26   Ni6   S    
C43   C48   S    
C4    C74   S    
C42   C51   S    
C9    H88   S    
C96   N9    A    
C28   C50   S    
C47   C67   S    
C72   C88   S    
C46   C50   S    
C23   H15   S    
N32   Ni5   S    
C40   H2    S    
C32   C35   S    
C29   C95   A    
C63   N30   A    
C98   Cl20  S    
C9    C80   S    
N29   Ni3   S    
C38   Cl25  S    
N30   Ni4   S    
C31   Cl12  S    
C3    H69   S    
N2    Ni5   S    
C19   H4    S    
C32   C50   S    
C73   H43   S    
N1    N22   A    
C44   H40   S    
C7    C78   S    
C37   C54   S    
C5    H75   S    
C80   C114  S    
C10   H90   S    
C24   C91   A    
N19   Ni7   S    
C73   C99   S    
N20   Ni8   S    
C16   C95   S    
C21   H9    S    
C43   H24   S    
C20   C104  S    
C60   Cl17  S    
C71   C75   D    
C92   N5    A    
C15   H103  S    
C94   N7    A    
C21   H8    S    
N5    N14   A    
C78   C84   S    
C1    N1    A    
C22   C111  S    
C11   H94   S    
C111  C115  A    
C17   H110  S    
