data_mof_unit_55871.cif
_audit_creation_date              2013-03-05T15:42:03-0500
_audit_creation_method            fapswitch 2.2
_symmetry_space_group_name_H-M    P1
_symmetry_Int_Tables_number       1
_space_group_crystal_system       triclinic
_cell_length_a                    27.779073
_cell_length_b                    8.774383
_cell_length_c                    7.433649
_cell_angle_alpha                 102.722016
_cell_angle_beta                  93.850327
_cell_angle_gamma                 91.929999
_cell_volume                      1761.2494055

loop_
_atom_site_label
_atom_site_type_symbol
_atom_site_description
_atom_site_fract_x
_atom_site_fract_y
_atom_site_fract_z
_atom_type_partial_charge
O1    O     O_R   0.503500 0.286120 0.619780 -0.581257
O2    O     O_R   0.496500 0.713880 0.380220 -0.568083
O3    O     O_R   0.494410 0.256780 0.308360 -0.565177
O4    O     O_R   0.505590 0.743220 0.691640 -0.572011
C1    C     C_R   0.497848 0.200700 0.454101 0.851878
C2    C     C_R   0.502170 0.799293 0.544904 0.845285
O5    O     O_R   0.434810 0.514700 0.655690 -0.587183
O6    O     O_R   0.565190 0.485300 0.344310 -0.596429
O7    O     O_R   0.425720 0.485350 0.344280 -0.571968
O8    O     O_R   0.574280 0.514650 0.655720 -0.567085
C3    C     C_R   0.407758 0.499170 0.503525 0.850958
C4    C     C_R   0.592518 0.497607 0.496997 0.851115
Cu1   Cu    Cu3+1 0.505380 0.517380 0.684380 1.024707
Cu2   Cu    Cu3+1 0.494620 0.482620 0.315620 1.027095
C5    C     C_R   0.175322 0.342376 0.447679 0.589590
C6    C     C_R   0.826277 0.641350 0.531827 0.579849
O9    O     O_2   0.196637 0.215169 0.356473 -0.525386
O10   O     O_2   0.804462 0.778695 0.554360 -0.505312
N1    N     N_R   0.202952 0.472698 0.537435 -0.445040
N2    N     N_R   0.799024 0.503942 0.502568 -0.449461
C7    C     C_R   0.181999 0.605458 0.624674 0.581211
C8    C     C_R   0.820077 0.362439 0.470928 0.591665
C9    C     C_R   0.276463 0.587197 0.448613 -0.128457
C10   C     C_R   0.719240 0.437783 0.339932 -0.131150
C11   C     C_R   0.326614 0.604145 0.449865 -0.072559
C12   C     C_R   0.668909 0.424546 0.336673 -0.058345
C13   C     C_R   0.333779 0.380583 0.591810 -0.242091
C14   C     C_R   0.673961 0.571852 0.655774 -0.200969
C15   C     C_R   0.283720 0.372952 0.607757 0.021800
C16   C     C_R   0.724526 0.571690 0.665002 0.020503
C17   C     C_R   0.254641 0.475294 0.529997 0.254164
C18   C     C_R   0.747303 0.507223 0.502851 0.259377
C19   C     C_R   0.102653 0.478646 0.530474 -0.042819
C20   C     C_R   0.899161 0.495579 0.506197 -0.041011
C21   C     C_R   0.124787 0.340886 0.449245 -0.017388
C22   C     C_R   0.876879 0.639934 0.540108 -0.018032
C23   C     C_R   0.096066 0.205984 0.368894 -0.146222
C24   C     C_R   0.905473 0.779193 0.581544 -0.149097
C25   C     C_R   0.131611 0.612777 0.616792 -0.030091
C26   C     C_R   0.870364 0.355546 0.467604 -0.024287
C27   C     C_R   0.355276 0.494769 0.513335 -0.097630
C28   C     C_R   0.645701 0.497940 0.493976 -0.112676
H1    H     H_    0.356546 0.300694 0.646370 0.175692
H2    H     H_    0.656384 0.624904 0.778451 0.200456
H3    H     H_    0.112154 0.098834 0.303980 0.188447
H4    H     H_    0.889243 0.891750 0.605315 0.186867
C29   C     C_R   0.972033 0.345369 0.461668 0.043571
C30   C     C_R   0.029820 0.626464 0.589565 0.039631
C31   C     C_R   0.978902 0.632752 0.567075 0.044736
C32   C     C_R   0.022859 0.343009 0.452704 0.042061
C33   C     C_R   0.950202 0.491220 0.511431 0.072738
C34   C     C_R   0.051602 0.482652 0.524401 0.072289
C35   C     C_R   0.942165 0.206704 0.424395 -0.216036
C36   C     C_R   0.059832 0.758840 0.677236 -0.211485
C37   C     C_R   0.892304 0.211998 0.429191 -0.134380
C38   C     C_R   0.109783 0.751257 0.692633 -0.135744
O11   O     O_2   0.792407 0.228744 0.444149 -0.489823
O12   O     O_2   0.209928 0.730598 0.717879 -0.498281
C39   C     C_R   0.046065 0.206120 0.372739 -0.213662
C40   C     C_R   0.955572 0.775976 0.596731 -0.215684
H5    H     H_    0.737221 0.383280 0.218777 0.180686
H6    H     H_    0.254051 0.668943 0.396075 0.188761
H7    H     H_    0.870960 0.102567 0.401246 0.196066
H8    H     H_    0.131278 0.855628 0.761783 0.192944
H9    H     H_    0.956497 0.091860 0.397194 0.139220
H10   H     H_    0.045571 0.868924 0.740846 0.144739
H11   H     H_    0.026318 0.098434 0.305746 0.143608
H12   H     H_    0.975246 0.887869 0.626531 0.139497
C41   C     C_2   0.492290 0.034560 0.428711 -0.293353
C42   C     C_2   0.508625 0.964486 0.564664 -0.260564
N3    N     N_2   0.486510 0.456430 0.038510 -0.212018
N4    N     N_2   0.513490 0.543570 0.961490 -0.206283
H13   H     H_    0.460961 0.384747 0.949739 0.249461
H14   H     H_    0.539575 0.613225 0.049752 0.259734
C43   C     C_2   0.263381 0.262823 0.712444 0.922709
O13   O     O_2   0.284415 0.144764 0.724461 -0.539414
O14   O     O_R   0.220977 0.295482 0.801912 -0.755003
H15   H     H_    0.211094 0.211904 0.869030 0.356378
C44   C     C_2   0.752192 0.632257 0.846790 0.907551
O15   O     O_2   0.735008 0.730058 0.965800 -0.553938
O16   O     O_R   0.797130 0.574397 0.885148 -0.761911
H16   H     H_    0.811882 0.623660 0.014242 0.337380
C45   C     C_2   0.643078 0.311912 0.180519 0.898590
O17   O     O_2   0.650659 0.315487 0.021304 -0.546770
O18   O     O_R   0.613229 0.192803 0.217271 -0.741541
H17   H     H_    0.604337 0.106796 0.103487 0.355324
C46   C     C_2   0.347959 0.750426 0.414901 0.913075
O19   O     O_2   0.329902 0.808015 0.292339 -0.513695
O20   O     O_R   0.386296 0.829417 0.534211 -0.760096
H18   H     H_    0.392617 0.940097 0.519519 0.349249
C47   C     C_2   0.464866 0.953890 0.252322 0.937073
O21   O     O_2   0.422343 0.979734 0.224984 -0.560526
O22   O     O_R   0.488853 0.863506 0.110818 -0.714863
H19   H     H_    0.466169 0.819191 0.997414 0.366698
C48   C     C_2   0.535503 0.049769 0.738202 0.910973
O23   O     O_2   0.578781 0.081202 0.740851 -0.549829
O24   O     O_R   0.510385 0.098285 0.895481 -0.726501
H20   H     H_    0.531120 0.168420 0.000040 0.353213

loop_
_geom_bond_atom_site_label_1
_geom_bond_atom_site_label_2
_geom_bond_distance
_ccdc_geom_bond_type
C46   O19   1.222903 D    
O22   H19   1.013273 S    
C13   C15   1.404143 A    
Cu2   N3    2.018070 S    
C48   O23   1.222251 D    
C43   O13   1.223509 D    
N1    C17   1.440260 S    
C8    O11   1.349989 S    
O16   H16   1.014035 S    
O18   H17   1.012029 S    
C19   C34   1.417702 A    
C5    N1    1.370366 A    
C20   C33   1.417806 A    
C10   H5    1.084498 S    
C31   C40   1.414195 A    
C12   C45   1.474496 S    
O1    C1    1.289490 A    
C32   C39   1.414476 A    
N1    C7    1.371115 A    
C10   C12   1.397220 A    
C11   C46   1.477470 S    
C2    C42   1.428246 S    
C14   C28   1.406707 A    
O4    Cu1   1.970224 S    
C4    C28   1.478961 S    
C39   H11   1.078358 S    
C9    H6    1.084182 S    
C25   C38   1.398488 A    
C31   C33   1.418358 A    
C37   H7    1.083477 S    
C32   C34   1.418520 A    
C38   H8    1.083543 S    
C35   H9    1.078389 S    
O6    C4    1.304233 A    
C29   C35   1.413576 A    
Cu1   Cu2   2.685572 S    
O2    C2    1.283435 A    
C5    C21   1.404290 A    
O24   H20   1.009909 S    
C29   C32   1.418556 A    
C35   C37   1.390014 A    
C36   C38   1.389657 A    
O4    C2    1.290932 A    
C11   C27   1.406431 A    
C47   O21   1.222375 D    
C44   O16   1.398576 S    
C29   C33   1.419970 A    
O14   H15   1.013952 S    
C1    C41   1.429799 S    
C14   H2    1.083912 S    
C9    C17   1.402983 A    
C30   C36   1.413274 A    
O7    Cu2   1.940330 S    
C10   C18   1.400664 A    
C47   O22   1.393460 S    
O7    C3    1.298141 A    
C13   C27   1.401663 A    
O5    C3    1.293758 A    
C45   O17   1.222902 D    
C7    C25   1.401229 A    
O5    Cu1   1.956431 S    
C6    N2    1.369307 A    
C26   C37   1.398614 A    
C8    C26   1.401903 A    
C19   C25   1.406515 A    
C43   O14   1.398563 S    
C23   C39   1.391226 A    
O3    Cu2   1.970224 S    
O8    C4    1.295706 A    
C24   C40   1.390453 A    
C16   C44   1.488597 S    
N4    H14   1.028966 S    
C30   C31   1.417456 A    
C45   O18   1.397220 S    
N2    C8    1.370291 A    
C46   O20   1.397792 S    
C20   C26   1.407008 A    
O1    Cu1   1.977663 S    
C23   H3    1.083487 S    
C12   C28   1.412528 A    
N3    H13   1.029078 S    
N2    C18   1.438144 S    
C5    O9    1.349529 S    
O6    Cu2   1.956431 S    
C21   C23   1.398359 A    
O3    C1    1.284151 A    
O8    Cu1   1.940333 S    
C48   O24   1.394754 S    
C15   C43   1.487311 S    
Cu1   N4    2.018069 S    
C14   C16   1.401773 A    
C42   C48   1.479660 S    
C7    O12   1.350183 S    
C15   C17   1.416973 A    
C41   C47   1.490432 S    
C6    C22   1.403468 A    
C16   C18   1.414029 A    
C22   C24   1.398174 A    
C19   C21   1.407909 A    
C3    C27   1.464233 S    
C20   C22   1.408607 A    
C9    C11   1.395266 A    
C41   C42   1.355073 D    
O2    Cu2   1.977664 S    
C24   H4    1.083379 S    
C44   O15   1.223469 D    
C13   H1    1.084663 S    
C30   C34   1.419386 A    
N3    N4    1.298450 D    
C40   H12   1.078641 S    
C6    O10   1.349635 S    
O20   H18   1.011782 S    
C36   H10   1.078565 S    
