data_mof_unit_14920.cif
_audit_creation_date              2012-12-10T17:40:12-0500
_audit_creation_method            fapswitch 2.2
_symmetry_space_group_name_H-M    P1
_symmetry_Int_Tables_number       1
_space_group_crystal_system       triclinic
_cell_length_a                    11.996267
_cell_length_b                    12.741069
_cell_length_c                    27.7415
_cell_angle_alpha                 90.875584
_cell_angle_beta                  85.857027
_cell_angle_gamma                 94.446847
_cell_volume                      4216.14628665

loop_
_atom_site_label
_atom_site_type_symbol
_atom_type_description
_atom_site_fract_x
_atom_site_fract_y
_atom_site_fract_z
_atom_type_partial_charge
C1    C     C_R   0.522901 0.699997 0.500950 1.006608
C2    C     C_R   0.510230 0.605197 0.126970 -0.222477
C3    C     C_R   0.499336 0.493031 0.646569 -0.215097
C4    C     C_R   0.500959 0.507474 0.353136 -0.211960
C5    C     C_R   0.512138 0.602208 0.024938 -0.135187
C6    C     C_R   0.483536 0.407631 0.975708 -0.134031
C7    C     C_R   0.503015 0.409533 0.025417 0.096679
C8    C     C_R   0.526300 0.598605 0.973823 0.096799
C9    C     C_R   0.510370 0.506927 0.050503 0.008132
C10   C     C_R   0.505062 0.501839 0.949307 0.008843
C11   C     C_R   0.497528 0.696996 0.051378 0.371982
C12   C     C_R   0.476995 0.299508 0.499780 0.953018
C13   C     C_R   0.441321 0.315578 0.951658 0.372263
C14   C     C_R   0.503047 0.699524 0.101648 0.462061
C15   C     C_R   0.443703 0.311924 0.901123 0.462202
C16   C     C_R   0.499628 0.497995 0.593932 0.962310
C17   C     C_R   0.500155 0.501996 0.405968 0.920627
C18   C     C_R   0.565071 0.687892 0.946691 -0.243627
C19   C     C_R   0.520410 0.317488 0.050132 -0.240903
C20   C     C_R   0.460898 0.187328 0.496402 -0.269142
C21   C     C_R   0.537036 0.810926 0.507497 -0.237926
C22   C     C_R   0.533364 0.956294 0.564224 0.191759
C23   C     C_R   0.505428 0.499419 0.898342 -0.177930
C24   C     C_R   0.415138 0.030515 0.449378 0.247069
C25   C     C_R   0.553030 0.851094 0.553971 0.044004
C26   C     C_R   0.411381 0.139341 0.456275 0.039280
C27   C     C_R   0.500998 0.871183 0.471198 0.436231
C28   C     C_R   0.505241 0.129212 0.531669 0.451024
C29   C     C_R   0.471763 0.973224 0.482134 -0.141687
C30   C     C_R   0.502280 0.019730 0.526699 -0.131855
C31   C     C_R   0.955622 0.407725 0.452158 -0.346008
C32   C     C_R   0.044823 0.593401 0.547651 -0.361535
C33   C     C_R   0.838588 0.415608 0.456525 0.364934
C34   C     C_R   0.514748 0.508659 0.101259 -0.175342
C35   C     C_R   0.161785 0.584865 0.543307 0.384563
C36   C     C_R   0.858168 0.538897 0.521174 -0.106410
C37   C     C_R   0.141856 0.462314 0.478521 -0.094250
C38   C     C_R   0.975556 0.533667 0.517443 0.056845
C39   C     C_R   0.024572 0.467412 0.482409 0.045444
C40   C     C_R   0.534534 0.587414 0.821033 0.508100
C41   C     C_R   0.522221 0.417459 0.176890 0.518077
C42   C     C_R   0.478321 0.403498 0.823451 0.643274
C43   C     C_R   0.509695 0.603690 0.177612 0.627388
C44   C     C_R   0.400502 0.471730 0.725774 0.481221
C45   C     C_R   0.535685 0.592577 0.871671 -0.018700
C46   C     C_R   0.405050 0.511505 0.278835 0.474740
C47   C     C_R   0.399561 0.466124 0.675381 0.380356
C48   C     C_R   0.400928 0.514287 0.329537 0.378522
C49   C     C_R   0.600624 0.513915 0.668453 -0.295128
C50   C     C_R   0.603949 0.507827 0.325697 -0.300398
C51   C     C_R   0.602438 0.512351 0.718318 -0.181278
C52   C     C_R   0.607939 0.509935 0.275712 -0.207027
C53   C     C_R   0.502814 0.492419 0.747082 0.124747
C54   C     C_R   0.509116 0.511372 0.252367 0.158917
C55   C     C_3   0.248357 0.209063 0.425616 -0.763254
C56   C     C_R   0.523295 0.413638 0.126219 -0.018235
C57   C     C_3   0.701254 0.777954 0.593503 -0.784841
C58   C     C_3   0.428474 0.000491 0.638445 -0.714636
C59   C     C_3   0.262377 0.912460 0.422631 -0.721228
C60   C     C_3   0.199054 0.656846 0.623479 -0.766821
C61   C     C_3   0.805225 0.340723 0.376319 -0.828381
C62   C     C_3   0.519895 0.852845 0.867162 -0.705557
C63   C     C_3   0.669173 0.207766 0.125616 -0.719565
C64   C     C_3   0.273921 0.624243 0.360860 -0.218058
C65   C     C_3   0.293028 0.327377 0.647091 -0.210423
C66   C     C_3   0.253762 0.414673 0.252899 -0.274901
C67   C     C_R   0.568118 0.686714 0.896423 0.208166
C68   C     C_3   0.251639 0.545515 0.763301 -0.284328
C69   C     C_3   0.595160 0.853540 0.123226 -0.191604
C70   C     C_3   0.485928 0.148398 0.875772 -0.195310
C71   C     C_3   0.355843 0.781641 0.023519 -0.258572
C72   C     C_3   0.279691 0.248201 0.990872 -0.262052
C73   C     C_3   0.671774 0.187013 0.562279 -0.223575
C74   C     C_3   0.590733 0.838176 0.398374 -0.311314
C75   C     C_R   0.531624 0.318410 0.099745 0.210773
C76   C     C_R   0.476241 0.403764 0.874139 -0.225731
H1    H     H_    0.678680 0.531892 0.647041 0.186906
H2    H     H_    0.531822 0.244299 0.030875 0.195570
H3    H     H_    0.412611 0.272280 0.413229 0.230070
H4    H     H_    0.222568 0.238212 0.462355 0.245212
H5    H     H_    0.203128 0.131659 0.419393 0.238762
H6    H     H_    0.223965 0.264080 0.398245 0.234513
H7    H     H_    0.539182 0.791335 0.623856 0.235265
H8    H     H_    0.741778 0.757843 0.557660 0.251492
H9    H     H_    0.716679 0.716482 0.619584 0.236049
H10   H     H_    0.739878 0.854770 0.605908 0.223422
H11   H     H_    0.595765 0.966677 0.632781 0.224542
H12   H     H_    0.681955 0.507179 0.342841 0.207510
H13   H     H_    0.438848 0.037810 0.674437 0.243795
H14   H     H_    0.387684 0.919715 0.643589 0.209272
H15   H     H_    0.373682 0.048251 0.618465 0.244948
H16   H     H_    0.355981 0.025385 0.380020 0.247545
H17   H     H_    0.231147 0.873189 0.389677 0.222689
H18   H     H_    0.196054 0.959520 0.439793 0.206371
H19   H     H_    0.279010 0.850435 0.448252 0.258523
H20   H     H_    0.260729 0.719538 0.557253 0.216391
H21   H     H_    0.273240 0.682389 0.643657 0.237586
H22   H     H_    0.162589 0.579832 0.637862 0.283284
H23   H     H_    0.180935 0.413797 0.450983 0.163329
H24   H     H_    0.136502 0.716463 0.629363 0.204663
H25   H     H_    0.736228 0.283231 0.442372 0.217259
H26   H     H_    0.732612 0.313671 0.355468 0.256443
H27   H     H_    0.867525 0.280529 0.372234 0.226133
H28   H     H_    0.842866 0.416723 0.361193 0.246765
H29   H     H_    0.677551 0.818051 0.884264 0.210947
H30   H     H_    0.553706 0.919144 0.843589 0.225635
H31   H     H_    0.492943 0.884642 0.903328 0.217291
H32   H     H_    0.446240 0.812632 0.850610 0.257287
H33   H     H_    0.509105 0.157044 0.108183 0.229285
H34   H     H_    0.819189 0.589082 0.548155 0.136258
H35   H     H_    0.677601 0.135044 0.146170 0.231724
H36   H     H_    0.711012 0.275319 0.144846 0.255958
H37   H     H_    0.711460 0.199708 0.088895 0.206821
H38   H     H_    0.261593 0.659497 0.325379 0.189970
H39   H     H_    0.340371 0.671859 0.379326 0.193587
H40   H     H_    0.194544 0.627668 0.383776 0.172176
H41   H     H_    0.291173 0.284398 0.681814 0.185736
H42   H     H_    0.363133 0.303081 0.621902 0.164514
H43   H     H_    0.213692 0.304117 0.630177 0.172926
H44   H     H_    0.225523 0.384970 0.289613 0.188278
H45   H     H_    0.992728 0.354894 0.425753 0.161062
H46   H     H_    0.308007 0.358360 0.233520 0.181337
H47   H     H_    0.178081 0.418376 0.232450 0.184452
H48   H     H_    0.229104 0.580798 0.729208 0.170503
H49   H     H_    0.306482 0.602869 0.783261 0.156725
H50   H     H_    0.172980 0.528751 0.786335 0.192031
H51   H     H_    0.621637 0.876901 0.085404 0.159530
H52   H     H_    0.661214 0.810186 0.138662 0.139404
H53   H     H_    0.586588 0.926838 0.144823 0.186388
H54   H     H_    0.501612 0.119372 0.912076 0.168137
H55   H     H_    0.565537 0.182778 0.857169 0.143371
H56   H     H_    0.008277 0.646659 0.574025 0.155051
H57   H     H_    0.455903 0.079610 0.854025 0.183876
H58   H     H_    0.306585 0.774834 0.059067 0.179601
H59   H     H_    0.330353 0.714953 0.999306 0.153296
H60   H     H_    0.335298 0.855213 0.006430 0.188630
H61   H     H_    0.231413 0.260119 0.958847 0.178526
H62   H     H_    0.274897 0.316792 0.016061 0.154544
H63   H     H_    0.239403 0.178159 0.010285 0.184405
H64   H     H_    0.702015 0.204886 0.524198 0.134743
H65   H     H_    0.705291 0.112643 0.572850 0.152687
H66   H     H_    0.707845 0.251034 0.585325 0.186900
H67   H     H_    0.681235 0.528046 0.734800 0.176415
H68   H     H_    0.655967 0.795723 0.414854 0.156606
H69   H     H_    0.619397 0.922826 0.393514 0.166491
H70   H     H_    0.579468 0.803217 0.362012 0.202818
H71   H     H_    0.687923 0.509930 0.254935 0.166024
H72   H     H_    0.597109 0.759426 0.963946 0.195513
N1    N     N_R   0.505538 0.494386 0.798506 -0.338816
N2    N     N_2   0.767285 0.353230 0.426675 -0.262057
N3    N     N_2   0.606057 0.780831 0.871360 -0.249996
N4    N     N_2   0.551658 0.222655 0.122287 -0.247498
N5    N     N_R   0.514453 0.510975 0.200913 -0.334640
N6    N     N_R   0.207800 0.519340 0.508990 -0.123442
N7    N     N_R   0.792200 0.480660 0.491010 -0.124477
N8    N     N_2   0.368199 0.201019 0.420367 -0.300123
N9    N     N_2   0.581893 0.782850 0.590602 -0.301718
N10   N     N_2   0.537076 0.996335 0.612474 -0.258576
N11   N     N_2   0.363301 0.979162 0.409624 -0.237715
N12   N     N_2   0.233564 0.648056 0.572587 -0.253316
O1    O     O_R   0.421700 0.658820 0.502400 -0.629568
O2    O     O_2   0.526274 0.328752 0.202460 -0.548959
O3    O     O_2   0.503613 0.693442 0.203808 -0.509376
O4    O     O_2   0.454222 0.313394 0.798830 -0.502515
O5    O     O_3   0.298426 0.517988 0.355515 -0.606485
O6    O     O_3   0.300049 0.437289 0.654806 -0.592676
O7    O     O_3   0.308467 0.516504 0.254876 -0.595323
O8    O     O_3   0.302258 0.450302 0.754247 -0.568049
O9    O     O_3   0.490773 0.793930 0.126087 -0.536530
O10   O     O_3   0.402334 0.220681 0.878777 -0.539580
O11   O     O_3   0.472035 0.787849 0.029216 -0.614367
O12   O     O_R   0.578300 0.341180 0.497600 -0.624589
O13   O     O_3   0.391789 0.229278 0.976921 -0.614227
O14   O     O_3   0.553520 0.181828 0.570147 -0.596258
O15   O     O_3   0.487295 0.826264 0.425969 -0.604636
O16   O     O_R   0.609310 0.646410 0.496630 -0.628956
O17   O     O_R   0.390690 0.353590 0.503370 -0.627395
O18   O     O_R   0.406200 0.506190 0.574130 -0.555543
O19   O     O_R   0.593800 0.493810 0.425870 -0.609787
O20   O     O_R   0.593820 0.493770 0.568360 -0.628719
O21   O     O_R   0.406180 0.506230 0.431640 -0.579474
O22   O     O_2   0.560987 0.674290 0.794113 -0.548304
Zn1   Zn    Zn3+2 0.374730 0.508290 0.503850 0.982771
Zn2   Zn    Zn3+2 0.625270 0.491710 0.496150 0.948468

loop_
_geom_bond_atom_site_label_1
_geom_bond_atom_site_label_2
_ccdc_geom_bond_type
C1    O16   A    
C34   C56   A    
C23   C45   A    
C27   C29   A    
C74   H69   S    
C26   N8    S    
C35   N6    A    
C32   H56   S    
C23   C76   A    
C28   O14   S    
C68   H48   S    
C71   H58   S    
C3    C49   A    
C24   N11   S    
C12   O12   A    
C73   H65   S    
C1    C21   S    
C29   C30   A    
C66   O7    S    
H16   N11   S    
C64   H40   S    
C61   H27   S    
C24   C26   A    
C5    C11   A    
C60   H22   S    
C33   N2    S    
C71   H59   S    
C38   C39   A    
C11   C14   A    
C42   O4    S    
C62   H32   S    
C16   O20   A    
H25   N2    S    
C70   H54   S    
C57   H10   S    
O16   Zn2   S    
C44   O8    S    
C3    C47   A    
C73   O14   S    
C42   N1    A    
C35   N12   S    
C74   H68   S    
H3    N8    S    
C24   C29   A    
C59   N11   S    
C44   C53   A    
C72   H63   S    
C48   O5    S    
C69   H52   S    
C16   O18   A    
C49   C51   A    
C22   C25   A    
C45   C67   A    
C70   H57   S    
C50   C52   A    
C65   H42   S    
C66   H46   S    
C59   H18   S    
C32   C38   A    
C55   H5    S    
C62   N3    S    
C61   N2    S    
C75   N4    S    
C41   N5    A    
O18   Zn1   S    
C44   C47   A    
C50   H12   S    
C61   H28   S    
C17   O19   A    
C72   H62   S    
C15   C76   A    
C21   C27   A    
C1    O1    A    
C64   H39   S    
C66   H44   S    
C41   O2    S    
C53   N1    S    
C46   C54   A    
C55   N8    S    
C59   H19   S    
C54   N5    S    
C14   O9    S    
C52   C54   A    
C40   O22   S    
C73   H66   S    
O21   Zn1   S    
C40   C45   A    
H29   N3    S    
C46   C48   A    
C64   H38   S    
C46   O7    S    
C67   N3    S    
C32   C35   A    
H33   N4    S    
C31   H45   S    
C60   H21   S    
C58   N10   S    
C27   O15   S    
C71   H60   S    
C47   O6    S    
N7    Zn2   S    
C62   H31   S    
C22   N10   S    
C18   C67   A    
O17   Zn1   S    
C65   O6    S    
C8    C18   A    
C15   O10   S    
C4    C50   A    
C51   C53   A    
O1    Zn1   S    
C19   H2    S    
C13   O13   S    
C41   C56   A    
C5    C9    A    
C64   O5    S    
O12   Zn2   S    
H7    N9    S    
C2    C43   A    
N6    Zn1   S    
C12   C20   S    
C31   C33   A    
C65   H43   S    
C57   H8    S    
C69   O9    S    
C72   O13   S    
C55   H6    S    
C58   H14   S    
C4    C17   S    
C68   O8    S    
C8    C10   A    
C72   H61   S    
H20   N12   S    
C52   H71   S    
C7    C19   A    
C13   C15   A    
C36   H34   S    
C9    C34   A    
C71   O11   S    
C68   H50   S    
C11   O11   S    
C37   H23   S    
C18   H72   S    
C4    C48   A    
O19   Zn2   S    
C58   H15   S    
C7    C9    A    
C21   C25   A    
C22   C30   A    
C63   H36   S    
C37   N6    A    
C74   H70   S    
C60   N12   S    
C60   H24   S    
C6    C10   A    
C5    C8    A    
C33   N7    A    
C6    C7    A    
C62   H30   S    
C73   H64   S    
C51   H67   S    
C10   C23   A    
C20   C28   A    
C42   C76   A    
H11   N10   S    
C19   C75   A    
C61   H26   S    
C70   O10   S    
C28   C30   A    
C37   C39   A    
C6    C13   A    
C57   N9    S    
C55   H4    S    
C2    C34   A    
C20   C26   A    
C31   C39   A    
C36   C38   A    
C70   H55   S    
C49   H1    S    
C40   N1    A    
C12   O17   A    
C63   H35   S    
C2    C14   A    
C58   H13   S    
C63   N4    S    
C25   N9    S    
C63   H37   S    
C17   O21   A    
C74   O15   S    
C69   H51   S    
C69   H53   S    
C56   C75   A    
C65   H41   S    
C66   H47   S    
C59   H17   S    
C43   N5    A    
C68   H49   S    
C57   H9    S    
C3    C16   S    
O20   Zn2   S    
C36   N7    A    
C43   O3    S    
