data_mof_unit_55286.cif
_audit_creation_date              2012-10-26T18:32:19-0400
_audit_creation_method            fapswitch 2.2
_symmetry_space_group_name_H-M    P1
_symmetry_Int_Tables_number       1
_space_group_crystal_system       triclinic
_cell_length_a                    12.32873
_cell_length_b                    13.180347
_cell_length_c                    15.871137
_cell_angle_alpha                 77.917126
_cell_angle_beta                  101.130135
_cell_angle_gamma                 116.572798
_cell_volume                      2240.86595688

loop_
_atom_site_label
_atom_site_type_symbol
_atom_type_description
_atom_site_fract_x
_atom_site_fract_y
_atom_site_fract_z
_atom_type_partial_charge
C1    C     C_R   0.854853 0.286591 0.507373 0.532423
C2    C     C_R   0.227995 0.834440 0.469727 -0.002572
C3    C     C_R   0.815376 0.085325 0.563377 -0.116954
C4    C     C_R   0.999572 0.499806 0.659556 0.548329
C5    C     C_R   0.736645 0.970478 0.580238 -0.124350
C6    C     C_R   0.613293 0.932733 0.550103 -0.107289
C7    C     C_R   0.566426 0.009393 0.499020 0.039689
C8    C     C_R   0.649812 0.123753 0.473440 0.027824
C9    C     C_R   0.439778 0.976031 0.471615 0.033370
C10   C     C_R   0.399974 0.053155 0.412854 0.048982
C11   C     C_R   0.485118 0.160199 0.380513 -0.128799
C12   C     C_3   0.981467 0.379847 0.066682 0.297182
C13   C     C_R   0.608235 0.194369 0.409190 -0.112160
C14   C     C_R   0.351058 0.868425 0.501409 -0.129314
C15   C     C_R   0.189613 0.911898 0.413150 -0.128376
C16   C     C_R   0.145080 0.713370 0.487457 0.545482
C17   C     C_R   0.772904 0.163589 0.512071 0.003947
C18   C     C_R   0.345526 0.327600 0.636732 -0.144040
C19   C     C_R   0.760139 0.645811 0.383991 0.081859
C20   C     C_R   0.663885 0.677678 0.358578 0.361941
C21   C     C_R   0.560096 0.622550 0.402139 -0.098724
C22   C     C_R   0.551473 0.534502 0.472193 -0.065983
C23   C     C_3   0.003565 0.500237 0.083347 0.018765
C24   C     C_R   0.652800 0.505076 0.496040 0.152343
C25   C     C_R   0.446857 0.474934 0.519581 -0.004373
C26   C     C_R   0.445968 0.387474 0.589209 0.040048
C27   C     C_R   0.545486 0.360441 0.611463 -0.163617
C28   C     C_R   0.000389 0.500111 0.340462 0.550813
C29   C     C_R   0.646683 0.418277 0.566299 -0.076895
C30   C     C_R   0.342293 0.497967 0.501408 0.051226
C31   C     C_R   0.246011 0.354519 0.615633 0.047875
C32   C     C_3   0.983547 0.380722 0.969051 0.292265
C33   C     C_3   0.897484 0.528469 0.931672 -0.227715
C34   C     C_3   0.126174 0.593681 0.050397 -0.102007
C35   C     C_3   0.898567 0.528151 0.029493 -0.295906
C36   C     C_1   0.001190 0.500025 0.250954 0.003652
C37   C     C_3   0.000922 0.499753 0.917223 0.020519
C38   C     C_1   0.234444 0.582050 0.101983 0.273263
C39   C     C_3   0.124966 0.590787 0.952674 -0.277113
C40   C     C_1   0.002071 0.500049 0.175529 -0.013973
C41   C     C_1   0.999514 0.499859 0.824783 -0.017862
C42   C     C_1   0.999061 0.499890 0.749138 -0.008527
C43   C     C_R   0.275294 0.021192 0.385304 -0.119162
Cu1   Cu    Cu3+1 0.098280 0.475420 0.519630 0.954128
Cu2   Cu    Cu3+1 0.901720 0.524580 0.480370 0.924219
F1    F     F_    0.068338 0.345895 0.116279 -0.631817
F2    F     F_    0.875756 0.295668 0.937097 -0.647277
F3    F     F_    0.671179 0.762363 0.291428 -0.615719
H1    H     H_    0.890885 0.315817 0.086509 0.179116
H2    H     H_    0.770752 0.910709 0.619269 0.123968
H3    H     H_    0.670154 0.275730 0.378245 0.156520
H4    H     H_    0.168074 0.308646 0.652005 0.126761
H5    H     H_    0.545573 0.293974 0.664911 0.123070
H6    H     H_    0.344133 0.260539 0.689972 0.102829
H7    H     H_    0.334907 0.562818 0.449716 0.124199
H8    H     H_    0.840416 0.689014 0.349908 0.150146
H9    H     H_    0.488311 0.650564 0.379761 0.137764
H10   H     H_    0.718448 0.392049 0.589360 0.188141
H11   H     H_    0.909443 0.614179 0.895541 0.123468
H12   H     H_    0.059944 0.361505 0.961148 0.174393
H13   H     H_    0.807276 0.464856 0.906083 0.181956
H14   H     H_    0.809090 0.463724 0.050935 0.134273
H15   H     H_    0.909757 0.613344 0.040073 0.140513
H16   H     H_    0.200225 0.571610 0.941944 0.128171
H17   H     H_    0.140528 0.676877 0.915595 0.125194
H18   H     H_    0.134609 0.679296 0.057404 0.106802
H19   H     H_    0.094456 0.886553 0.387788 0.141024
H20   H     H_    0.456479 0.217947 0.332680 0.128448
H21   H     H_    0.244492 0.079650 0.340295 0.137548
H22   H     H_    0.375065 0.808188 0.548860 0.119696
H23   H     H_    0.909368 0.113319 0.592389 0.131963
H24   H     H_    0.557899 0.842503 0.566327 0.105404
N1    N     N_R   0.246300 0.438200 0.549400 -0.234616
N2    N     N_R   0.754300 0.561180 0.451130 -0.282350
N3    N     N_1   0.319245 0.573046 0.142455 -0.220555
O1    O     O_R   0.972520 0.318130 0.524690 -0.498633
O2    O     O_R   0.806530 0.359650 0.491530 -0.529674
O3    O     O_R   0.083030 0.479240 0.637150 -0.495248
O4    O     O_R   0.917040 0.520750 0.603990 -0.511513
O5    O     O_R   0.193470 0.640350 0.508470 -0.510187
O6    O     O_R   0.027480 0.681870 0.475310 -0.505381
O7    O     O_R   0.082960 0.479250 0.396010 -0.482013
O8    O     O_R   0.916970 0.520760 0.362850 -0.510816

loop_
_geom_bond_atom_site_label_1
_geom_bond_atom_site_label_2
_ccdc_geom_bond_type
C19   H8    S    
C8    C13   A    
C27   C29   A    
C1    O2    A    
C41   C42   T    
C19   C20   A    
C18   C26   A    
C31   H4    S    
C34   H18   S    
C12   H1    S    
C7    C8    A    
Cu2   O8    S    
Cu1   Cu2   S    
C6    H24   S    
C39   H16   S    
C12   C23   S    
C26   C27   A    
Cu1   O7    S    
C5    C6    A    
C31   N1    A    
C23   C40   S    
C4    O3    A    
Cu1   O1    S    
C24   C29   A    
C13   H3    S    
C22   C25   A    
C2    C16   S    
C9    C10   A    
C33   H11   S    
C21   C22   A    
C12   C32   S    
C28   O8    A    
C39   H17   S    
C14   H22   S    
C38   N3    T    
C28   O7    A    
C34   C39   S    
C36   C40   T    
C4    O4    A    
C12   F1    S    
C30   N1    A    
C25   C26   A    
C33   C37   S    
Cu2   N2    S    
C16   O5    A    
C3    H23   S    
C9    C14   A    
C21   H9    S    
Cu1   O5    S    
C23   C34   S    
C15   H19   S    
Cu2   O4    S    
C32   C37   S    
C29   H10   S    
C2    C15   A    
C20   F3    S    
C23   C35   S    
C32   F2    S    
C22   C24   A    
C5    H2    S    
C32   H12   S    
C11   H20   S    
C25   C30   A    
C7    C9    A    
C10   C43   A    
C34   C38   S    
C1    O1    A    
C19   N2    A    
Cu2   O6    S    
C3    C5    A    
C35   H15   S    
C27   H5    S    
C6    C7    A    
C30   H7    S    
C1    C17   S    
C8    C17   A    
Cu1   O3    S    
C15   C43   A    
C37   C39   S    
C11   C13   A    
C24   N2    A    
C4    C42   S    
C16   O6    A    
C33   C35   S    
C3    C17   A    
C35   H14   S    
C37   C41   S    
Cu1   N1    S    
C2    C14   A    
C10   C11   A    
C18   H6    S    
C20   C21   A    
C28   C36   S    
C33   H13   S    
Cu2   O2    S    
C18   C31   A    
C43   H21   S    
