data_mof_unit_55789.cif
_audit_creation_date              2012-12-11T16:24:02-0500
_audit_creation_method            fapswitch 2.2
_symmetry_space_group_name_H-M    P1
_symmetry_Int_Tables_number       1
_space_group_crystal_system       triclinic
_cell_length_a                    14.710931
_cell_length_b                    14.710418
_cell_length_c                    33.26908
_cell_angle_alpha                 96.071778
_cell_angle_beta                  96.190199
_cell_angle_gamma                 61.279533
_cell_volume                      6264.98515981

loop_
_atom_site_label
_atom_site_type_symbol
_atom_type_description
_atom_site_fract_x
_atom_site_fract_y
_atom_site_fract_z
_atom_type_partial_charge
C1    C     C_R   0.390652 0.700532 0.446027 0.603994
C2    C     C_R   0.342827 0.343830 0.308099 -0.040749
C3    C     C_R   0.418869 0.257999 0.328558 0.083387
C4    C     C_R   0.430544 0.266076 0.371424 0.228182
C5    C     C_R   0.404032 0.270274 0.163633 -0.109004
C6    C     C_R   0.393060 0.251304 0.121970 0.050354
C7    C     C_R   0.208687 0.379191 0.122630 0.225907
C8    C     C_R   0.221552 0.397172 0.165010 0.088239
C9    C     C_R   0.318467 0.338565 0.185215 -0.013456
C10   C     C_1   0.329304 0.341881 0.228542 0.064933
C11   C     C_1   0.335784 0.342953 0.264828 0.059757
C12   C     C_R   0.404707 0.385157 0.434219 0.564182
C13   C     C_R   0.293287 0.299753 0.101378 0.032479
C14   C     C_R   0.758280 0.372063 0.409424 -0.003812
C15   C     C_R   0.768759 0.443305 0.387190 0.213195
C16   C     C_R   0.795335 0.416662 0.346463 0.051574
C17   C     C_R   0.806032 0.322098 0.327710 -0.046872
C18   C     C_R   0.805325 0.247786 0.350653 0.128379
C19   C     C_R   0.786415 0.270432 0.391821 0.201180
C20   C     C_R   0.829282 0.291638 0.202985 0.374600
C21   C     C_R   0.812983 0.304363 0.283758 0.372648
C22   C     C_R   0.840575 0.380877 0.145712 0.057110
C23   C     C_R   0.701634 0.409551 0.447357 0.554246
C24   C     C_R   0.868375 0.376334 0.105845 0.221639
C25   C     C_R   0.885844 0.201928 0.094108 0.190099
C26   C     C_R   0.860718 0.206012 0.133843 0.127721
C27   C     C_R   0.841670 0.293554 0.160032 -0.043284
C28   C     C_R   0.900522 0.282854 0.081218 0.002811
C29   C     C_R   0.369590 0.759250 0.409253 0.045664
C30   C     C_R   0.280224 0.779662 0.383078 0.187960
C31   C     C_R   0.272280 0.814281 0.344194 0.209057
C32   C     C_R   0.357006 0.818227 0.330400 0.013826
C33   C     C_R   0.441703 0.807497 0.357321 0.022317
C34   C     C_R   0.393034 0.702522 0.561003 0.589516
C35   C     C_R   0.445356 0.782971 0.397625 0.190126
C36   C     C_R   0.353233 0.836437 0.206042 0.399567
C37   C     C_R   0.358407 0.824498 0.286804 0.412336
C38   C     C_R   0.243484 0.867865 0.142457 0.226218
C39   C     C_R   0.222951 0.894867 0.102230 -0.139509
C40   C     C_R   0.397867 0.871688 0.100107 0.085222
C41   C     C_R   0.417865 0.847935 0.141210 0.056605
C42   C     C_R   0.339237 0.849309 0.162422 0.048899
C43   C     C_R   0.296767 0.902815 0.081470 -0.033874
C44   C     C_R   0.372359 0.367484 0.585054 -0.003755
C45   C     C_R   0.407472 0.388630 0.549052 0.543388
C46   C     C_R   0.276371 0.438540 0.600282 -0.100967
C47   C     C_R   0.252783 0.429881 0.638861 0.099477
C48   C     C_R   0.327674 0.350016 0.663057 0.034145
C49   C     C_R   0.419197 0.273836 0.645946 -0.124643
C50   C     C_R   0.441100 0.282181 0.607384 -0.116868
C51   C     C_R   0.321028 0.347650 0.788230 0.324205
C52   C     C_R   0.318951 0.348415 0.706725 0.349749
C53   C     C_R   0.215386 0.390465 0.846089 -0.138666
C54   C     C_R   0.200665 0.370726 0.884410 0.206581
C55   C     C_R   0.389123 0.268599 0.896412 0.112011
C56   C     C_R   0.704549 0.411804 0.562178 0.587222
C57   C     C_R   0.402556 0.287803 0.857595 0.264688
C58   C     C_R   0.314261 0.344777 0.831653 -0.025287
C59   C     C_R   0.287831 0.304614 0.909193 0.005220
C60   C     C_R   0.764389 0.376118 0.601733 -0.001060
C61   C     C_R   0.795694 0.442447 0.626245 0.276227
C62   C     C_R   0.819870 0.428900 0.668125 0.215043
C63   C     C_R   0.814852 0.347307 0.684907 -0.024214
C64   C     C_R   0.800352 0.271863 0.659687 0.088341
C65   C     C_R   0.778377 0.284062 0.617746 0.036205
C66   C     C_R   0.934362 0.217194 0.817738 0.231944
C67   C     C_R   0.368151 0.361918 0.392783 0.018554
C68   C     C_R   0.968413 0.202119 0.858943 0.213713
C69   C     C_R   0.831069 0.376693 0.877274 0.055944
C70   C     C_R   0.802309 0.393893 0.835791 0.060945
C71   C     C_R   0.856073 0.314564 0.806451 0.022442
C72   C     C_1   0.835508 0.331491 0.763983 0.110932
C73   C     C_1   0.824692 0.340153 0.728059 0.057434
C74   C     C_R   0.916088 0.281558 0.888779 0.019288
C75   C     C_R   0.376319 0.756039 0.601857 0.033747
C76   C     C_R   0.276115 0.833051 0.612859 0.026603
C77   C     C_R   0.258650 0.865442 0.654375 0.266832
C78   C     C_R   0.282015 0.440982 0.371629 0.186064
C79   C     C_R   0.342199 0.823904 0.683446 0.032938
C80   C     C_R   0.441770 0.754835 0.672121 -0.152402
C81   C     C_R   0.459974 0.719558 0.631659 0.208024
C82   C     C_R   0.358903 0.927106 0.827307 0.067465
C83   C     C_R   0.347259 0.948494 0.868608 -0.163477
C84   C     C_R   0.248599 0.854361 0.866966 0.305145
C85   C     C_R   0.261452 0.830483 0.824885 0.234808
C86   C     C_R   0.313733 0.870991 0.805013 -0.003452
C87   C     C_1   0.319667 0.857952 0.761861 0.046564
C88   C     C_1   0.327189 0.845299 0.725905 0.092722
C89   C     C_R   0.272720 0.432314 0.329532 -0.064949
C90   C     C_R   0.288905 0.916580 0.888392 0.006485
C91   C     C_R   0.961593 0.264747 0.045384 0.568922
C92   C     C_R   0.273366 0.260676 0.059948 0.574428
C93   C     C_R   0.259949 0.958588 0.043684 0.560052
C94   C     C_R   0.962328 0.267581 0.930794 0.598339
C95   C     C_R   0.270746 0.264392 0.945167 0.573360
C96   C     C_R   0.256588 0.964176 0.929166 0.604078
Cr1   Cr    Cr6+3 0.576280 0.580550 0.506370 1.173669
Cr2   Cr    Cr6+3 0.346780 0.572400 0.496520 1.100166
Cr3   Cr    Cr6+3 0.576960 0.347070 0.497150 1.117796
Cr4   Cr    Cr6+3 0.087320 0.083240 0.984860 1.122253
Cr5   Cr    Cr6+3 0.087720 0.316210 0.996740 1.169493
Cr6   Cr    Cr6+3 0.317350 0.090340 0.995890 1.110008
H1    H     H_    0.146170 0.916050 0.088035 0.174426
H2    H     H_    0.479462 0.228642 0.179547 0.178799
H3    H     H_    0.220989 0.503012 0.582810 0.160368
H4    H     H_    0.515341 0.225235 0.596284 0.177544
H5    H     H_    0.477569 0.210689 0.663293 0.170246
H6    H     H_    0.148299 0.435598 0.826183 0.149614
H7    H     H_    0.378267 0.996652 0.884682 0.179261
H8    H     H_    0.505009 0.724451 0.695273 0.142640
H9    H     H_    0.210720 0.495975 0.313409 0.189219
N1    N     N_R   0.736856 0.354627 0.219130 -0.171654
N2    N     N_R   0.263726 0.437559 0.729249 -0.169258
N3    N     N_R   0.376170 0.259017 0.725944 -0.203733
N4    N     N_R   0.376700 0.258474 0.765898 -0.165840
N5    N     N_R   0.728937 0.360962 0.258902 -0.178715
N6    N     N_R   0.905067 0.240057 0.267567 -0.160673
N7    N     N_R   0.913010 0.233779 0.227767 -0.163913
N8    N     N_R   0.342008 0.760299 0.220792 -0.138158
N9    N     N_R   0.344906 0.754280 0.260510 -0.147362
N10   N     N_R   0.368903 0.901242 0.272080 -0.162984
N11   N     N_R   0.366209 0.907154 0.232281 -0.174683
N12   N     N_R   0.263489 0.437058 0.769193 -0.192044
O1    O     O_R   0.679450 0.499830 0.463150 -0.422822
O2    O     O_R   0.356040 0.477400 0.534170 -0.505809
O3    O     O_R   0.495910 0.323070 0.537100 -0.494111
O4    O     O_R   0.663920 0.359620 0.542290 -0.495232
O5    O     O_3   0.500010 0.500010 0.500010 -0.302836
O6    O     O_R   0.170070 0.978950 0.027680 -0.497539
O7    O     O_R   0.001760 0.175230 0.026640 -0.510130
O8    O     O_R   0.984760 0.333570 0.037150 -0.408545
O9    O     O_R   0.183410 0.309240 0.041890 -0.437674
O10   O     O_R   0.340240 0.172500 0.045430 -0.480958
O11   O     O_R   0.309670 0.000990 0.032050 -0.471584
O12   O     O_R   0.480650 0.664000 0.464630 -0.449591
O13   O     O_R   0.168330 0.982130 0.939200 -0.409035
O14   O     O_R   0.000140 0.178170 0.944610 -0.453008
O15   O     O_R   0.983010 0.336750 0.948660 -0.463942
O16   O     O_R   0.181800 0.312190 0.959860 -0.433448
O17   O     O_R   0.338500 0.175680 0.956950 -0.499983
O18   O     O_R   0.308050 0.003930 0.950020 -0.513058
O19   O     O_3   0.164130 0.163270 0.992500 -0.301717
O20   O     O_R   0.323930 0.675950 0.455370 -0.430770
O21   O     O_R   0.354700 0.475360 0.451930 -0.499738
O22   O     O_R   0.494470 0.320860 0.448390 -0.419070
O23   O     O_R   0.662580 0.357570 0.460050 -0.494781
O24   O     O_R   0.680900 0.502040 0.551870 -0.409070
O25   O     O_R   0.481990 0.666040 0.546870 -0.439628
O26   O     O_R   0.325370 0.678160 0.544080 -0.496378
I1    I     I_    0.533803 0.149233 0.093977 -0.175136
O27   O     O_3   0.793059 0.192514 0.413625 -0.611448
H10   H     H_    0.816801 0.202820 0.441940 0.341003
O28   O     O_3   0.869027 0.459968 0.090719 -0.618195
H11   H     H_    0.822182 0.524832 0.105684 0.363420
I2    I     I_    0.824532 0.515950 0.313002 -0.160565
I3    I     I_    0.830534 0.100137 0.323663 -0.094724
I4    I     I_    0.811181 0.513815 0.186426 -0.149198
O29   O     O_3   0.897586 0.116808 0.068971 -0.637962
H12   H     H_    0.867612 0.141644 0.041662 0.345060
I5    I     I_    0.850839 0.077736 0.153455 -0.123031
O30   O     O_3   0.204300 0.760665 0.395227 -0.623996
H13   H     H_    0.171833 0.739048 0.371130 0.368089
O31   O     O_3   0.524894 0.775674 0.425549 -0.635837
H14   H     H_    0.554911 0.817959 0.417589 0.361144
O32   O     O_3   0.184020 0.841783 0.318448 -0.638635
H15   H     H_    0.122928 0.869502 0.334927 0.360305
I6    I     I_    0.571231 0.812590 0.335666 -0.199505
O33   O     O_3   0.168647 0.865947 0.163681 -0.624963
H16   H     H_    0.105964 0.880882 0.145335 0.354935
I7    I     I_    0.522362 0.854054 0.066426 -0.154077
I8    I     I_    0.566031 0.810148 0.172036 -0.130926
O34   O     O_3   0.101211 0.410202 0.896904 -0.644948
H17   H     H_    0.049806 0.453175 0.875814 0.335239
I9    I     I_    0.101854 0.539349 0.656783 -0.209003
I10   I     I_    0.520140 0.121407 0.293724 -0.198306
I11   I     I_    0.526409 0.188820 0.934859 -0.140319
O35   O     O_3   0.502686 0.249145 0.846071 -0.618212
H18   H     H_    0.501656 0.284762 0.822262 0.346704
O36   O     O_3   0.056987 0.113707 0.870579 -0.673850
H19   H     H_    0.104996 0.087210 0.848418 0.324376
O37   O     O_3   0.977986 0.139167 0.787727 -0.653863
H20   H     H_    0.004627 0.071074 0.799452 0.359163
I12   I     I_    0.808454 0.141156 0.686295 -0.178433
I13   I     I_    0.775140 0.158138 0.579557 -0.206626
O38   O     O_3   0.800263 0.521068 0.608468 -0.623555
H21   H     H_    0.827006 0.558766 0.628422 0.393004
I14   I     I_    0.678981 0.538973 0.816491 -0.260071
I15   I     I_    0.746184 0.493004 0.922680 -0.173923
O39   O     O_3   0.503833 0.183932 0.393204 -0.626975
H22   H     H_    0.528424 0.118591 0.376084 0.367214
O40   O     O_3   0.843562 0.499249 0.691627 -0.680631
H23   H     H_    0.871864 0.474258 0.718963 0.348618
I16   I     I_    0.439865 0.988885 0.799958 -0.215626
O41   O     O_3   0.557861 0.645079 0.621068 -0.645845
H24   H     H_    0.606679 0.628317 0.645492 0.345405
I17   I     I_    0.155262 0.905022 0.566540 -0.227497
O42   O     O_3   0.219599 0.770721 0.804419 -0.676407
H25   H     H_    0.240937 0.752472 0.776264 0.349946
O43   O     O_3   0.195958 0.819706 0.887903 -0.636689
H26   H     H_    0.172173 0.776892 0.869480 0.386882
O44   O     O_3   0.162225 0.935699 0.667860 -0.637389
H27   H     H_    0.107878 0.946878 0.645899 0.369564
O45   O     O_3   0.207534 0.529164 0.390732 -0.640274
H28   H     H_    0.195201 0.508901 0.416258 0.347986
I18   I     I_    0.094520 0.505431 0.200040 -0.215190
O46   O     O_3   0.113921 0.434097 0.101599 -0.627035
H29   H     H_    0.069107 0.497807 0.117616 0.368364
O47   O     O_3   0.750811 0.538530 0.405799 -0.616660
H30   H     H_    0.734101 0.588840 0.385195 0.369170

loop_
_geom_bond_atom_site_label_1
_geom_bond_atom_site_label_2
_ccdc_geom_bond_type
C12   O22   A    
C66   C68   A    
O45   H28   S    
O32   H15   S    
C55   C59   A    
Cr2   O20   S    
C51   N12   A    
C41   C42   A    
C74   C94   S    
C36   C42   S    
C92   O10   A    
C87   C88   T    
C1    O12   A    
C40   I7    S    
N3    N4    A    
Cr5   O16   S    
C7    C8    A    
C96   O13   A    
C91   O7    A    
C53   C54   A    
C44   C45   S    
C25   C28   A    
C38   O33   S    
C41   I8    S    
C95   O17   A    
O47   H30   S    
C59   C95   S    
C92   O9    A    
C38   C42   A    
Cr1   O1    S    
Cr1   O5    S    
C85   C86   A    
C30   C31   A    
Cr4   O7    S    
C91   O8    A    
C68   C74   A    
C15   C16   A    
C46   H3    S    
C51   N4    A    
C18   C19   A    
O44   H27   S    
C56   O4    A    
C36   N8    A    
C82   I16   S    
C21   N6    A    
C76   I17   S    
C43   C93   S    
C81   O41   S    
C20   N1    A    
C64   I12   S    
C34   O25   A    
C40   C43   A    
O31   H14   S    
C45   O2    A    
C16   C17   A    
O46   H29   S    
C48   C49   A    
C19   O27   S    
O27   H10   S    
C83   H7    S    
C26   I5    S    
C70   C71   A    
Cr6   O18   S    
C29   C30   A    
C9    C10   S    
C62   O40   S    
C15   O47   S    
C34   C75   S    
C72   C73   T    
C61   C62   A    
Cr2   O5    S    
O41   H24   S    
C96   O18   A    
C5    H2    S    
O43   H26   S    
C78   C89   A    
Cr1   O24   S    
C33   I6    S    
C67   C78   A    
C84   C90   A    
C7    O46   S    
C93   O6    A    
C2    C11   S    
C4    O39   S    
C20   N7    A    
C79   C88   S    
C23   O23   A    
C34   O26   A    
C44   C46   A    
O30   H13   S    
Cr3   O3    S    
C57   C58   A    
C54   C59   A    
Cr2   O2    S    
C84   O43   S    
C38   C39   A    
C12   C67   S    
O40   H23   S    
C47   C48   A    
C54   O34   S    
C78   O45   S    
C49   H5    S    
C93   O11   A    
Cr4   O14   S    
Cr4   O6    S    
C8    C9    A    
Cr3   O4    S    
C63   C73   S    
C31   O32   S    
C25   C26   A    
O37   H20   S    
C17   C21   S    
C56   C60   S    
C60   C61   A    
C14   C23   S    
C2    C89   A    
C36   N11   A    
C75   C76   A    
Cr6   O11   S    
C66   C71   A    
C5    C9    A    
C62   C63   A    
C1    O20   A    
Cr5   O19   S    
O42   H25   S    
N2    N12   A    
C7    C13   A    
C45   O3    A    
N8    N9    A    
C16   I2    S    
C61   O38   S    
C17   C18   A    
C26   C27   A    
C77   C79   A    
C69   C74   A    
C51   C58   S    
Cr6   O17   S    
C32   C37   S    
C84   C85   A    
C39   H1    S    
C69   I15   S    
N10   N11   A    
C23   O1    A    
C70   I14   S    
O35   H18   S    
C37   N10   A    
Cr5   O8    S    
C85   O42   S    
O33   H16   S    
C22   I4    S    
C66   O37   S    
C60   C65   A    
C49   C50   A    
C22   C27   A    
C55   C57   A    
C13   C92   S    
O29   H12   S    
C94   O15   A    
Cr1   O25   S    
C22   C24   A    
C79   C80   A    
C1    C29   S    
C3    C4    A    
N1    N5    A    
C18   I3    S    
O34   H17   S    
C3    I10   S    
C44   C50   A    
O39   H22   S    
C83   C90   A    
C89   H9    S    
C46   C47   A    
C40   C41   A    
Cr2   O21   S    
C86   C87   S    
C14   C19   A    
Cr3   O23   S    
C31   C32   A    
C75   C81   A    
C24   O28   S    
C24   C28   A    
C80   C81   A    
C77   O44   S    
C4    C67   A    
C39   C43   A    
C53   C58   A    
C90   C96   S    
Cr3   O5    S    
C8    I18   S    
C20   C27   S    
C52   N3    A    
O36   H19   S    
C29   C35   A    
C68   O36   S    
C95   O16   A    
C64   C65   A    
C56   O24   A    
C2    C3    A    
Cr6   O10   S    
C71   C72   S    
C82   C86   A    
Cr5   O15   S    
C32   C33   A    
C6    C13   A    
C57   O35   S    
C76   C77   A    
C53   H6    S    
O38   H21   S    
C5    C6    A    
C21   N5    A    
C52   N2    A    
C33   C35   A    
C37   N9    A    
C28   C91   S    
Cr3   O22   S    
C69   C70   A    
C35   O31   S    
C55   I11   S    
C47   I9    S    
C10   C11   T    
C63   C64   A    
C6    I1    S    
Cr5   O9    S    
C12   O21   A    
C48   C52   S    
C82   C83   A    
C80   H8    S    
C25   O29   S    
C50   H4    S    
C94   O14   A    
Cr1   O12   S    
C14   C15   A    
Cr4   O19   S    
Cr6   O19   S    
C30   O30   S    
O28   H11   S    
N6    N7    A    
Cr2   O26   S    
Cr4   O13   S    
C65   I13   S    
