data_mof_unit_29980.cif
_audit_creation_date              2012-12-10T18:57:10-0500
_audit_creation_method            fapswitch 2.2
_symmetry_space_group_name_H-M    P1
_symmetry_Int_Tables_number       1
_space_group_crystal_system       triclinic
_cell_length_a                    10.727283
_cell_length_b                    9.942872
_cell_length_c                    10.792643
_cell_angle_alpha                 91.84435
_cell_angle_beta                  93.382241
_cell_angle_gamma                 90.530095
_cell_volume                      1148.47117455

loop_
_atom_site_label
_atom_site_type_symbol
_atom_type_description
_atom_site_fract_x
_atom_site_fract_y
_atom_site_fract_z
_atom_type_partial_charge
C1    C     C_R   0.260194 0.499664 0.500028 0.890953
C2    C     C_R   0.508412 0.618492 0.942425 -0.154185
C3    C     C_R   0.484209 0.495198 0.126685 -0.279826
C4    C     C_R   0.474695 0.504607 0.869123 -0.208828
C5    C     C_R   0.436250 0.383000 0.053920 0.358163
C6    C     C_R   0.423127 0.391954 0.924992 0.349979
C7    C     C_3   0.616352 0.716325 0.945002 0.150387
C8    C     C_3   0.617974 0.712322 0.088224 0.241368
C9    C     C_R   0.062678 0.377764 0.499942 -0.108386
C10   C     C_R   0.934959 0.378046 0.496375 -0.121865
C11   C     C_R   0.872259 0.500606 0.495988 -0.070351
C12   C     C_R   0.739739 0.500333 0.498598 0.906526
C13   C     C_R   0.127527 0.499885 0.499238 -0.065804
C14   C     C_R   0.937046 0.622868 0.494394 -0.037031
C15   C     C_R   0.064811 0.622584 0.496273 -0.106531
C16   C     C_2   0.578175 0.848883 0.891429 0.698797
C17   C     C_2   0.733071 0.651190 0.150883 0.524636
C18   C     C_2   0.692618 0.152080 0.637488 0.592568
C19   C     C_2   0.299871 0.136717 0.374092 0.606790
C20   C     C_R   0.593501 0.075138 0.563671 -0.070771
C21   C     C_R   0.405799 0.067914 0.437502 -0.065466
C22   C     C_R   0.593223 0.931398 0.562707 0.382023
C23   C     C_R   0.408884 0.924148 0.434023 0.453618
C24   C     C_R   0.497000 0.497685 0.259860 0.916092
C25   C     C_R   0.494195 0.501708 0.739110 0.987505
C26   C     C_R   0.510503 0.614374 0.068687 -0.024017
Cl1   Cl    Cl    0.404788 0.225147 0.115645 -0.479530
Cl2   Cl    Cl    0.342965 0.260403 0.836651 -0.483637
Cl3   Cl    Cl    0.750933 0.646063 0.876052 -0.525281
Cl4   Cl    Cl    0.570538 0.864181 0.166797 -0.429317
Cl5   Cl    Cl    0.714527 0.847336 0.642627 -0.462919
Cl6   Cl    Cl    0.302841 0.830272 0.333440 -0.445066
H1    H     H_    0.109990 0.282366 0.503605 0.209680
H2    H     H_    0.885977 0.282510 0.494195 0.215330
H3    H     H_    0.889766 0.718414 0.491489 0.234088
H4    H     H_    0.113801 0.718236 0.495791 0.214213
H5    H     H_    0.490597 0.857428 0.836575 0.038668
H6    H     H_    0.757881 0.547988 0.128330 0.058871
H7    H     H_    0.671301 0.243217 0.687974 0.110970
H8    H     H_    0.313105 0.233185 0.334642 0.134302
N1    N     N_R   0.500000 0.857200 0.500000 -0.178585
N2    N     N_R   0.500000 0.142810 0.500000 -0.199144
O1    O     O_R   0.316770 0.614620 0.499990 -0.594729
O2    O     O_2   0.799450 0.716676 0.226765 -0.493284
O3    O     O_2   0.800931 0.115253 0.642295 -0.507165
O4    O     O_2   0.194849 0.087648 0.367087 -0.522143
O5    O     O_R   0.683230 0.614620 0.500010 -0.555002
O6    O     O_R   0.316800 0.385290 0.500000 -0.664145
O7    O     O_R   0.683200 0.385290 0.500000 -0.666582
O8    O     O_R   0.500000 0.614690 0.316780 -0.548158
O9    O     O_R   0.500000 0.614690 0.683220 -0.609159
O10   O     O_R   0.500020 0.385360 0.316780 -0.603830
O11   O     O_R   0.499980 0.385360 0.683220 -0.615176
O12   O     O_2   0.646231 0.947735 0.908072 -0.456719
Zn1   Zn    Zn3+2 0.500000 0.653120 0.500000 1.083406
Zn2   Zn    Zn3+2 0.500000 0.346880 0.500000 0.993700

loop_
_geom_bond_atom_site_label_1
_geom_bond_atom_site_label_2
_ccdc_geom_bond_type
C24   O10   A    
C20   N2    A    
C11   C12   S    
C25   O9    A    
C1    O6    A    
C7    Cl3   S    
O7    Zn2   S    
C8    C26   S    
C9    C10   A    
C2    C4    A    
C8    C17   S    
C23   N1    A    
C16   H5    S    
C18   H7    S    
C8    Cl4   S    
C23   Cl6   S    
C21   C23   A    
C4    C25   S    
C17   O2    D    
C7    C8    S    
C2    C26   A    
C9    H1    S    
C3    C24   S    
C22   Cl5   S    
C12   O5    A    
O1    Zn1   S    
C7    C16   S    
C19   C21   S    
C25   O11   A    
C12   O7    A    
O9    Zn1   S    
C17   H6    S    
C13   C15   A    
C24   O8    A    
C5    C6    A    
C11   C14   A    
C16   O12   D    
C19   O4    D    
C22   N1    A    
C1    C13   S    
C19   H8    S    
C21   N2    A    
C18   O3    D    
O10   Zn2   S    
C15   H4    S    
C18   C20   S    
C10   H2    S    
C4    C6    A    
C10   C11   A    
O11   Zn2   S    
C14   H3    S    
O6    Zn2   S    
O5    Zn1   S    
C9    C13   A    
C14   C15   A    
N1    Zn1   S    
C2    C7    S    
N2    Zn2   S    
C5    Cl1   S    
C1    O1    A    
C3    C26   A    
C6    Cl2   S    
O8    Zn1   S    
C20   C22   A    
C3    C5    A    
