data_mof_unit_6896.cif
_audit_creation_date              2012-12-11T20:19:24-0500
_audit_creation_method            fapswitch 2.2
_symmetry_space_group_name_H-M    P1
_symmetry_Int_Tables_number       1
_space_group_crystal_system       triclinic
_cell_length_a                    8.478096
_cell_length_b                    17.192073
_cell_length_c                    22.771363
_cell_angle_alpha                 98.830105
_cell_angle_beta                  89.041348
_cell_angle_gamma                 98.331289
_cell_volume                      3245.06268102

loop_
_atom_site_label
_atom_site_type_symbol
_atom_type_description
_atom_site_fract_x
_atom_site_fract_y
_atom_site_fract_z
_atom_type_partial_charge
Ba1   Ba    Ba6+2 0.857050 0.537370 0.474190 1.637114
Ba2   Ba    Ba6+2 0.332790 0.462700 0.525820 1.643276
C1    C     C_3   0.715368 0.813911 0.280848 0.162719
C2    C     C_R   0.078795 0.574933 0.945702 -0.041132
C3    C     C_R   0.035488 0.568501 0.884417 0.622598
C4    C     C_3   0.162050 0.723442 0.323218 0.478821
C5    C     C_R   0.972145 0.426943 0.877310 0.603219
C6    C     C_R   0.019652 0.430412 0.936770 -0.010359
C7    C     C_R   0.071721 0.504663 0.971499 -0.091638
C8    C     C_R   0.127612 0.649224 0.981939 0.126078
C9    C     C_R   0.167319 0.652729 0.042754 0.127373
C10   C     C_R   0.161851 0.581857 0.068299 -0.025422
C11   C     C_R   0.115402 0.508000 0.032225 -0.088628
C12   C     C_3   0.686126 0.751205 0.324178 0.627529
C13   C     C_R   0.014838 0.360497 0.962210 -0.072800
C14   C     C_R   0.060901 0.363652 0.021025 -0.071266
C15   C     C_R   0.111076 0.436901 0.056841 -0.014238
C16   C     C_3   0.240388 0.775185 0.278634 -0.272499
C17   C     C_R   0.157245 0.440178 0.116677 0.587583
C18   C     C_R   0.200935 0.582593 0.129104 0.596495
C19   C     C_2   0.785068 0.456194 0.770161 0.110448
C20   C     C_3   0.753416 0.432214 0.703908 -0.045414
C21   C     C_1   0.009638 0.511965 0.686254 0.048322
C22   C     C_2   0.053051 0.516288 0.742984 -0.173887
C23   C     C_3   0.465397 0.349191 0.342349 0.278757
C24   C     C_2   0.934780 0.489410 0.788763 0.233154
C25   C     C_R   0.407669 0.546397 0.234021 0.107673
C26   C     C_R   0.446710 0.553742 0.294887 0.024462
C27   C     C_R   0.182662 0.489133 0.315310 0.050547
C28   C     C_3   0.244947 0.705424 0.607536 0.304660
C29   C     C_R   0.140134 0.484180 0.255105 -0.148490
C30   C     C_R   0.249864 0.515145 0.214045 0.187204
C31   C     C_2   0.874101 0.470247 0.663816 -0.281030
C32   C     C_2   0.444217 0.719553 0.485600 -0.267242
C33   C     C_3   0.358546 0.775640 0.457828 -0.012466
C34   C     C_3   0.398463 0.319027 0.280043 -0.347506
C35   C     C_2   0.403657 0.861217 0.482511 -0.117484
C36   C     C_2   0.551952 0.884777 0.504452 0.007724
C37   C     C_2   0.648613 0.823351 0.517776 -0.124697
C38   C     C_1   0.580706 0.747928 0.513920 0.090732
C39   C     C_R   0.807514 0.134593 0.519914 -0.141225
C40   C     C_3   0.311052 0.791314 0.631992 -0.385959
C41   C     C_R   0.858675 0.216311 0.529890 0.050182
C42   C     C_R   0.622168 0.238371 0.479231 0.040594
C43   C     C_R   0.571570 0.156583 0.469058 -0.099969
C44   C     C_R   0.663648 0.104460 0.489607 0.019593
C45   C     C_3   0.086249 0.298931 0.678146 0.360616
C46   C     C_2   0.615339 0.970198 0.516100 -0.095576
C47   C     C_2   0.614887 0.018308 0.474252 0.148705
C48   C     C_R   0.763493 0.268262 0.511197 -0.261370
C49   C     C_3   0.926864 0.283280 0.365895 0.397647
C50   C     C_3   0.857671 0.215491 0.316273 0.158694
C51   C     C_3   0.758904 0.718467 0.671071 0.580426
C52   C     C_3   0.690323 0.737812 0.734528 -0.085720
C53   C     C_3   0.102466 0.276537 0.739796 -0.076364
C54   C     C_3   0.514009 0.249682 0.653306 0.449308
C55   C     C_3   0.425256 0.169676 0.665514 -0.345799
C56   C     C_R   0.333109 0.527222 0.334997 -0.335117
H1    H     H_    0.397788 0.793019 0.668252 0.140267
H2    H     H_    0.445502 0.161793 0.712178 0.126344
H3    H     H_    0.975944 0.302621 0.936495 0.114990
H4    H     H_    0.174756 0.539845 0.756791 0.124703
H5    H     H_    0.366834 0.530726 0.381053 0.081528
H6    H     H_    0.660450 0.994482 0.560518 0.056761
H7    H     H_    0.324750 0.903705 0.476253 0.079964
H8    H     H_    0.463845 0.133445 0.443429 0.089660
H9    H     H_    0.412622 0.656297 0.470447 0.073491
H10   H     H_    0.153236 0.790664 0.248364 0.137836
H11   H     H_    0.160110 0.704387 0.570723 0.052836
H12   H     H_    0.371551 0.821478 0.596627 0.061792
H13   H     H_    0.823105 0.734924 0.395182 0.244455
H14   H     H_    0.861292 0.829125 0.376971 0.205654
H15   H     H_    0.213991 0.824656 0.650015 0.129107
H16   H     H_    0.829557 0.316509 0.384342 0.044982
H17   H     H_    0.044457 0.297721 0.444317 0.202643
H18   H     H_    0.089687 0.220757 0.396183 0.183356
H19   H     H_    0.909520 0.267506 0.241442 0.196892
H20   H     H_    0.751110 0.297602 0.279186 0.188294
H21   H     H_    0.672742 0.123570 0.302464 0.200342
H22   H     H_    0.766295 0.132110 0.367518 0.173014
H23   H     H_    0.952158 0.177863 0.301446 0.068514
H24   H     H_    0.823172 0.833887 0.654567 0.141304
H25   H     H_    0.949790 0.771026 0.625471 0.200048
H26   H     H_    0.890676 0.645104 0.705138 0.141609
H27   H     H_    0.738062 0.597306 0.660470 0.136407
H28   H     H_    0.897180 0.777551 0.227944 0.209555
H29   H     H_    0.902670 0.876759 0.242590 0.159120
H30   H     H_    0.787233 0.745581 0.768334 0.108018
H31   H     H_    0.470312 0.668716 0.717102 0.231915
H32   H     H_    0.605105 0.622696 0.748047 0.180267
H33   H     H_    0.491300 0.796881 0.357488 0.125799
H34   H     H_    0.642974 0.795527 0.738707 0.096312
H35   H     H_    0.498175 0.705573 0.370928 0.119681
H36   H     H_    0.567712 0.396899 0.340038 0.040579
H37   H     H_    0.296311 0.270918 0.281725 0.143998
H38   H     H_    0.490832 0.295187 0.250283 0.127178
H39   H     H_    0.640407 0.741431 0.202114 0.203988
H40   H     H_    0.623328 0.838477 0.203892 0.171436
H41   H     H_    0.194457 0.339445 0.668829 0.082893
H42   H     H_    0.982910 0.331284 0.678192 -0.025725
H43   H     H_    0.120703 0.331551 0.772879 0.093116
H44   H     H_    0.979469 0.208620 0.796108 0.199810
H45   H     H_    0.688950 0.871908 0.304988 0.049754
H46   H     H_    0.864209 0.254638 0.757735 0.237967
H47   H     H_    0.743408 0.290655 0.634521 0.096836
H48   H     H_    0.717069 0.195258 0.641627 0.164572
H49   H     H_    0.485294 0.255056 0.606663 0.049442
H50   H     H_    0.467046 0.119945 0.635051 0.063669
H51   H     H_    0.296040 0.165991 0.657631 0.150057
H52   H     H_    0.002116 0.624163 0.322707 0.205192
H53   H     H_    0.072633 0.636359 0.255451 0.176576
H54   H     H_    0.055935 0.308197 0.038519 0.120608
H55   H     H_    0.121060 0.762712 0.079410 0.169427
H56   H     H_    0.369682 0.374505 0.369506 0.045301
H57   H     H_    0.315304 0.758142 0.060186 0.170380
H58   H     H_    0.505646 0.611934 0.172047 0.204085
H59   H     H_    0.534412 0.515568 0.160177 0.174324
H60   H     H_    0.252037 0.751856 0.961272 0.177212
H61   H     H_    0.058152 0.757384 0.980364 0.172948
H62   H     H_    0.571823 0.467297 0.808892 0.182722
H63   H     H_    0.621971 0.374521 0.801167 0.214029
H64   H     H_    0.022653 0.455371 0.239971 0.121242
H65   H     H_    0.249459 0.687991 0.337044 -0.033794
H66   H     H_    0.861433 0.449309 0.616473 0.088298
H67   H     H_    0.356782 0.368183 0.261041 0.080944
H68   H     H_    0.451221 0.969775 0.408853 0.171174
H69   H     H_    0.634156 0.939560 0.398934 0.175364
H70   H     H_    0.770319 0.841617 0.533702 0.093839
H71   H     H_    0.882259 0.094592 0.533773 0.079205
H72   H     H_    0.804803 0.331570 0.518328 0.064532
H73   H     H_    0.306561 0.831913 0.301806 0.095245
H74   H     H_    0.344868 0.673845 0.590423 0.040093
H75   H     H_    0.323632 0.741846 0.250512 0.165204
H76   H     H_    0.208552 0.246370 0.741733 0.123502
N1    N     N_R   0.982288 0.495196 0.851156 -0.421254
N2    N     N_3   0.561854 0.676768 0.748748 -0.480204
N3    N     N_3   0.518208 0.741325 0.337892 -0.518211
N4    N     N_3   0.608235 0.791788 0.229154 -0.500542
N5    N     N_3   0.961565 0.223367 0.754083 -0.458572
N6    N     N_3   0.685446 0.250257 0.660326 -0.489046
N7    N     N_3   0.032274 0.666682 0.294722 -0.419122
N8    N     N_3   0.214159 0.728778 0.078602 -0.442667
N9    N     N_3   0.531419 0.565356 0.192633 -0.470320
N10   N     N_3   0.135570 0.721671 0.957131 -0.431858
N11   N     N_3   0.665482 0.434981 0.812513 -0.463216
N12   N     N_R   0.202394 0.512509 0.152200 -0.428576
N13   N     N_3   0.573830 0.987877 0.413133 -0.507958
N14   N     N_3   0.773685 0.780535 0.380253 -0.516226
N15   N     N_3   0.995088 0.249874 0.413075 -0.532500
N16   N     N_3   0.807367 0.247581 0.264694 -0.473460
N17   N     N_3   0.722439 0.165258 0.338194 -0.470770
N18   N     N_3   0.879453 0.785962 0.662267 -0.500801
N19   N     N_3   0.829880 0.645622 0.665598 -0.458270
N20   N     N_3   0.881322 0.824370 0.261710 -0.488234
O1    O     O_2   0.889310 0.456460 0.358460 -0.476260
O2    O     O_2   0.188879 0.218152 0.529762 -0.480884
O3    O     O_3   0.066138 0.229699 0.635809 -0.607640
O4    O     O_3   0.129890 0.457280 0.429550 -0.478825
O5    O     O_3   0.576930 0.595420 0.534060 -0.462321
O6    O     O_2   0.340570 0.306450 0.462190 -0.461932
O7    O     O_3   0.517254 0.285770 0.365275 -0.620711
O8    O     O_2   0.431066 0.462231 0.707254 -0.506792
O9    O     O_3   0.461189 0.311508 0.693913 -0.612538
O10   O     O_2   0.042807 0.628101 0.860844 -0.558276
O11   O     O_2   0.920567 0.362569 0.848755 -0.626138
O12   O     O_3   0.631499 0.708710 0.630695 -0.664015
O13   O     O_2   0.158188 0.378478 0.137070 -0.599500
O14   O     O_2   0.232955 0.645876 0.161779 -0.606946
O15   O     O_3   0.674650 0.600620 0.400940 -0.497843
O16   O     O_2   0.755763 0.529560 0.294010 -0.476265
O17   O     O_3   0.049157 0.331122 0.340862 -0.667398
O18   O     O_3   0.733950 0.678889 0.295093 -0.561088
O19   O     O_2   0.849130 0.693580 0.537840 -0.474118
O20   O     O_3   0.093680 0.641380 0.431770 -0.492453
O21   O     O_2   0.036023 0.784924 0.484860 -0.494876
O22   O     O_3   0.103069 0.773134 0.371198 -0.597970
O23   O     O_2   0.300380 0.543560 0.641570 -0.458425
O24   O     O_3   0.059830 0.542790 0.570460 -0.476562
O25   O     O_3   0.515070 0.399440 0.599070 -0.469341
O26   O     O_3   0.166514 0.670530 0.653534 -0.613630
O27   O     O_3   0.612780 0.404640 0.465950 -0.478176
O28   O     O_3   0.096040 0.358680 0.568240 -0.503729
P1    P     P_3+3 0.055640 0.433080 0.366120 0.971663
P2    P     P_3+3 0.671420 0.681950 0.554390 0.995328
P3    P     P_3+3 0.146082 0.743919 0.438953 0.920135
P4    P     P_3+3 0.134070 0.566990 0.633890 1.019068
P5    P     P_3+3 0.053636 0.255686 0.564878 0.935689
P6    P     P_3+3 0.650928 0.591190 0.322911 0.973784
P7    P     P_3+3 0.521282 0.306232 0.442986 0.966100
P8    P     P_3+3 0.541810 0.404951 0.675728 0.931062

loop_
_geom_bond_atom_site_label_1
_geom_bond_atom_site_label_2
_ccdc_geom_bond_type
C14   H54   S    
H22   N17   S    
C39   H71   S    
C19   C24   D    
C51   N19   S    
C1    H45   S    
C34   H67   S    
C49   H16   S    
Ba1   P1    S    
C53   N5    S    
C5    C6    A    
C43   C44   A    
H55   N8    S    
C52   H34   S    
C44   C47   S    
Ba1   O19   S    
H40   N4    S    
C32   C38   D    
O17   P1    S    
Ba1   O4    S    
C33   C35   S    
C22   C24   S    
O6    P7    D    
C32   C33   S    
H60   N10   S    
C26   P6    S    
O20   P3    S    
C36   C37   S    
C54   N6    S    
O1    P1    D    
C46   H6    S    
C30   N12   S    
C16   H10   S    
C13   C14   A    
C12   N14   S    
C40   H12   S    
C45   H41   S    
C54   C55   S    
C47   N13   S    
C16   H75   S    
Ba1   Ba2   S    
Ba2   O28   S    
Ba1   O1    S    
C45   C53   S    
C7    C11   A    
C24   N1    S    
C48   H72   S    
H33   N3    S    
O27   P7    S    
C55   H51   S    
O19   P2    D    
C23   O7    S    
C14   C15   A    
C21   C31   D    
C35   H7    S    
C51   N18   S    
C25   N9    S    
C39   C44   A    
Ba2   O23   S    
C41   P5    S    
O5    P2    S    
C20   P8    S    
O4    P1    S    
C36   C46   S    
C33   P3    S    
H44   N5    S    
H13   N14   S    
C5    O11   D    
H57   N8    S    
C23   H36   S    
H31   N2    S    
C19   C20   S    
H61   N10   S    
C39   C41   A    
C16   H73   S    
C17   O13   D    
C4    H65   S    
C4    C16   S    
Ba1   P2    S    
Ba2   O6    S    
C18   O14   D    
Ba1   O20   S    
C17   N12   Am   
C40   H1    S    
C49   C50   S    
C3    O10   D    
O22   P3    S    
O12   P2    S    
O15   P6    S    
O7    P7    S    
C37   C38   D    
Ba1   O27   S    
C6    C7    A    
C55   H2    S    
C8    N10   S    
C23   C34   S    
C51   C52   S    
C1    N20   S    
C45   H42   S    
Ba2   O27   S    
C19   N11   S    
H19   N16   S    
H52   N7    S    
Ba2   P4    S    
C54   H49   S    
C5    N1    Am   
C35   C36   D    
C42   P7    S    
O21   P3    D    
H58   N9    S    
H32   N2    S    
Ba1   O24   S    
C34   H38   S    
H48   N6    S    
C29   C30   A    
C54   O9    S    
C12   N3    S    
Ba1   O5    S    
Ba2   O4    S    
C52   N2    S    
C10   C18   A    
C13   H3    S    
H29   N20   S    
C1    N4    S    
H27   N19   S    
C27   C56   A    
C4    N7    S    
C1    C12   S    
O26   P4    S    
C12   O18   S    
C46   C47   D    
C6    C13   A    
H63   N11   S    
Ba2   O25   S    
Ba2   O5    S    
C2    C8    A    
H39   N4    S    
O8    P8    D    
C28   H11   S    
C42   C43   A    
H20   N16   S    
H21   N17   S    
H25   N18   S    
C45   O3    S    
O2    P5    D    
C42   C48   A    
C56   H5    S    
C3    N1    Am   
C20   C31   S    
C40   H15   S    
C22   H4    S    
C37   H70   S    
C27   P1    S    
H59   N9    S    
C25   C30   A    
O3    P5    S    
C29   H64   S    
C2    C3    A    
C32   H9    S    
C21   P4    S    
H68   N13   S    
C41   C48   A    
C26   C56   A    
C53   H76   S    
C53   H43   S    
H46   N5    S    
C11   C15   A    
C49   O17   S    
H28   N20   S    
C27   C29   A    
H14   N14   S    
C23   H56   S    
H47   N6    S    
C52   H30   S    
C34   H37   S    
O25   P8    S    
C4    O22   S    
H18   N15   S    
H17   N15   S    
C50   N17   S    
C28   H74   S    
Ba1   O15   S    
C15   C17   A    
O9    P8    S    
C18   N12   Am   
O28   P5    S    
C50   H23   S    
C9    N8    S    
H35   N3    S    
C8    C9    A    
O23   P4    D    
C21   C22   D    
O24   P4    S    
C51   O12   S    
H62   N11   S    
C55   H50   S    
C10   C11   A    
C49   N15   S    
C50   N16   S    
H53   N7    S    
O16   P6    D    
C43   H8    S    
C31   H66   S    
C28   O26   S    
C28   C40   S    
Ba2   O24   S    
C38   P2    S    
C2    C7    A    
H24   N18   S    
O18   P6    S    
C9    C10   A    
H69   N13   S    
C25   C26   A    
H26   N19   S    
