data_mof_unit_33836.cif
_audit_creation_date              2012-12-10T20:04:45-0500
_audit_creation_method            fapswitch 2.2
_symmetry_space_group_name_H-M    P1
_symmetry_Int_Tables_number       1
_space_group_crystal_system       triclinic
_cell_length_a                    10.69966
_cell_length_b                    18.974588
_cell_length_c                    18.700826
_cell_angle_alpha                 90.031592
_cell_angle_beta                  105.919423
_cell_angle_gamma                 91.943408
_cell_volume                      3648.7720307

loop_
_atom_site_label
_atom_site_type_symbol
_atom_type_description
_atom_site_fract_x
_atom_site_fract_y
_atom_site_fract_z
_atom_type_partial_charge
C1    C     C_R   0.498831 0.365759 0.499850 0.952481
C2    C     C_R   0.494345 0.634168 0.498866 0.925807
C3    C     C_R   0.464616 0.708127 0.493131 -0.235618
C4    C     C_R   0.475045 0.290656 0.496172 -0.207895
C5    C     C_R   0.461494 0.960795 0.432179 -0.168360
C6    C     C_R   0.321024 0.034794 0.512031 -0.239104
C7    C     C_R   0.466609 0.033787 0.432354 -0.149005
C8    C     C_R   0.316736 0.961574 0.512327 -0.189075
C9    C     C_R   0.399146 0.070670 0.473815 0.179373
C10   C     C_R   0.390071 0.925006 0.474086 0.206444
C11   C     C_R   0.509952 0.560090 0.733777 0.145677
C12   C     C_R   0.390441 0.484518 0.251621 0.143751
C13   C     C_R   0.493099 0.555346 0.806143 -0.282303
C14   C     C_R   0.398862 0.482917 0.177494 -0.352348
C15   C     C_R   0.499494 0.491051 0.842534 0.050547
C16   C     C_R   0.517189 0.492095 0.160709 0.054029
C17   C     C_R   0.503342 0.430966 0.800061 -0.419360
C18   C     C_R   0.626593 0.506906 0.219969 -0.353581
C19   C     C_R   0.489352 0.435829 0.722869 0.653739
C20   C     C_R   0.615362 0.515593 0.293040 0.645721
C21   C     C_R   0.434751 0.438502 0.954804 0.055373
C22   C     C_R   0.577823 0.545516 0.048472 0.043054
C23   C     C_R   0.258603 0.503425 0.467965 0.904470
C24   C     C_R   0.741797 0.499853 0.532295 0.918001
C25   C     C_R   0.462455 0.431177 0.033571 0.054046
C26   C     C_R   0.596391 0.535873 0.976450 0.042975
C27   C     C_R   0.522296 0.488875 0.080642 0.035442
C28   C     C_R   0.510321 0.488034 0.925223 0.039377
C29   C     C_2   0.118994 0.505507 0.447563 -0.372233
C30   C     C_2   0.881199 0.508151 0.553630 -0.418447
C31   C     C_2   0.061360 0.526757 0.498677 0.127378
C32   C     C_2   0.946775 0.484630 0.507537 0.155307
C33   C     C_R   0.367736 0.732319 0.431718 0.410239
C34   C     C_R   0.572560 0.245273 0.531502 0.414573
C35   C     C_R   0.335273 0.803384 0.429476 0.416166
C36   C     C_R   0.545412 0.172457 0.526733 0.443642
C37   C     C_R   0.407289 0.850021 0.484990 -0.132587
C38   C     C_R   0.422030 0.146411 0.483609 -0.134034
C39   C     C_R   0.504085 0.825424 0.546572 0.081657
C40   C     C_R   0.324547 0.192902 0.448085 0.081763
C41   C     C_R   0.530300 0.754058 0.550013 -0.358437
C42   C     C_R   0.351763 0.265039 0.456700 -0.347469
H1    H     H_    0.486124 0.602766 0.836798 0.141049
H2    H     H_    0.312444 0.472519 0.131896 0.154075
H3    H     H_    0.510138 0.379461 0.825545 0.165549
H4    H     H_    0.721056 0.514120 0.209808 0.155724
H5    H     H_    0.921018 0.547984 0.595960 0.130126
H6    H     H_    0.069013 0.472075 0.401087 0.134186
H7    H     H_    0.605331 0.734472 0.596010 0.186300
H8    H     H_    0.277494 0.301612 0.430933 0.162324
H9    H     H_    0.518781 0.932205 0.402969 0.132004
H10   H     H_    0.269874 0.063477 0.544746 0.138224
H11   H     H_    0.527165 0.061609 0.402929 0.140681
H12   H     H_    0.262171 0.933600 0.545076 0.127601
N1    N     N_R   0.500020 0.499980 0.689440 -0.141174
N2    N     N_R   0.499980 0.500020 0.310560 -0.141123
O1    O     O_R   0.500000 0.398180 0.560840 -0.542231
O2    O     O_R   0.500000 0.601820 0.439160 -0.582198
O3    O     O_R   0.499950 0.398180 0.439200 -0.646505
O4    O     O_R   0.500050 0.601820 0.560800 -0.651604
O5    O     O_R   0.317830 0.500010 0.538110 -0.624989
O6    O     O_R   0.682170 0.499990 0.461890 -0.542192
O7    O     O_R   0.317770 0.500000 0.416470 -0.615765
O8    O     O_R   0.682230 0.500000 0.583530 -0.627771
Zn1   Zn    Zn3+2 0.500040 0.500000 0.581220 0.940294
Zn2   Zn    Zn3+2 0.499960 0.500000 0.418780 0.961366
C43   C     C_3   0.906415 0.412843 0.468355 -0.334484
C44   C     C_3   0.007819 0.357450 0.500292 -0.397936
C45   C     C_3   0.963009 0.284844 0.465971 -0.851582
H13   H     H_    0.869460 0.267833 0.476581 0.307090
H14   H     H_    0.950371 0.286107 0.405019 0.247536
H15   H     H_    0.036959 0.245867 0.491353 0.245054
H16   H     H_    0.102521 0.371916 0.489809 0.213910
H17   H     H_    0.023157 0.354246 0.561458 0.231537
H18   H     H_    0.813110 0.391799 0.476392 0.222957
H19   H     H_    0.889255 0.417753 0.407318 0.205424
C46   C     C_3   0.115983 0.592328 0.547011 -0.360551
C47   C     C_3   0.032082 0.656415 0.521080 -0.360077
C48   C     C_3   0.089334 0.721981 0.567463 -0.928060
H20   H     H_    0.094630 0.713020 0.626901 0.265630
H21   H     H_    0.188336 0.735325 0.562142 0.263209
H22   H     H_    0.026532 0.767311 0.547456 0.247021
H23   H     H_    0.027945 0.667127 0.462113 0.224209
H24   H     H_    0.931299 0.646393 0.524741 0.219125
H25   H     H_    0.126457 0.581015 0.606585 0.184218
H26   H     H_    0.214759 0.608492 0.543504 0.221923
O9    O     O_3   0.470591 0.373888 0.682733 -0.606534
C49   C     C_3   0.337164 0.354145 0.664428 -0.340360
H27   H     H_    0.275639 0.396397 0.633311 0.175316
H28   H     H_    0.306483 0.339880 0.714953 0.144866
H29   H     H_    0.320267 0.306826 0.627676 0.191163
O10   O     O_3   0.723952 0.539940 0.346599 -0.592206
C50   C     C_3   0.734919 0.613761 0.340191 -0.329612
H30   H     H_    0.814949 0.634191 0.387288 0.181557
H31   H     H_    0.644959 0.639766 0.343373 0.160234
H32   H     H_    0.759625 0.628521 0.288015 0.145146
C51   C     C_3   0.318055 0.397348 0.904908 -0.428372
C52   C     C_3   0.190222 0.423855 0.915396 -0.338753
C53   C     C_3   0.073579 0.379885 0.869404 -0.914638
H33   H     H_    0.067067 0.383907 0.809232 0.260226
H34   H     H_    0.082556 0.323713 0.886125 0.261947
H35   H     H_    0.982584 0.399309 0.878756 0.252240
H36   H     H_    0.189985 0.421994 0.974681 0.217881
H37   H     H_    0.179972 0.479655 0.897373 0.220562
H38   H     H_    0.310007 0.403311 0.845210 0.211543
H39   H     H_    0.325986 0.340054 0.916119 0.203236
C54   C     C_3   0.606431 0.617814 0.086948 -0.418619
C55   C     C_3   0.481877 0.651618 0.094449 -0.323897
C56   C     C_3   0.512988 0.721494 0.137158 -0.921793
H40   H     H_    0.575581 0.712830 0.194362 0.253980
H41   H     H_    0.563523 0.759143 0.108087 0.265446
H42   H     H_    0.421342 0.744871 0.141131 0.248784
H43   H     H_    0.416609 0.661191 0.038095 0.215735
H44   H     H_    0.428128 0.616807 0.124092 0.232501
H45   H     H_    0.678704 0.614046 0.141796 0.198426
H46   H     H_    0.648903 0.655944 0.054545 0.192874
C57   C     C_3   0.434040 0.360659 0.066252 -0.422924
C58   C     C_3   0.526634 0.304870 0.053608 -0.341342
C59   C     C_3   0.497323 0.233441 0.084038 -0.894850
H47   H     H_    0.508554 0.237494 0.144761 0.262236
H48   H     H_    0.396596 0.214556 0.055370 0.260307
H49   H     H_    0.566127 0.194376 0.074446 0.250121
H50   H     H_    0.518451 0.298671 0.993434 0.216134
H51   H     H_    0.628574 0.321992 0.082189 0.223929
H52   H     H_    0.448088 0.363941 0.127034 0.218584
H53   H     H_    0.331483 0.342582 0.042037 0.204040
C60   C     C_3   0.712197 0.573669 0.957865 -0.416683
C61   C     C_3   0.800256 0.523191 0.931491 -0.318541
C62   C     C_3   0.923424 0.562100 0.924319 -0.931013
H54   H     H_    0.898316 0.608360 0.887519 0.273108
H55   H     H_    0.984643 0.580051 0.979823 0.259016
H56   H     H_    0.980089 0.526390 0.899516 0.255233
H57   H     H_    0.828012 0.479619 0.971877 0.216898
H58   H     H_    0.749954 0.499906 0.876413 0.236153
H59   H     H_    0.680030 0.615850 0.916724 0.197080
H60   H     H_    0.776394 0.599776 0.008363 0.199852
O11   O     O_3   0.297290 0.684978 0.378032 -0.605173
C63   C     C_3   0.335356 0.694330 0.311992 -0.232109
H61   H     H_    0.442919 0.698948 0.322491 0.130015
H62   H     H_    0.289693 0.741047 0.281170 0.195852
H63   H     H_    0.300866 0.647402 0.275622 0.166582
O12   O     O_3   0.697763 0.272056 0.562605 -0.618550
C64   C     C_3   0.723083 0.276780 0.640626 -0.258951
H64   H     H_    0.634681 0.282974 0.660296 0.184261
H65   H     H_    0.788201 0.323675 0.660510 0.180747
H66   H     H_    0.775442 0.229773 0.666582 0.182468
O13   O     O_3   0.238924 0.828524 0.370627 -0.604826
C65   C     C_3   0.118197 0.817364 0.386236 -0.292844
H67   H     H_    0.117045 0.843047 0.439607 0.149003
H68   H     H_    0.092762 0.760147 0.387116 0.187314
H69   H     H_    0.041752 0.841353 0.341341 0.183803
O14   O     O_3   0.644233 0.127300 0.558043 -0.578571
C66   C     C_3   0.626980 0.101245 0.625569 -0.346450
H70   H     H_    0.555305 0.056307 0.615176 0.181575
H71   H     H_    0.597070 0.142337 0.659566 0.135304
H72   H     H_    0.720945 0.081205 0.659211 0.190637
C67   C     C_3   0.582445 0.873273 0.608836 -0.380092
C68   C     C_3   0.529141 0.867387 0.676860 -0.343750
C69   C     C_3   0.610885 0.912463 0.741516 -0.907472
H73   H     H_    0.712732 0.894896 0.758204 0.263518
H74   H     H_    0.610115 0.968844 0.725576 0.254902
H75   H     H_    0.570000 0.907061 0.789848 0.251163
H76   H     H_    0.427324 0.885066 0.662076 0.219960
H77   H     H_    0.529133 0.811590 0.695000 0.222695
H78   H     H_    0.685862 0.858057 0.624150 0.194746
H79   H     H_    0.582237 0.929092 0.591280 0.209652
C70   C     C_3   0.194926 0.167622 0.396898 -0.384912
C71   C     C_3   0.208070 0.149142 0.319534 -0.328099
C72   C     C_3   0.076723 0.126704 0.266811 -0.884679
H80   H     H_    0.035722 0.079377 0.288482 0.267957
H81   H     H_    0.007645 0.170203 0.260350 0.257737
H82   H     H_    0.089205 0.113596 0.211363 0.250096
H83   H     H_    0.247805 0.195885 0.296057 0.223242
H84   H     H_    0.275932 0.105461 0.323293 0.230237
H85   H     H_    0.154391 0.121741 0.420980 0.205026
H86   H     H_    0.123273 0.209694 0.390633 0.196084
C73   C     C_3   0.559331 0.631667 0.715322 -0.365252
C74   C     C_3   0.702252 0.629165 0.712573 -0.279043
C75   C     C_3   0.781290 0.696224 0.744487 -0.974324
H87   H     H_    0.736848 0.743569 0.714720 0.266892
H88   H     H_    0.786706 0.702250 0.804344 0.265639
H89   H     H_    0.881647 0.692856 0.738967 0.256566
H90   H     H_    0.751015 0.584006 0.745407 0.221470
H91   H     H_    0.707130 0.621717 0.654718 0.238270
H92   H     H_    0.492662 0.654750 0.666087 0.206070
H93   H     H_    0.555823 0.670563 0.759235 0.173303
C76   C     C_3   0.255939 0.467946 0.260159 -0.360070
C77   C     C_3   0.242994 0.391831 0.285801 -0.300631
C78   C     C_3   0.100947 0.366848 0.271250 -0.949836
H94   H     H_    0.046996 0.403470 0.297009 0.264871
H95   H     H_    0.053595 0.363620 0.210486 0.265372
H96   H     H_    0.095839 0.313636 0.295172 0.254993
H97   H     H_    0.291255 0.355593 0.255766 0.211403
H98   H     H_    0.290916 0.387829 0.345686 0.253683
H99   H     H_    0.225934 0.508270 0.293828 0.223109
H100  H     H_    0.182455 0.473174 0.205447 0.171924

loop_
_geom_bond_atom_site_label_1
_geom_bond_atom_site_label_2
_ccdc_geom_bond_type
C64   H66   S    
C38   C40   A    
O9    C49   S    
C50   H30   S    
C76   H100  S    
C45   H15   S    
C72   H80   S    
O13   C65   S    
C65   H69   S    
C20   N2    A    
C61   C62   S    
C6    C9    A    
C74   C75   S    
C39   C41   A    
C46   C47   S    
C71   H84   S    
C20   O10   S    
C67   C68   S    
C10   C37   S    
C23   C29   S    
C70   H85   S    
C35   C37   A    
C60   H59   S    
C46   H26   S    
C61   H58   S    
C1    O3    A    
O3    Zn2   S    
C2    O4    A    
C23   O7    A    
C3    C33   A    
C44   H17   S    
C52   H36   S    
C51   C52   S    
C73   H92   S    
C55   C56   S    
C7    C9    A    
C55   H44   S    
C45   H14   S    
C58   C59   S    
O10   C50   S    
C40   C70   S    
C17   C19   A    
C47   H23   S    
O2    Zn2   S    
C3    C41   A    
C53   H33   S    
C33   O11   S    
C44   C45   S    
C54   C55   S    
C69   H74   S    
C11   C73   S    
C66   H71   S    
C57   H53   S    
C18   C20   A    
C74   H90   S    
C68   H77   S    
C26   C60   S    
C75   H89   S    
C51   H38   S    
C16   C27   S    
C40   C42   A    
O7    Zn2   S    
C77   H98   S    
C50   H31   S    
C39   C67   S    
C72   H81   S    
C22   C54   S    
C78   H94   S    
N2    Zn2   S    
C61   H57   S    
C18   H4    S    
C41   H7    S    
N1    Zn1   S    
C31   C46   S    
C59   H48   S    
C71   H83   S    
C4    C34   A    
O6    Zn2   S    
C29   H6    S    
C43   C44   S    
C30   H5    S    
C60   H60   S    
C56   H42   S    
C8    H12   S    
C70   C71   S    
C5    C7    A    
C47   C48   S    
C36   O14   S    
C35   O13   S    
C44   H16   S    
C12   C76   S    
C47   H24   S    
C73   H93   S    
C48   H20   S    
C77   C78   S    
C55   H43   S    
C78   H96   S    
C1    O1    A    
C21   C51   S    
C69   H73   S    
C49   H29   S    
C23   O5    A    
C29   C31   D    
O1    Zn1   S    
C69   H75   S    
C58   H51   S    
C65   H67   S    
C66   H72   S    
C54   H45   S    
C12   N2    A    
C63   H62   S    
C68   H76   S    
C42   H8    S    
C32   C43   S    
C51   H39   S    
C65   H68   S    
C8    C10   A    
C71   C72   S    
C53   H34   S    
C21   C28   A    
C49   H28   S    
O4    Zn1   S    
C52   C53   S    
C50   H32   S    
C22   C27   A    
C13   C15   A    
C68   C69   S    
C72   H82   S    
C14   C16   A    
C43   H18   S    
C7    H11   S    
C67   H78   S    
C60   C61   S    
C13   H1    S    
C11   N1    A    
C14   H2    S    
C62   H54   S    
C59   H49   S    
C19   N1    A    
C64   H65   S    
C21   C25   A    
C34   O12   S    
C24   O6    A    
C76   H99   S    
C26   C28   A    
C31   C32   S    
C17   H3    S    
C63   H63   S    
C25   C57   S    
C67   H79   S    
C77   H97   S    
C48   H22   S    
C6    C8    A    
C59   H47   S    
C2    O2    A    
C15   C17   A    
C43   H19   S    
C25   C27   A    
O11   C63   S    
C48   H21   S    
C1    C4    S    
C6    H10   S    
O8    Zn1   S    
C62   H56   S    
C56   H41   S    
C2    C3    S    
C12   C14   A    
C19   O9    S    
C5    C10   A    
C37   C39   A    
C57   C58   S    
C30   C32   D    
C11   C13   A    
C15   C28   S    
C4    C42   A    
C52   H37   S    
C36   C38   A    
C9    C38   S    
C33   C35   A    
C24   O8    A    
C34   C36   A    
C58   H50   S    
C45   H13   S    
C24   C30   S    
C54   H46   S    
C63   H61   S    
C46   H25   S    
C75   H87   S    
O5    Zn1   S    
C76   C77   S    
C53   H35   S    
C49   H27   S    
C16   C18   A    
C73   C74   S    
C22   C26   A    
O12   C64   S    
C5    H9    S    
C75   H88   S    
O14   C66   S    
C78   H95   S    
C66   H70   S    
C56   H40   S    
C57   H52   S    
C74   H91   S    
C64   H64   S    
C70   H86   S    
C62   H55   S    
