data_mof_unit_22704.cif
_audit_creation_date              2012-12-10T16:51:16-0500
_audit_creation_method            fapswitch 2.2
_symmetry_space_group_name_H-M    P1
_symmetry_Int_Tables_number       1
_space_group_crystal_system       triclinic
_cell_length_a                    27.787807
_cell_length_b                    8.687552
_cell_length_c                    7.417878
_cell_angle_alpha                 101.925418
_cell_angle_beta                  94.115075
_cell_angle_gamma                 91.824108
_cell_volume                      1745.57091821

loop_
_atom_site_label
_atom_site_type_symbol
_atom_type_description
_atom_site_fract_x
_atom_site_fract_y
_atom_site_fract_z
_atom_type_partial_charge
C1    C     C_R   0.496885 0.200819 0.455848 0.852174
C2    C     C_R   0.503245 0.799167 0.544020 0.864154
C3    C     C_R   0.102138 0.465106 0.513471 -0.118590
C4    C     C_R   0.897665 0.469629 0.468628 -0.112782
C5    C     C_R   0.125900 0.328835 0.439571 -0.072725
C6    C     C_R   0.874964 0.611155 0.530871 -0.055344
C7    C     C_R   0.099142 0.189113 0.366791 -0.268009
C8    C     C_R   0.902403 0.752776 0.577523 -0.222710
C9    C     C_R   0.129904 0.601766 0.606352 -0.105743
C10   C     C_R   0.868973 0.329993 0.400134 -0.122041
C11   C     C_R   0.354500 0.494545 0.509039 -0.106551
C12   C     C_R   0.645617 0.492962 0.491808 -0.104748
C13   C     C_R   0.971458 0.326444 0.399994 -0.001354
C14   C     C_R   0.027676 0.603843 0.569886 0.020764
C15   C     C_R   0.976779 0.610445 0.543209 -0.014882
C16   C     C_R   0.023138 0.322135 0.415576 -0.015251
C17   C     C_R   0.948847 0.468506 0.471880 -0.004605
C18   C     C_R   0.050787 0.463849 0.497486 -0.002510
C19   C     C_R   0.941101 0.196766 0.305104 -0.211544
C20   C     C_R   0.055970 0.730274 0.681199 -0.227451
C21   C     C_R   0.891012 0.195453 0.308931 0.464908
C22   C     C_R   0.106234 0.734051 0.694018 0.468948
C23   C     C_R   0.407468 0.499915 0.502615 0.871086
C24   C     C_R   0.592597 0.499505 0.497203 0.861073
C25   C     C_R   0.048544 0.181097 0.360916 0.459906
C26   C     C_R   0.952937 0.755583 0.580054 0.468985
C27   C     C_2   0.487106 0.036998 0.442304 -0.197966
C28   C     C_2   0.513118 0.962879 0.556807 -0.188387
C29   C     C_R   0.176512 0.332951 0.447591 0.628461
C30   C     C_R   0.824615 0.609384 0.535190 0.641166
C31   C     C_R   0.180706 0.600075 0.611710 0.622549
C32   C     C_R   0.818771 0.332145 0.417235 0.606037
C33   C     C_R   0.273494 0.519478 0.376735 -0.270082
C34   C     C_R   0.717754 0.453533 0.325104 -0.230669
C35   C     C_R   0.323726 0.534135 0.367061 0.466527
C36   C     C_R   0.667593 0.463513 0.323031 0.456273
C37   C     C_R   0.334660 0.447140 0.659200 -0.392433
C38   C     C_R   0.674681 0.511350 0.658908 -0.361275
C39   C     C_R   0.284650 0.434829 0.669621 0.042845
C40   C     C_R   0.724833 0.500566 0.660821 0.047289
C41   C     C_R   0.254022 0.472907 0.526683 0.294537
C42   C     C_R   0.746440 0.471579 0.491345 0.284409
Cu1   Cu    Cu3+1 0.505380 0.517380 0.684380 0.980823
Cu2   Cu    Cu3+1 0.494620 0.482620 0.315620 1.009226
H1    H     H_    0.358373 0.416549 0.767699 0.184901
H2    H     H_    0.658264 0.533670 0.789430 0.203575
H3    H     H_    0.462591 0.379069 0.948863 0.222868
H4    H     H_    0.537440 0.620822 0.051121 0.239587
H5    H     H_    0.117958 0.082110 0.324774 0.194269
H6    H     H_    0.884206 0.862432 0.604447 0.195283
H7    H     H_    0.734906 0.434327 0.196637 0.150686
H8    H     H_    0.248859 0.543020 0.267051 0.165353
H9    H     H_    0.954404 0.095489 0.218084 0.208726
H10   H     H_    0.039667 0.825440 0.768554 0.176029
N1    N     N_R   0.202571 0.467593 0.531109 -0.438214
N2    N     N_R   0.797908 0.470427 0.484781 -0.438483
N3    N     N_2   0.486510 0.456430 0.038510 -0.208445
N4    N     N_2   0.513490 0.543570 0.961490 -0.206869
O1    O     O_R   0.503500 0.286120 0.619780 -0.567598
O2    O     O_R   0.496500 0.713880 0.380220 -0.556271
O3    O     O_R   0.494410 0.256780 0.308360 -0.614077
O4    O     O_R   0.505590 0.743220 0.691640 -0.606935
O5    O     O_R   0.434810 0.514700 0.655690 -0.602768
O6    O     O_R   0.565190 0.485300 0.344310 -0.552391
O7    O     O_R   0.425720 0.485350 0.344280 -0.525254
O8    O     O_R   0.574280 0.514650 0.655720 -0.580445
O9    O     O_2   0.199628 0.203719 0.372395 -0.529549
O10   O     O_2   0.802415 0.745215 0.590247 -0.537981
O11   O     O_2   0.790929 0.197751 0.368588 -0.475929
O12   O     O_2   0.208275 0.729488 0.694545 -0.488684
C43   C     C_2   0.266335 0.379096 0.829495 0.392410
H11   H     H_    0.291725 0.346328 0.931663 0.101427
O13   O     O_2   0.223277 0.369005 0.850518 -0.555614
C44   C     C_2   0.753053 0.521817 0.842206 0.397023
H12   H     H_    0.736984 0.578762 0.966264 0.080833
O14   O     O_2   0.793753 0.474400 0.856389 -0.560079
O15   O     O_3   0.640744 0.459431 0.157691 -0.594651
C45   C     C_3   0.637027 0.303612 0.054053 -0.257947
H13   H     H_    0.623082 0.219555 0.135062 0.167931
H14   H     H_    0.672168 0.266805 0.000699 0.168141
H15   H     H_    0.610765 0.299274 0.933455 0.231605
O16   O     O_3   0.343588 0.575909 0.215859 -0.576455
C46   C     C_3   0.321593 0.707646 0.167161 -0.195364
H16   H     H_    0.315432 0.800403 0.290451 0.186346
H17   H     H_    0.287325 0.671597 0.080170 0.160474
H18   H     H_    0.346070 0.760512 0.082324 0.203857
O17   O     O_3   0.864202 0.059931 0.222805 -0.537399
C47   C     C_3   0.852080 0.068200 0.037149 -0.181775
H19   H     H_    0.828700 0.168325 0.027592 0.186074
H20   H     H_    0.831497 0.958084 0.966836 0.220745
H21   H     H_    0.884821 0.077965 0.961987 0.104654
O18   O     O_3   0.131747 0.860081 0.810391 -0.554715
C48   C     C_3   0.129808 0.992506 0.727974 -0.181274
H22   H     H_    0.144792 0.967418 0.590298 0.179136
H23   H     H_    0.152465 0.090345 0.817172 0.225595
H24   H     H_    0.092436 0.033589 0.716041 0.146470
O19   O     O_3   0.025013 0.033882 0.334399 -0.546478
C49   C     C_3   0.037124 0.933271 0.170124 -0.307872
H25   H     H_    0.043678 0.997865 0.058450 0.140984
H26   H     H_    0.068933 0.865381 0.198912 0.192589
H27   H     H_    0.006449 0.846821 0.118464 0.189985
O20   O     O_3   0.978618 0.896287 0.582404 -0.530412
C50   C     C_3   0.966348 0.019164 0.726107 -0.328372
H28   H     H_    0.960113 0.977519 0.855156 0.122925
H29   H     H_    0.934601 0.079624 0.679809 0.186667
H30   H     H_    0.996999 0.107962 0.759558 0.191719
C51   C     C_2   0.441908 0.970145 0.328310 0.335039
H31   H     H_    0.430915 0.013049 0.204897 0.078856
O21   O     O_2   0.415136 0.875113 0.377176 -0.537202
C52   C     C_2   0.558712 0.029314 0.668064 0.318299
H32   H     H_    0.569473 0.989687 0.793897 0.077551
O22   O     O_2   0.586060 0.119811 0.614043 -0.557602

loop_
_geom_bond_atom_site_label_1
_geom_bond_atom_site_label_2
_ccdc_geom_bond_type
O17   C47   S    
C21   O17   S    
C48   H22   S    
C8    C26   A    
C14   C18   A    
C34   C42   A    
O19   C49   S    
Cu1   O5    S    
C39   C41   A    
O15   C45   S    
Cu2   O6    S    
C33   H8    S    
C34   H7    S    
C44   O14   D    
C19   C21   A    
C36   O15   S    
C1    O1    A    
C2    O2    A    
C9    C22   A    
C3    C18   A    
C11   C23   S    
C11   C37   A    
C52   H32   S    
C41   N1    S    
Cu1   N4    S    
C42   N2    S    
C29   O9    S    
C31   O12   S    
C51   H31   S    
C12   C36   A    
Cu1   O1    S    
C19   H9    S    
C23   O5    A    
C48   H23   S    
C51   O21   D    
Cu2   O7    S    
C35   O16   S    
C5    C29   A    
C10   C21   A    
C44   H12   S    
C13   C19   A    
C14   C20   A    
C7    H5    S    
C20   H10   S    
C5    C7    A    
C45   H13   S    
C15   C26   A    
C6    C8    A    
C29   N1    A    
C28   C52   S    
C30   N2    A    
Cu1   Cu2   S    
C3    C9    A    
H3    N3    S    
C46   H16   S    
C47   H21   S    
C27   C51   S    
Cu2   N3    S    
C45   H14   S    
C50   H29   S    
C16   C18   A    
C4    C17   A    
C25   O19   S    
C6    C30   A    
C47   H20   S    
O16   C46   S    
C48   H24   S    
C49   H26   S    
C4    C6    A    
C37   H1    S    
C8    H6    S    
C50   H28   S    
C43   O13   D    
C16   C25   A    
C15   C17   A    
C22   O18   S    
C46   H17   S    
C20   C22   A    
C3    C5    A    
C1    O3    A    
H4    N4    S    
C32   O11   S    
C24   O8    A    
Cu2   O3    S    
C49   H27   S    
C12   C24   S    
C7    C25   A    
C13   C17   A    
C33   C41   A    
C23   O7    A    
C11   C35   A    
C43   H11   S    
C37   C39   A    
C26   O20   S    
C38   C40   A    
C45   H15   S    
N3    N4    D    
Cu2   O2    S    
Cu1   O8    S    
C40   C42   A    
O18   C48   S    
C33   C35   A    
C40   C44   S    
C50   H30   S    
C34   C36   A    
C12   C38   A    
O20   C50   S    
C52   O22   D    
C38   H2    S    
C9    C31   A    
C10   C32   A    
C46   H18   S    
C47   H19   S    
C24   O6    A    
C49   H25   S    
C13   C16   A    
C27   C28   D    
C1    C27   S    
C39   C43   S    
C14   C15   A    
C2    C28   S    
C31   N1    A    
C4    C10   A    
C32   N2    A    
C30   O10   S    
C2    O4    A    
Cu1   O4    S    
