data_mof_unit_9598.cif
_audit_creation_date              2013-03-05T15:54:04-0500
_audit_creation_method            fapswitch 2.2
_symmetry_space_group_name_H-M    P1
_symmetry_Int_Tables_number       1
_space_group_crystal_system       triclinic
_cell_length_a                    16.629062
_cell_length_b                    7.079997
_cell_length_c                    15.187668
_cell_angle_alpha                 89.873351
_cell_angle_beta                  94.963657
_cell_angle_gamma                 89.826566
_cell_volume                      1781.38107073

loop_
_atom_site_label
_atom_site_type_symbol
_atom_site_description
_atom_site_fract_x
_atom_site_fract_y
_atom_site_fract_z
_atom_type_partial_charge
O1    O     O_R   0.578230 0.505720 0.424270 -0.588085
O2    O     O_R   0.421770 0.005720 0.575730 -0.587295
O3    O     O_R   0.412470 0.173950 0.404530 -0.581051
O4    O     O_R   0.587530 0.673950 0.595470 -0.612717
C1    C     C_R   0.385450 0.345520 0.380971 0.920887
C2    C     C_R   0.614111 0.844492 0.619831 0.901755
O5    O     O_R   0.577030 0.175880 0.413670 -0.569694
O6    O     O_R   0.422970 0.675880 0.586330 -0.577095
O7    O     O_R   0.587510 0.007580 0.584940 -0.597168
O8    O     O_R   0.412490 0.507580 0.415060 -0.599883
C3    C     C_R   0.603423 0.344704 0.393184 0.999261
C4    C     C_R   0.396639 0.844808 0.606895 0.987496
O9    O     O_3   0.503240 0.339850 0.556180 -0.282096
O10   O     O_3   0.496760 0.839850 0.443820 -0.265300
V1    V     V_3+5 0.499400 0.064230 0.489580 1.198210
V2    V     V_3+5 0.500600 0.564230 0.510420 1.182407
C5    C     C_1   0.334195 0.855145 0.669145 -0.253712
C6    C     C_1   0.665876 0.354916 0.330932 -0.247049
C7    C     C_1   0.281600 0.865826 0.720518 0.079577
C8    C     C_1   0.718455 0.365720 0.279547 0.078074
C9    C     C_1   0.219402 0.879212 0.780679 0.069999
C10   C     C_1   0.780623 0.379342 0.219358 0.069817
C11   C     C_1   0.166630 0.889880 0.831836 -0.308796
C12   C     C_1   0.833369 0.390134 0.168174 -0.309417
C13   C     C_3   0.734374 0.778511 0.856574 -0.228950
C14   C     C_3   0.266597 0.271307 0.145715 -0.263080
H1    H     H_    0.707968 0.869252 0.905986 0.169514
H2    H     H_    0.292059 0.357090 0.093740 0.173563
C15   C     C_3   0.665972 0.734209 0.779656 0.308928
C16   C     C_3   0.335908 0.237095 0.223462 0.339807
H3    H     H_    0.852716 0.644561 0.749613 0.163263
H4    H     H_    0.145441 0.149372 0.253317 0.159478
H5    H     H_    0.757480 0.645417 0.628463 0.151979
H6    H     H_    0.243231 0.146158 0.370665 0.157009
C17   C     C_3   0.832145 0.791415 0.734482 -0.375837
C18   C     C_3   0.167692 0.295212 0.266379 -0.367682
C19   C     C_3   0.770846 0.089278 0.792099 -0.143719
C20   C     C_3   0.229449 0.588265 0.205803 -0.139765
C21   C     C_3   0.806193 0.890332 0.819735 0.012200
C22   C     C_3   0.194218 0.388308 0.180087 0.011878
H7    H     H_    0.819148 0.171792 0.763298 0.144383
H8    H     H_    0.181009 0.672223 0.233795 0.145730
C23   C     C_3   0.682948 0.855299 0.693783 -0.053651
C24   C     C_3   0.317030 0.358720 0.306954 -0.048320
C25   C     C_3   0.763090 0.787652 0.658983 -0.446995
C26   C     C_3   0.237011 0.289987 0.341444 -0.451738
C27   C     C_3   0.699446 0.067228 0.719434 -0.339595
C28   C     C_3   0.300692 0.569175 0.279064 -0.359478
H9    H     H_    0.643572 0.136140 0.738213 0.203969
H10   H     H_    0.356780 0.634732 0.259089 0.203069
H11   H     H_    0.715048 0.147868 0.660190 0.136573
H12   H     H_    0.285041 0.652333 0.337415 0.145670
H13   H     H_    0.884702 0.867012 0.710574 0.140278
H14   H     H_    0.116072 0.375897 0.289698 0.141116
H15   H     H_    0.779204 0.882211 0.604548 0.165307
H16   H     H_    0.220896 0.382863 0.396363 0.163335
O11   O     O_R   0.087480 0.241090 0.084980 -0.600980
O12   O     O_R   0.912520 0.741090 0.915020 -0.585862
O13   O     O_R   0.922960 0.569060 0.086330 -0.578854
O14   O     O_R   0.077040 0.069060 0.913670 -0.587485
C29   C     C_R   0.896136 0.400294 0.106299 0.970901
C30   C     C_R   0.103841 0.900175 0.893671 0.955243
O15   O     O_R   0.087520 0.570920 0.095480 -0.600995
O16   O     O_R   0.912480 0.070920 0.904520 -0.604623
O17   O     O_R   0.078240 0.739160 0.924260 -0.583242
O18   O     O_R   0.921760 0.239160 0.075740 -0.582932
C31   C     C_R   0.119429 0.401997 0.113252 0.865291
C32   C     C_R   0.880973 0.902779 0.886281 0.888957
O19   O     O_3   0.996740 0.404980 0.943840 -0.278755
O20   O     O_3   0.003260 0.904980 0.056160 -0.280265
V3    V     V_3+5 0.000600 0.680640 0.010420 1.143307
V4    V     V_3+5 0.999400 0.180640 0.989580 1.135894
N1    N     N_3   0.762207 0.611655 0.907932 -0.207904
H17   H     H_    0.795466 0.523235 0.869934 0.145131
H18   H     H_    0.712473 0.539217 0.928730 0.149882
N2    N     N_3   0.241611 0.094400 0.101238 -0.216510
H19   H     H_    0.196575 0.028093 0.133572 0.146096
H20   H     H_    0.218733 0.122693 0.036205 0.132312
N3    N     N_R   0.585927 0.783260 0.809440 0.222130
O21   O     O_R   0.570183 0.952766 0.836060 -0.424325
O22   O     O_R   0.530591 0.654658 0.814085 -0.378764
N4    N     N_R   0.415795 0.290977 0.194815 0.221267
O23   O     O_R   0.426278 0.448974 0.153587 -0.423580
O24   O     O_R   0.478735 0.184119 0.214475 -0.391333
N5    N     N_3   0.666817 0.528922 0.761423 -0.212612
H21   H     H_    0.618638 0.485780 0.717829 0.169124
H22   H     H_    0.720424 0.483161 0.737691 0.079876
N6    N     N_3   0.340099 0.035517 0.248937 -0.190081
H23   H     H_    0.362148 0.956874 0.197976 0.160051
H24   H     H_    0.283182 0.982047 0.258740 0.084122
N7    N     N_3   0.744692 0.199182 0.867039 -0.232918
H25   H     H_    0.779986 0.172608 0.925883 0.115375
H26   H     H_    0.685111 0.171470 0.879364 0.181627
N8    N     N_3   0.255231 0.695847 0.129855 -0.231604
H27   H     H_    0.218508 0.672010 0.071863 0.120240
H28   H     H_    0.313827 0.662336 0.115971 0.180438

loop_
_geom_bond_atom_site_label_1
_geom_bond_atom_site_label_2
_geom_bond_distance
_ccdc_geom_bond_type
C3    C6    1.465515 S    
O4    V2    2.012396 S    
C12   C29   1.465469 S    
C17   H13   1.113123 S    
H5    C25   1.110318 S    
N1    H17   1.041896 S    
O1    C3    1.315947 A    
O2    C4    1.315796 A    
C2    O7    1.327911 A    
C27   H9    1.107428 S    
N5    H21   1.041215 S    
O5    C3    1.320331 A    
O16   C32   1.322309 A    
C10   C12   1.223766 T    
C7    C9    1.441155 S    
C13   N1    1.465719 S    
N2    H20   1.045975 S    
C20   H8    1.113746 S    
O12   V3    2.013461 S    
O14   V4    1.968647 S    
O14   C30   1.319996 A    
C21   C32   1.535955 S    
O19   V3    2.198615 S    
C29   O18   1.316082 A    
C11   C30   1.465260 S    
O18   V4    1.960209 S    
C22   C31   1.538458 S    
C4    C5    1.465331 S    
C14   N2    1.468335 S    
C18   C26   1.549836 S    
O20   V3    1.734160 S    
H6    C26   1.110866 S    
C19   C27   1.557939 S    
C20   C28   1.558865 S    
O5    V1    1.969818 S    
O6    V2    1.968727 S    
C15   C23   1.604958 S    
N1    H18   1.045866 S    
C16   C24   1.587474 S    
O11   C31   1.315605 A    
C24   C26   1.550881 S    
N5    H22   1.041106 S    
C13   C15   1.590823 S    
O15   C31   1.324658 A    
O13   C29   1.320484 A    
C19   N7    1.475661 S    
C18   C22   1.563514 S    
N2    H19   1.042678 S    
O4    C2    1.329316 A    
N7    H25   1.042289 S    
N3    O22   1.302585 A    
C27   H11   1.114405 S    
O17   V3    1.960640 S    
C16   N4    1.483902 S    
O19   V4    1.731099 S    
C17   C21   1.565896 S    
N7    H26   1.043220 S    
C15   N3    1.482925 S    
O6    C4    1.319793 A    
C20   N8    1.475855 S    
O1    V2    1.959967 S    
N8    H28   1.041432 S    
O2    V1    1.960394 S    
C23   C25   1.550467 S    
O15   V3    2.006782 S    
O12   C32   1.315567 A    
C1    C24   1.531165 S    
N6    H24   1.042882 S    
C14   C16   1.594659 S    
N4    O24   1.302718 A    
C2    C23   1.534962 S    
C9    C11   1.223649 T    
H3    C17   1.110879 S    
C16   N6    1.477717 S    
C17   C25   1.551335 S    
H4    C18   1.110378 S    
O3    V1    2.006804 S    
C30   O17   1.315849 A    
C15   N5    1.480435 S    
C8    C10   1.441328 S    
O3    C1    1.331314 A    
C13   H1    1.107325 S    
C14   H2    1.108388 S    
O7    V1    2.007950 S    
C1    O8    1.323703 A    
C19   C21   1.566945 S    
O8    V2    2.010997 S    
C13   C21   1.576563 S    
C20   C22   1.570936 S    
C14   C22   1.584908 S    
C28   H10   1.108304 S    
C5    C7    1.223664 T    
C6    C8    1.223762 T    
O16   V4    2.012372 S    
O11   V4    2.016704 S    
C19   H7    1.113680 S    
N8    H27   1.041803 S    
C18   H14   1.113161 S    
N3    O21   1.300305 A    
C28   H12   1.114030 S    
N6    H23   1.045583 S    
C25   H15   1.113767 S    
N4    O23   1.300286 A    
O9    V2    1.731483 S    
C26   H16   1.113525 S    
O10   V1    1.734543 S    
O20   V4    2.194298 S    
C23   C27   1.570027 S    
C24   C28   1.564690 S    
O13   V3    1.969735 S    
