data_mof_unit_14868.cif
_audit_creation_date              2012-12-10T20:48:18-0500
_audit_creation_method            fapswitch 2.2
_symmetry_space_group_name_H-M    P1
_symmetry_Int_Tables_number       1
_space_group_crystal_system       triclinic
_cell_length_a                    10.685139
_cell_length_b                    8.915227
_cell_length_c                    8.103224
_cell_angle_alpha                 89.993789
_cell_angle_beta                  90.035098
_cell_angle_gamma                 89.97378
_cell_volume                      771.916451104

loop_
_atom_site_label
_atom_site_type_symbol
_atom_type_description
_atom_site_fract_x
_atom_site_fract_y
_atom_site_fract_z
_atom_type_partial_charge
C1    C     C_R   0.499914 0.217997 0.500008 0.901591
C2    C     C_1   0.500110 0.934757 0.500000 -0.202082
C3    C     C_3   0.071681 0.656063 0.503572 0.097943
C4    C     C_3   0.923839 0.652221 0.480357 0.164608
C5    C     C_3   0.121468 0.485458 0.500503 -0.033703
C6    C     C_3   0.877956 0.482319 0.500700 -0.020720
C7    C     C_R   0.257594 0.490932 0.500009 0.848101
C8    C     C_R   0.741912 0.486694 0.500204 0.913572
C9    C     C_R   0.500220 0.781961 0.499999 0.958482
C10   C     C_1   0.499998 0.065216 0.500013 -0.198688
C11   C     C_3   0.074133 0.400796 0.660154 -0.065479
C12   C     C_3   0.071376 0.398252 0.341967 -0.091571
C13   C     C_3   0.929160 0.410283 0.667386 -0.113655
C14   C     C_3   0.926390 0.386721 0.349757 -0.087862
H1    H     H_    0.109989 0.458286 0.771846 0.147527
H2    H     H_    0.907184 0.228440 0.821310 0.206879
H3    H     H_    0.918961 0.163685 0.436798 0.237152
H4    H     H_    0.782552 0.228147 0.358710 0.187919
H5    H     H_    0.200086 0.734992 0.681196 0.203789
H6    H     H_    0.061657 0.685058 0.764895 0.153483
H7    H     H_    0.142189 0.690554 0.261710 0.170935
H8    H     H_    0.219035 0.784365 0.407054 0.194005
H9    H     H_    0.895988 0.859416 0.596075 0.206326
H10   H     H_    0.862793 0.713079 0.721786 0.175449
H11   H     H_    0.939721 0.665059 0.219505 0.153667
H12   H     H_    0.094463 0.463447 0.229435 0.120666
H13   H     H_    0.897911 0.825386 0.310228 0.209916
H14   H     H_    0.904965 0.484784 0.772343 0.125753
H15   H     H_    0.890109 0.435325 0.233126 0.158163
H16   H     H_    0.082253 0.171287 0.595646 0.242112
H17   H     H_    0.219233 0.242469 0.663648 0.201020
H18   H     H_    0.225629 0.260084 0.300510 0.205063
H19   H     H_    0.095855 0.203966 0.208416 0.207982
H20   H     H_    0.777011 0.271767 0.722102 0.205356
N1    N     N_1   0.500000 0.500030 0.073640 -0.041683
N2    N     N_3   0.886227 0.708932 0.315497 -0.427342
N3    N     N_1   0.500000 0.500030 0.926360 -0.043278
N4    N     N_3   0.122246 0.246300 0.678356 -0.447393
N5    N     N_3   0.129446 0.249742 0.318792 -0.461823
N6    N     N_3   0.873503 0.263117 0.706153 -0.469720
N7    N     N_3   0.879757 0.230955 0.345752 -0.455195
N8    N     N_3   0.103596 0.731950 0.661181 -0.465716
N9    N     N_3   0.129728 0.748491 0.371910 -0.452189
N10   N     N_3   0.858907 0.750848 0.600378 -0.440655
O1    O     O_R   0.500000 0.285340 0.636850 -0.625513
O2    O     O_R   0.500000 0.285340 0.363150 -0.626230
O3    O     O_R   0.314790 0.499970 0.636880 -0.642624
O4    O     O_R   0.314790 0.499970 0.363120 -0.641408
O5    O     O_R   0.685210 0.499970 0.636880 -0.635058
O6    O     O_R   0.685210 0.499970 0.363120 -0.614875
O7    O     O_R   0.500000 0.714650 0.636900 -0.611351
O8    O     O_R   0.500000 0.714650 0.363100 -0.608924
Zn1   Zn    Zn3+2 0.500000 0.499990 0.682780 0.959951
Zn2   Zn    Zn3+2 0.500000 0.499990 0.317220 0.967326

loop_
_geom_bond_atom_site_label_1
_geom_bond_atom_site_label_2
_ccdc_geom_bond_type
C11   N4    S    
H6    N8    S    
C4    N2    S    
C13   H14   S    
H13   N2    S    
C6    C14   S    
H8    N9    S    
C9    O7    A    
H5    N8    S    
O3    Zn1   S    
N3    Zn1   S    
C7    O4    A    
O2    Zn2   S    
H17   N4    S    
C3    C5    S    
O1    Zn1   S    
C3    N8    S    
O6    Zn2   S    
C6    C13   S    
O4    Zn2   S    
C11   C13   S    
C1    O1    A    
H19   N5    S    
C9    O8    A    
C12   N5    S    
C14   N7    S    
H20   N6    S    
C3    N9    S    
N1    N3    T    
O8    Zn2   S    
C5    C11   S    
H10   N10   S    
H3    N7    S    
C1    O2    A    
H4    N7    S    
O5    Zn1   S    
C1    C10   S    
H11   N2    S    
C3    C4    S    
C2    C10   T    
C8    O6    A    
H2    N6    S    
H16   N4    S    
C5    C12   S    
C4    C6    S    
H18   N5    S    
C12   H12   S    
C5    C7    S    
C13   N6    S    
C6    C8    S    
C4    N10   S    
O7    Zn1   S    
H7    N9    S    
C2    C9    S    
C11   H1    S    
C8    O5    A    
H9    N10   S    
C12   C14   S    
C14   H15   S    
N1    Zn2   S    
C7    O3    A    
