data_mof_unit_5394.cif
_audit_creation_date              2012-12-11T18:00:25-0500
_audit_creation_method            fapswitch 2.2
_symmetry_space_group_name_H-M    P1
_symmetry_Int_Tables_number       1
_space_group_crystal_system       triclinic
_cell_length_a                    8.389708
_cell_length_b                    13.039035
_cell_length_c                    18.703397
_cell_angle_alpha                 97.1058
_cell_angle_beta                  92.99506
_cell_angle_gamma                 99.039884
_cell_volume                      1999.72912978

loop_
_atom_site_label
_atom_site_type_symbol
_atom_type_description
_atom_site_fract_x
_atom_site_fract_y
_atom_site_fract_z
_atom_type_partial_charge
Ba1   Ba    Ba6+2 0.851480 0.550950 0.465800 1.710664
Ba2   Ba    Ba6+2 0.338350 0.449140 0.534210 1.684271
C1    C     C_3   0.562991 0.885298 0.250589 -0.228690
C2    C     C_3   0.451486 0.486954 0.242022 0.040244
C3    C     C_2   0.386535 0.491327 0.164223 -0.110617
C4    C     C_3   0.982447 0.801044 0.278558 0.316890
C5    C     C_2   0.224130 0.488756 0.148564 -0.127653
C6    C     C_2   0.111705 0.474754 0.207632 -0.117634
C7    C     C_1   0.166734 0.460452 0.272883 0.002515
C8    C     C_R   0.039497 0.509395 0.936016 0.529353
C9    C     C_R   0.154635 0.497425 0.074230 0.513570
C10   C     C_R   0.090119 0.553994 0.806392 0.006129
C11   C     C_R   0.036880 0.537281 0.731178 0.066136
C12   C     C_3   0.522683 0.774404 0.271430 0.258652
C13   C     C_R   0.773669 0.454986 0.758192 0.028898
C14   C     C_R   0.826959 0.461255 0.831424 -0.178632
C15   C     C_R   0.986076 0.509422 0.857203 -0.050704
C16   C     C_3   0.001472 0.823339 0.199356 -0.177538
C17   C     C_R   0.880616 0.487587 0.708796 -0.296492
C18   C     C_R   0.784576 0.173097 0.511243 -0.168439
C19   C     C_R   0.433407 0.812381 0.469186 -0.315734
C20   C     C_R   0.399195 0.988867 0.453227 -0.079665
C21   C     C_R   0.336316 0.882133 0.447128 -0.034043
C22   C     C_R   0.583541 0.848952 0.508655 0.022166
C23   C     C_3   0.443642 0.269266 0.314170 0.268295
C24   C     C_R   0.650079 0.960061 0.516541 -0.037821
C25   C     C_R   0.556978 0.029268 0.484799 -0.033220
C26   C     C_R   0.623309 0.137755 0.486278 0.043017
C27   C     C_R   0.876384 0.109441 0.544030 0.008503
C28   C     C_3   0.260067 0.774269 0.621995 0.302641
C29   C     C_R   0.806111 0.006301 0.552160 -0.097649
C30   C     C_3   0.322073 0.889077 0.647178 -0.434712
C31   C     C_3   0.898068 0.226818 0.269308 0.303723
C32   C     C_3   0.006157 0.199363 0.209015 -0.478802
C33   C     C_3   0.712068 0.710484 0.690517 0.323093
C34   C     C_3   0.430294 0.231218 0.233275 -0.380309
C35   C     C_3   0.688112 0.758788 0.767540 -0.211877
C36   C     C_2   0.790425 0.129203 0.282519 0.526434
C37   C     C_3   0.720283 0.691348 0.825269 -0.512451
C38   C     C_3   0.344547 0.733554 0.254297 -0.372732
C39   C     C_2   0.515735 0.890764 0.172556 0.489214
C40   C     C_2   0.279881 0.275197 0.859980 0.541752
C41   C     C_3   0.986689 0.206018 0.846059 -0.375896
C42   C     C_2   0.176279 0.087216 0.815001 0.425817
C43   C     C_3   0.742908 0.210844 0.690473 -0.334188
C44   C     C_2   0.499891 0.483389 0.105755 0.509385
C45   C     C_3   0.146754 0.228606 0.733720 0.259887
C46   C     C_3   0.251072 0.621584 0.832844 -0.299828
C47   C     C_2   0.895274 0.958372 0.605529 0.600247
C48   C     C_2   0.377626 0.699623 0.447536 0.579711
C49   C     C_2   0.896920 0.740887 0.146222 0.552154
C50   C     C_3   0.974468 0.933361 0.186977 -0.430139
C51   C     C_3   0.148935 0.199261 0.812916 -0.113988
C52   C     C_3   0.571733 0.188984 0.714147 0.312912
C53   C     C_3   0.555534 0.094321 0.755693 -0.370904
C54   C     C_2   0.321923 0.480777 0.294876 -0.295982
H1    H     H_    0.552506 0.783699 0.330598 0.034599
H2    H     H_    0.623751 0.637385 0.674719 0.043562
H3    H     H_    0.693634 0.912809 0.262104 0.081411
H4    H     H_    0.770823 0.835177 0.780614 0.168111
H5    H     H_    0.562066 0.774790 0.769916 0.118944
H6    H     H_    0.501263 0.939635 0.285855 0.113429
H7    H     H_    0.321572 0.279588 0.331037 0.047997
H8    H     H_    0.529603 0.344305 0.325034 0.026046
H9    H     H_    0.374314 0.147312 0.222526 0.178651
H10   H     H_    0.355196 0.277278 0.203854 0.070267
H11   H     H_    0.551215 0.240065 0.211654 0.105039
H12   H     H_    0.426452 0.894466 0.686895 0.135370
H13   H     H_    0.127283 0.820228 0.186027 0.137480
H14   H     H_    0.269462 0.251856 0.718272 0.097420
H15   H     H_    0.085948 0.297818 0.730765 0.037197
H16   H     H_    0.484759 0.170015 0.665558 0.076080
H17   H     H_    0.602613 0.117967 0.812945 0.155109
H18   H     H_    0.620325 0.032233 0.731658 0.135390
H19   H     H_    0.858972 0.804661 0.294436 0.076521
H20   H     H_    0.427396 0.059439 0.754262 0.105008
H21   H     H_    0.982635 0.466445 0.194554 0.163475
H22   H     H_    0.743400 0.429138 0.868320 0.120103
H23   H     H_    0.360994 0.930807 0.601414 0.079749
H24   H     H_    0.361537 0.484875 0.351465 0.073265
H25   H     H_    0.838745 0.477913 0.652242 0.058214
H26   H     H_    0.323560 0.039218 0.431762 0.121459
H27   H     H_    0.837316 0.253693 0.508463 0.057883
H28   H     H_    0.008832 0.720834 0.281529 0.061868
H29   H     H_    0.364949 0.737639 0.606052 0.065591
H30   H     H_    0.166862 0.766944 0.576440 0.082555
H31   H     H_    0.696606 0.091742 0.241410 -0.034201
H32   H     H_    0.702769 0.732807 0.879086 0.161029
H33   H     H_    0.633985 0.616816 0.816320 0.153368
H34   H     H_    0.226542 0.926765 0.673258 0.137881
H35   H     H_    0.847092 0.677694 0.825082 0.139282
H36   H     H_    0.315501 0.710752 0.195331 0.139382
H37   H     H_    0.300552 0.667896 0.283024 0.055356
H38   H     H_    0.284279 0.797259 0.274687 0.097968
H39   H     H_    0.562284 0.842252 0.129970 0.026301
H40   H     H_    0.385496 0.248733 0.882767 0.074549
H41   H     H_    0.889431 0.146579 0.815959 0.128379
H42   H     H_    0.993250 0.190232 0.903158 0.149860
H43   H     H_    0.954575 0.285054 0.846007 0.134144
H44   H     H_    0.125056 0.026200 0.771567 0.098723
H45   H     H_    0.817498 0.279023 0.250117 -0.014860
H46   H     H_    0.749533 0.256857 0.644644 0.036256
H47   H     H_    0.822943 0.255810 0.735409 0.095301
H48   H     H_    0.784508 0.137065 0.673730 0.134765
H49   H     H_    0.460734 0.484795 0.049865 0.025040
H50   H     H_    0.318917 0.655487 0.790274 0.123594
H51   H     H_    0.230383 0.689796 0.870835 0.115346
H52   H     H_    0.330561 0.575388 0.859867 0.177969
H53   H     H_    0.005709 0.930011 0.591905 0.017664
H54   H     H_    0.392510 0.664851 0.394053 -0.077887
H55   H     H_    0.782210 0.754468 0.123209 0.023786
H56   H     H_    0.066034 0.270553 0.188911 0.104774
H57   H     H_    0.045959 0.959439 0.142209 0.162111
H58   H     H_    0.846670 0.936513 0.171548 0.070728
H59   H     H_    0.014903 0.989407 0.236276 0.188534
H60   H     H_    0.933894 0.149495 0.162261 0.102308
H61   H     H_    0.100546 0.157907 0.229461 0.129688
H62   H     H_    0.837916 0.695002 0.686741 -0.002871
N1    N     N_R   0.163980 0.581025 0.970323 -0.240794
N2    N     N_R   0.220193 0.575409 0.037541 -0.242137
N3    N     N_R   0.025442 0.427967 0.041606 -0.204418
N4    N     N_R   0.969620 0.433654 0.974052 -0.226142
O1    O     O_2   0.866600 0.438960 0.328790 -0.483063
O2    O     O_2   0.218382 0.125492 0.562738 -0.503679
O3    O     O_3   0.072819 0.143221 0.683448 -0.646579
O4    O     O_3   0.119240 0.440770 0.416170 -0.423069
O5    O     O_3   0.579720 0.631080 0.535620 -0.471841
O6    O     O_2   0.340230 0.234420 0.466230 -0.452313
O7    O     O_3   0.501439 0.193903 0.350380 -0.628540
O8    O     O_2   0.437096 0.450762 0.753845 -0.470155
O9    O     O_3   0.534378 0.273798 0.760842 -0.623617
O10   O     O_3   0.654630 0.636910 0.371550 -0.509695
O11   O     O_2   0.783330 0.567361 0.253435 -0.431309
O12   O     O_3   0.686130 0.787598 0.648070 -0.622555
O13   O     O_3   0.991715 0.270382 0.334100 -0.589180
O14   O     O_3   0.614029 0.707274 0.233612 -0.624750
O15   O     O_2   0.849480 0.765610 0.533810 -0.489724
O16   O     O_3   0.077620 0.693060 0.406790 -0.472875
O17   O     O_2   0.006921 0.881756 0.457764 -0.489866
O18   O     O_2   0.806068 0.091833 0.338729 -0.578807
O19   O     O_2   0.423491 0.949348 0.156609 -0.585350
O20   O     O_2   0.270620 0.368104 0.871916 -0.602714
O21   O     O_2   0.245538 0.061753 0.867526 -0.589482
O22   O     O_2   0.639001 0.471136 0.119175 -0.535587
O23   O     O_3   0.089320 0.876111 0.326083 -0.620964
O24   O     O_2   0.859084 0.963454 0.668006 -0.609073
O25   O     O_2   0.299530 0.646492 0.486764 -0.549398
O26   O     O_2   0.939503 0.656572 0.129104 -0.552761
O27   O     O_2   0.323100 0.561070 0.671250 -0.470164
O28   O     O_3   0.070470 0.559320 0.583840 -0.455823
O29   O     O_3   0.535090 0.363180 0.628460 -0.485445
O30   O     O_3   0.192873 0.729846 0.679712 -0.645775
O31   O     O_3   0.609990 0.369010 0.464390 -0.480797
O32   O     O_3   0.112090 0.307030 0.593210 -0.481498
P1    P     P_3+3 0.034960 0.407000 0.339750 1.021319
P2    P     P_3+3 0.674960 0.749840 0.554930 0.981118
P3    P     P_3+3 0.124764 0.831329 0.409554 0.946057
P4    P     P_3+3 0.154750 0.593090 0.660260 1.005506
P5    P     P_3+3 0.073694 0.172221 0.593586 0.950243
P6    P     P_3+3 0.621446 0.596704 0.277533 0.991437
P7    P     P_3+3 0.519656 0.234316 0.443545 0.987963
P8    P     P_3+3 0.569006 0.391067 0.723347 0.944301

loop_
_geom_bond_atom_site_label_1
_geom_bond_atom_site_label_2
_ccdc_geom_bond_type
C48   O25   D    
Ba2   O28   S    
C44   H49   S    
C32   H56   S    
C13   P8    S    
C41   H42   S    
C38   H37   S    
C10   C46   S    
Ba1   O10   S    
C23   O7    S    
C34   H11   S    
C16   C50   S    
C5    C6    S    
C27   P5    S    
O1    P1    D    
C50   H57   S    
C13   C17   A    
C52   O9    S    
C24   C25   A    
O10   P6    S    
C33   H2    S    
C40   H40   S    
C20   H26   S    
C33   C35   S    
C41   H43   S    
C40   C51   S    
C34   H10   S    
C1    H6    S    
C46   H51   S    
C39   H39   S    
C8    C15   S    
C32   H60   S    
C13   C14   A    
O2    P5    D    
C48   H54   S    
O13   P1    S    
Ba1   Ba2   S    
C23   H7    S    
Ba1   P1    S    
C8    N1    A    
C43   H47   S    
C26   P7    S    
C53   H18   S    
C42   C51   S    
C41   C51   S    
O12   P2    S    
O17   P3    D    
C14   C15   A    
C10   C15   A    
C40   O20   D    
C28   H30   S    
O27   P4    D    
C45   C51   S    
O4    P1    S    
O8    P8    D    
C16   H13   S    
C24   C29   A    
Ba2   O32   S    
C2    C54   S    
C9    N3    A    
C37   H32   S    
C29   C47   S    
C9    N2    A    
C33   O12   S    
C37   H35   S    
C19   C48   S    
Ba2   O27   S    
C16   C49   S    
C45   O3    S    
O30   P4    S    
C18   C27   A    
C4    C16   S    
C30   H34   S    
C4    H28   S    
C11   C17   A    
C41   H41   S    
C4    H19   S    
Ba1   O4    S    
C38   H38   S    
C3    C5    D    
C4    O23   S    
C34   H9    S    
C6    C7    D    
C44   O22   D    
C18   C26   A    
O9    P8    S    
O15   P2    D    
O31   P7    S    
C23   H8    S    
C53   H17   S    
Ba1   P2    S    
C5    C9    S    
Ba1   O1    S    
C45   H14   S    
C39   O19   D    
C43   H48   S    
O23   P3    S    
C31   O13   S    
C28   O30   S    
Ba2   P4    S    
O29   P8    S    
C31   C32   S    
O7    P7    S    
Ba1   O28   S    
C7    C54   D    
C38   H36   S    
C28   H29   S    
Ba1   O31   S    
C45   H15   S    
N3    N4    A    
C1    C12   S    
C53   H20   S    
Ba2   O4    S    
C43   C52   S    
Ba2   O31   S    
C20   C25   A    
C19   C21   A    
C6    H21   S    
C31   H45   S    
C19   C22   A    
C11   P4    S    
Ba1   O15   S    
C47   H53   S    
C50   H59   S    
Ba2   O29   S    
C12   H1    S    
C52   C53   S    
C1    C39   S    
C49   H55   S    
O28   P4    S    
Ba1   O5    S    
C22   C24   A    
C2    C3    S    
C8    N4    A    
O5    P2    S    
C2    P6    S    
C35   H5    S    
N1    N2    A    
O3    P5    S    
C50   H58   S    
C3    C44   S    
C31   C36   S    
C54   H24   S    
C30   H12   S    
C36   H31   S    
C46   H50   S    
O11   P6    D    
O32   P5    S    
C35   C37   S    
Ba2   O5    S    
C30   H23   S    
C28   C30   S    
C42   H44   S    
O16   P3    S    
C46   H52   S    
C12   O14   S    
C49   O26   D    
C32   H61   S    
C42   O21   D    
C21   P3    S    
O6    P7    D    
C47   O24   D    
C14   H22   S    
C35   H4    S    
C43   H46   S    
C23   C34   S    
C12   C38   S    
O14   P6    S    
C52   H16   S    
C10   C11   A    
C7    P1    S    
C27   C29   A    
C18   H27   S    
C25   C26   A    
C36   O18   D    
C20   C21   A    
C33   H62   S    
C17   H25   S    
C37   H33   S    
Ba1   O16   S    
C22   P2    S    
C1    H3    S    
Ba2   O6    S    
