data_mof_unit_44830.cif
_audit_creation_date              2012-12-10T20:57:46-0500
_audit_creation_method            fapswitch 2.2
_symmetry_space_group_name_H-M    P1
_symmetry_Int_Tables_number       1
_space_group_crystal_system       triclinic
_cell_length_a                    18.179889
_cell_length_b                    18.277732
_cell_length_c                    18.393987
_cell_angle_alpha                 120.138082
_cell_angle_beta                  89.909858
_cell_angle_gamma                 119.951543
_cell_volume                      4319.42565545

loop_
_atom_site_label
_atom_site_type_symbol
_atom_type_description
_atom_site_fract_x
_atom_site_fract_y
_atom_site_fract_z
_atom_type_partial_charge
C1    C     C_R   0.360960 0.220097 0.360888 0.780060
C2    C     C_3   0.773335 0.943342 0.656451 -0.113446
C3    C     C_2   0.072111 0.219193 0.697937 0.876570
C4    C     C_2   0.441114 0.656310 0.320324 0.885813
C5    C     C_3   0.700743 0.898012 0.698284 -0.066050
C6    C     C_R   0.641216 0.781045 0.640481 0.857982
C7    C     C_3   0.799527 0.103185 0.802229 0.106923
C8    C     C_3   0.811678 0.061725 0.853433 -0.397046
C9    C     C_3   0.829352 0.065387 0.719525 -0.439105
C10   C     C_3   0.638676 0.421595 0.201393 -0.377748
C11   C     C_3   0.698065 0.421570 0.142140 -0.390836
C12   C     C_3   0.759456 0.609106 0.321454 -0.349558
C13   C     C_3   0.757508 0.468699 0.318455 -0.416029
C14   C     C_3   0.345546 0.608536 0.322476 -0.174070
C15   C     C_3   0.697799 0.499944 0.301482 0.162973
C16   C     C_3   0.799154 0.499700 0.199978 0.170371
C17   C     C_3   0.819127 0.608942 0.261527 -0.414784
C18   C     C_R   0.358671 0.500009 0.640095 0.798530
C19   C     C_3   0.817328 0.468610 0.258727 -0.353398
C20   C     C_R   0.496740 0.201174 0.544191 -0.101558
C21   C     C_R   0.447290 0.153560 0.457083 -0.108549
C22   C     C_R   0.353172 0.100065 0.430959 0.138489
C23   C     C_R   0.309201 0.093386 0.492463 -0.132409
C24   C     C_R   0.358909 0.141249 0.579468 -0.125917
C25   C     C_3   0.298652 0.497458 0.300724 -0.020830
C26   C     C_R   0.452527 0.195242 0.605308 -0.124666
C27   C     C_R   0.242706 0.944013 0.284494 -0.250239
C28   C     C_R   0.192900 0.892350 0.196377 -0.048194
C29   C     C_R   0.199770 0.948903 0.162227 -0.005107
C30   C     C_R   0.640640 0.500171 0.359332 0.769515
C31   C     C_R   0.256830 0.055953 0.217192 -0.237507
C32   C     C_R   0.306489 0.107699 0.305484 -0.053383
C33   C     C_R   0.300271 0.051119 0.339453 -0.005371
C34   C     C_R   0.187306 0.885274 0.003790 -0.160381
C35   C     C_R   0.136504 0.833114 0.915249 0.033835
C36   C     C_3   0.195946 0.498318 0.200441 0.055432
C37   C     C_R   0.045685 0.797470 0.895145 -0.171070
C38   C     C_R   0.005931 0.812231 0.961646 -0.134475
C39   C     C_R   0.056371 0.862771 0.049112 -0.122109
C40   C     C_R   0.147237 0.899431 0.070534 0.116280
C41   C     C_R   0.907095 0.581358 0.541700 -0.182247
C42   C     C_R   0.641935 0.499914 0.639787 0.824269
C43   C     C_R   0.853426 0.529364 0.577360 -0.000110
C44   C     C_R   0.836342 0.585107 0.654839 0.036304
C45   C     C_R   0.872051 0.689523 0.693055 -0.091961
C46   C     C_R   0.923821 0.738850 0.655728 -0.081635
C47   C     C_3   0.145804 0.462981 0.258204 -0.149792
C48   C     C_R   0.941471 0.684944 0.580304 -0.140236
C49   C     C_R   0.838362 0.537475 0.757170 -0.219521
C50   C     C_R   0.799364 0.498504 0.805994 -0.018323
C51   C     C_R   0.708657 0.460399 0.800122 0.040666
C52   C     C_R   0.659325 0.462583 0.745184 -0.228266
C53   C     C_R   0.698388 0.501756 0.696499 -0.013398
C54   C     C_R   0.357200 0.498962 0.359190 0.772475
C55   C     C_R   0.789249 0.540442 0.702810 0.040816
C56   C     C_R   0.626079 0.314814 0.814709 -0.121898
C57   C     C_R   0.574488 0.268387 0.854072 -0.123722
C58   C     C_3   0.286277 0.607153 0.260577 -0.429121
C59   C     C_R   0.557244 0.324624 0.928622 -0.148156
C60   C     C_R   0.592643 0.427981 0.964951 -0.186841
C61   C     C_R   0.646123 0.477064 0.927255 -0.009830
C62   C     C_R   0.662346 0.418803 0.850310 0.049225
C63   C     C_R   0.356812 0.772089 0.683990 -0.097600
C64   C     C_R   0.348523 0.716794 0.718922 -0.042176
C65   C     C_R   0.272397 0.614860 0.677866 0.138193
C66   C     C_3   0.276722 0.416939 0.198616 -0.147377
C67   C     C_R   0.203785 0.569979 0.603155 -0.144906
C68   C     C_R   0.211891 0.625914 0.569054 -0.154160
C69   C     C_3   0.641169 0.939072 0.705974 -0.413385
C70   C     C_R   0.288615 0.726601 0.608998 -0.115288
C71   C     C_R   0.209962 0.554029 0.769251 -0.219801
C72   C     C_R   0.194897 0.498094 0.805216 -0.018227
C73   C     C_R   0.232709 0.441362 0.785079 0.055901
C74   C     C_R   0.285824 0.444096 0.731103 -0.226078
C75   C     C_R   0.301666 0.500847 0.695912 -0.059221
C76   C     C_R   0.262641 0.556166 0.714823 -0.016018
C77   C     C_R   0.294005 0.427773 0.893986 -0.228652
C78   C     C_3   0.219389 0.421143 0.141029 -0.427296
C79   C     C_R   0.293661 0.372593 0.926413 0.009955
C80   C     C_3   0.698542 0.058263 0.769326 -0.377680
C81   C     C_R   0.218980 0.270519 0.886665 -0.191407
C82   C     C_R   0.147334 0.223189 0.814059 -0.191279
C83   C     C_R   0.148236 0.276355 0.778892 0.035424
C84   C     C_R   0.222394 0.381173 0.820941 0.040564
C85   C     C_R   0.856930 0.499880 0.142722 0.762043
C86   C     C_R   0.138869 0.499826 0.861941 0.822456
C87   C     C_R   0.856784 0.219239 0.861809 0.773155
C88   C     C_R   0.137130 0.779929 0.141287 0.789601
C89   C     C_R   0.855820 0.500235 0.862576 0.815898
C90   C     C_3   0.209134 0.469358 0.321133 -0.457491
C91   C     C_3   0.744990 0.941969 0.797516 -0.180482
C92   C     C_R   0.138808 0.499027 0.142805 0.770151
C93   C     C_2   0.231542 0.305938 0.169241 0.938671
C94   C     C_2   0.106536 0.521213 0.310789 0.925732
C95   C     C_2   0.838827 0.911956 0.648193 0.925535
C96   C     C_2   0.724775 0.901798 0.561948 0.916006
C97   C     C_2   0.783723 0.890762 0.811039 0.948025
C98   C     C_2   0.177225 0.814257 0.843536 0.886096
C99   C     C_2   0.816698 0.418056 0.531901 0.871015
C100  C     C_2   0.683412 0.588069 0.969982 0.874802
C101  C     C_2   0.372088 0.420212 0.999889 0.889572
H1    H     H_    0.274160 0.667274 0.301546 0.216379
H2    H     H_    0.595063 0.442180 0.186888 0.183708
H3    H     H_    0.593746 0.342158 0.184795 0.186348
H4    H     H_    0.681226 0.342083 0.096821 0.181526
H5    H     H_    0.683488 0.443142 0.100144 0.189017
H6    H     H_    0.717823 0.633072 0.309645 0.186244
H7    H     H_    0.257609 0.445778 0.101247 0.197173
H8    H     H_    0.800971 0.524119 0.389502 0.187168
H9    H     H_    0.714635 0.390514 0.304683 0.168981
H10   H     H_    0.803230 0.390256 0.215806 0.176786
H11   H     H_    0.889367 0.523732 0.301511 0.206492
H12   H     H_    0.224423 0.528462 0.392224 0.195281
H13   H     H_    0.803173 0.666967 0.392648 0.206788
H14   H     H_    0.891239 0.666980 0.304230 0.186666
H15   H     H_    0.490621 0.232502 0.672728 0.133942
H16   H     H_    0.569301 0.243058 0.564449 0.165753
H17   H     H_    0.156334 0.343063 0.091936 0.201785
H18   H     H_    0.236678 0.052252 0.473268 0.135090
H19   H     H_    0.324894 0.136763 0.626955 0.140802
H20   H     H_    0.238694 0.900760 0.310372 0.173222
H21   H     H_    0.260648 0.098990 0.191135 0.193644
H22   H     H_    0.257345 0.912946 0.020817 0.162499
H23   H     H_    0.586993 0.907353 0.731924 0.178576
H24   H     H_    0.005260 0.757567 0.827864 0.170863
H25   H     H_    0.935669 0.783618 0.945102 0.174361
H26   H     H_    0.981992 0.723490 0.551605 0.134750
H27   H     H_    0.921851 0.541574 0.482966 0.185611
H28   H     H_    0.860543 0.733075 0.752813 0.145301
H29   H     H_    0.951215 0.819393 0.686039 0.168128
H30   H     H_    0.589903 0.434280 0.741371 0.164465
H31   H     H_    0.578898 0.469900 0.023557 0.194498
H32   H     H_    0.088370 0.379993 0.211236 0.163355
H33   H     H_    0.294931 0.769556 0.582186 0.152583
H34   H     H_    0.606272 0.912900 0.639554 0.210934
H35   H     H_    0.415917 0.850290 0.715216 0.119122
H36   H     H_    0.401483 0.752777 0.777251 0.115595
H37   H     H_    0.144134 0.491957 0.571609 0.151876
H38   H     H_    0.180200 0.596401 0.783080 0.184906
H39   H     H_    0.315455 0.401581 0.717129 0.173122
H40   H     H_    0.351456 0.506699 0.923842 0.178724
H41   H     H_    0.349961 0.660298 0.391959 0.172064
H42   H     H_    0.216253 0.226418 0.910930 0.198801
H43   H     H_    0.321452 0.628087 0.217536 0.187087
H44   H     H_    0.121390 0.176031 0.146194 0.345483
H45   H     H_    0.689260 0.089233 0.733909 0.192642
H46   H     H_    0.128466 0.656233 0.409680 0.333948
H47   H     H_    0.881429 0.826579 0.568398 0.329997
H48   H     H_    0.695819 0.930092 0.476779 0.370154
H49   H     H_    0.824626 0.099828 0.685989 0.212526
H50   H     H_    0.902631 0.101006 0.742418 0.215168
H51   H     H_    0.890832 0.904953 0.864959 0.336245
H52   H     H_    0.882854 0.087705 0.869789 0.246542
H53   H     H_    0.806179 0.632601 0.220575 0.170407
H54   H     H_    0.482122 0.159018 0.410293 0.115952
H55   H     H_    0.160320 0.752805 0.712921 0.353264
H56   H     H_    0.674658 0.082308 0.827368 0.179254
H57   H     H_    0.024636 0.872646 0.099965 0.130558
H58   H     H_    0.175033 0.395226 0.314569 0.202708
H59   H     H_    0.820986 0.298033 0.442124 0.354476
H60   H     H_    0.907694 0.565492 0.760783 0.170489
H61   H     H_    0.637039 0.269262 0.755463 0.132497
H62   H     H_    0.547000 0.188288 0.826088 0.131033
H63   H     H_    0.516774 0.288312 0.958830 0.158834
H64   H     H_    0.679088 0.709393 0.056051 0.354052
H65   H     H_    0.158549 0.591204 0.511786 0.167364
H66   H     H_    0.431338 0.402135 0.076386 0.346143
H67   H     H_    0.689852 0.926270 0.826805 0.116296
H68   H     H_    0.091265 0.143841 0.784686 0.211779
H69   H     H_    0.964629 0.080781 0.594397 0.357894
H70   H     H_    0.524335 0.656819 0.247580 0.364041
H71   H     H_    0.799805 0.096508 0.918027 0.143428
H72   H     H_    0.341402 0.440345 0.185057 0.200290
O1    O     O_3   0.500000 0.500000 0.500000 -0.494794
O2    O     O_R   0.113800 0.731630 0.056520 -0.634846
O3    O     O_R   0.819390 0.439310 0.886160 -0.644544
O4    O     O_R   0.383400 0.268380 0.323710 -0.635208
O5    O     O_R   0.115110 0.560720 0.179280 -0.624349
O6    O     O_R   0.941380 0.560750 0.885620 -0.641704
O7    O     O_R   0.115110 0.439270 0.057830 -0.645622
O8    O     O_R   0.942690 0.268390 0.886930 -0.642430
O9    O     O_R   0.114340 0.731630 0.178520 -0.649232
O10   O     O_R   0.820160 0.439310 0.057830 -0.647576
O11   O     O_R   0.113800 0.560730 0.885620 -0.650945
O12   O     O_R   0.383400 0.560740 0.616060 -0.648718
O13   O     O_R   0.555060 0.731630 0.615290 -0.638845
O14   O     O_R   0.383950 0.439280 0.616600 -0.642603
O15   O     O_R   0.677590 0.560710 0.444390 -0.626557
O16   O     O_R   0.556370 0.439260 0.616600 -0.650492
O17   O     O_R   0.382640 0.439290 0.322940 -0.625228
O18   O     O_R   0.678360 0.560700 0.616060 -0.629282
O19   O     O_R   0.382640 0.560750 0.444390 -0.628535
O20   O     O_2   0.271584 0.265114 0.143667 -0.592179
O21   O     O_R   0.143570 0.248967 0.167953 -0.830469
O22   O     O_2   0.024920 0.475071 0.293301 -0.652888
O23   O     O_R   0.555060 0.439270 0.322940 -0.644042
O24   O     O_R   0.163062 0.626841 0.379632 -0.830571
O25   O     O_2   0.897993 0.952399 0.714414 -0.623557
O26   O     O_R   0.833685 0.839201 0.564647 -0.774810
O27   O     O_2   0.678950 0.808607 0.503443 -0.580603
O28   O     O_R   0.731419 0.968287 0.541109 -0.812808
O29   O     O_2   0.733286 0.800773 0.786204 -0.655142
O30   O     O_R   0.874868 0.947548 0.858266 -0.765758
O31   O     O_2   0.256181 0.844755 0.860711 -0.647408
O32   O     O_R   0.125135 0.760927 0.755735 -0.813920
O33   O     O_2   0.755379 0.363942 0.547800 -0.655769
O34   O     O_R   0.383950 0.268380 0.445700 -0.636085
O35   O     O_R   0.851526 0.374167 0.468946 -0.802702
O36   O     O_2   0.745519 0.640463 0.953483 -0.649272
O37   O     O_R   0.648180 0.633668 0.031052 -0.777096
O38   O     O_2   0.435490 0.510804 0.037319 -0.585948
O39   O     O_R   0.374151 0.361252 0.026084 -0.811964
O40   O     O_2   0.059114 0.265392 0.675339 -0.627299
O41   O     O_R   0.014402 0.111065 0.647082 -0.820299
O42   O     O_2   0.503949 0.730142 0.389904 -0.606815
O43   O     O_R   0.457768 0.618048 0.239566 -0.794241
O44   O     O_R   0.677590 0.731610 0.615290 -0.587523
O45   O     O_3   0.997750 0.500010 0.002220 -0.484320
O46   O     O_R   0.942690 0.560750 0.179280 -0.634668
O47   O     O_R   0.114340 0.439270 0.886160 -0.637481
O48   O     O_R   0.820160 0.268410 0.886930 -0.646716
Zn1   Zn    Zn3+2 0.456040 0.586770 0.543190 1.012392
Zn2   Zn    Zn3+2 0.456820 0.413240 0.543960 0.983071
Zn3   Zn    Zn3+2 0.631110 0.586750 0.543190 1.048415
Zn4   Zn    Zn3+2 0.456040 0.413240 0.369660 1.012191
Zn5   Zn    Zn3+2 0.041710 0.413240 0.959030 0.985566
Zn6   Zn    Zn3+2 0.866640 0.413270 0.959030 0.971314
Zn7   Zn    Zn3+2 0.040930 0.586780 0.958260 0.984532
Zn8   Zn    Zn3+2 0.041710 0.586770 0.132560 0.984991

loop_
_geom_bond_atom_site_label_1
_geom_bond_atom_site_label_2
_ccdc_geom_bond_type
C14   H41   S    
C45   H28   S    
C34   H22   S    
C4    O43   S    
O17   Zn4   S    
C73   C74   A    
C18   O14   A    
C93   O21   S    
O1    Zn1   S    
C97   O29   D    
C43   C44   A    
C60   H31   S    
C81   C82   A    
C27   H20   S    
C96   O28   S    
C19   H11   S    
C101  O38   D    
C3    O41   S    
O34   Zn2   S    
C25   C90   S    
C37   C38   A    
C65   C76   S    
C54   O19   A    
C34   C40   A    
C97   O30   S    
C87   O48   A    
C98   O31   D    
C28   C29   A    
C35   C37   A    
O1    Zn4   S    
C43   C99   S    
H66   O39   S    
C99   O35   S    
C36   C58   S    
C10   C15   S    
C95   O25   D    
C42   C53   S    
C23   H18   S    
C71   C76   A    
H64   O37   S    
C57   C59   A    
C56   H61   S    
C100  O36   D    
C90   H58   S    
C56   C57   A    
C29   C40   S    
C36   C47   S    
C78   H7    S    
C34   C35   A    
C90   H12   S    
O7    Zn5   S    
O6    Zn7   S    
C22   C33   S    
C67   H37   S    
C5    C69   S    
C59   H63   S    
C92   O7    A    
C1    O4    A    
C42   O18   A    
C47   C94   S    
C30   O23   A    
C31   C32   A    
C16   C17   S    
C65   C67   A    
C12   C17   S    
C28   C88   S    
C13   H8    S    
C23   C24   A    
C12   C15   S    
H51   O30   S    
C58   H1    S    
C35   C98   S    
C73   C84   S    
C49   H60   S    
C36   C92   S    
O44   Zn3   S    
C80   H45   S    
O13   Zn1   S    
C82   H68   S    
C59   C60   A    
C85   O10   A    
C4    O42   D    
C21   C22   A    
C47   H32   S    
C86   O11   A    
C41   C43   A    
C41   H27   S    
C51   C62   S    
O46   Zn8   S    
C67   C68   A    
C14   C58   S    
C17   H53   S    
O45   Zn7   S    
C20   H16   S    
C38   H25   S    
C37   H24   S    
C64   H36   S    
C53   C55   A    
C101  O39   S    
C38   C39   A    
C66   C78   S    
C46   C48   A    
C9    H49   S    
C24   H19   S    
C74   C75   A    
C13   C19   S    
C99   O33   D    
C94   O22   D    
C91   H67   S    
C7    C8    S    
O1    Zn3   S    
C25   C54   S    
O5    Zn8   S    
O10   Zn6   S    
C39   C40   A    
C79   C81   A    
C71   H38   S    
C69   H23   S    
C49   C55   A    
C74   H39   S    
C2    C96   S    
C1    C32   S    
C27   C33   A    
O2    Zn7   S    
C51   C52   A    
C60   C61   A    
C30   O15   A    
C75   C76   A    
O45   Zn8   S    
C11   H4    S    
C13   H9    S    
C8    H52   S    
C58   H43   S    
H59   O35   S    
C6    O44   A    
C11   C16   S    
C50   C89   S    
C88   O9    A    
C83   C84   A    
C57   H62   S    
C63   C70   A    
O9    Zn8   S    
C7    C9    S    
O14   Zn2   S    
C11   H5    S    
C50   C51   A    
C21   H54   S    
C77   C79   A    
O47   Zn5   S    
C98   O32   S    
C8    C91   S    
C86   O47   A    
C52   C53   A    
C91   C97   S    
C18   C75   S    
H55   O32   S    
C88   O2    A    
H44   O21   S    
C5    C91   S    
C92   O5    A    
C66   C93   S    
H70   O43   S    
O15   Zn3   S    
C95   O26   S    
C49   C50   A    
O12   Zn1   S    
C13   C15   S    
C39   H57   S    
C3    C83   S    
C16   C85   S    
C47   C90   S    
C56   C62   A    
C66   H72   S    
H46   O24   S    
C2    C5    S    
O11   Zn7   S    
H48   O28   S    
O45   Zn6   S    
C87   O8    A    
C44   C45   A    
C17   H14   S    
C15   C30   S    
O1    Zn2   S    
C96   O27   D    
O3    Zn6   S    
O48   Zn6   S    
O23   Zn4   S    
C10   H2    S    
C54   O17   A    
C78   H17   S    
C52   H30   S    
C93   O20   D    
C25   C66   S    
C31   H21   S    
C24   C26   A    
C72   C73   A    
C2    C95   S    
C46   H29   S    
C12   H6    S    
C72   C86   S    
O16   Zn2   S    
H47   O26   S    
H69   O41   S    
C19   H10   S    
O8    Zn5   S    
C3    O40   D    
C6    O13   A    
C18   O12   A    
C77   C84   A    
C9    H50   S    
C94   O24   S    
C32   C33   A    
C10   H3    S    
C85   O46   A    
O19   Zn1   S    
C71   C72   A    
C29   C31   A    
C36   C78   S    
C63   H35   S    
C48   H26   S    
C42   O16   A    
C80   H56   S    
C5    C6    S    
C20   C26   A    
C16   C19   S    
C64   C65   A    
C100  O37   S    
C41   C48   A    
C44   C55   S    
C89   O6    A    
C14   C25   S    
C4    C14   S    
C61   C62   A    
C1    O34   A    
C26   H15   S    
C10   C11   S    
O4    Zn4   S    
C63   C64   A    
C61   C100  S    
C45   C46   A    
C81   H42   S    
C7    C87   S    
C20   C21   A    
C77   H40   S    
C69   H34   S    
C82   C83   A    
C12   H13   S    
C27   C28   A    
C70   H33   S    
C68   C70   A    
C22   C23   A    
C79   C101  S    
C69   C80   S    
C89   O3    A    
C2    C9    S    
O18   Zn3   S    
O45   Zn5   S    
C8    H71   S    
C7    C80   S    
C68   H65   S    
