data_mof_unit_36274.cif
_audit_creation_date              2012-12-10T20:34:14-0500
_audit_creation_method            fapswitch 2.2
_symmetry_space_group_name_H-M    P1
_symmetry_Int_Tables_number       1
_space_group_crystal_system       triclinic
_cell_length_a                    9.967795
_cell_length_b                    10.779249
_cell_length_c                    13.705007
_cell_angle_alpha                 88.896554
_cell_angle_beta                  83.643945
_cell_angle_gamma                 90.105074
_cell_volume                      1463.20462737

loop_
_atom_site_label
_atom_site_type_symbol
_atom_type_description
_atom_site_fract_x
_atom_site_fract_y
_atom_site_fract_z
_atom_type_partial_charge
C1    C     C_R   0.499496 0.739267 0.506515 0.960297
C2    C     C_3   0.266811 0.919751 0.454422 0.237543
C3    C     C_R   0.918161 0.551934 0.574379 0.029751
C4    C     C_R   0.476779 0.499411 0.684765 0.881192
C5    C     C_R   0.941429 0.469038 0.418355 0.419963
C6    C     C_R   0.084598 0.454597 0.422233 0.419700
C7    C     C_R   0.059451 0.557665 0.572386 -0.084679
C8    C     C_3   0.045544 0.538426 0.682697 0.347639
C9    C     C_3   0.892661 0.525058 0.681903 -0.445676
C10   C     C_R   0.500533 0.260417 0.497683 0.910642
C11   C     C_R   0.522922 0.502418 0.314830 0.876844
C12   C     C_1   0.462149 0.514562 0.786118 -0.120640
C13   C     C_1   0.535036 0.508890 0.211649 -0.230013
C14   C     C_2   0.543593 0.507558 0.021252 0.295524
C15   C     C_2   0.446930 0.559922 0.973307 0.385576
C16   C     C_1   0.453504 0.533640 0.871265 -0.084718
C17   C     C_1   0.538887 0.512022 0.124588 0.010272
C18   C     C_3   0.269431 0.696104 0.952459 0.124529
C19   C     C_3   0.166588 0.785238 0.002064 -0.867412
C20   C     C_3   0.176494 0.404372 0.262323 0.243847
C21   C     C_3   0.108494 0.313999 0.198762 -0.847156
C22   C     C_3   0.091752 0.319881 0.681809 0.221192
C23   C     C_R   0.379141 0.936482 0.516620 -0.133935
C24   C     C_3   0.036422 0.229116 0.762880 -0.836677
C25   C     C_3   0.796947 0.944560 0.628202 0.181893
C26   C     C_3   0.868813 0.858662 0.693867 -0.894075
C27   C     C_3   0.762889 0.105066 0.368770 0.118811
C28   C     C_3   0.911627 0.094700 0.333690 -0.714526
C29   C     C_3   0.419854 0.104991 0.298483 0.141356
C30   C     C_3   0.416547 0.102505 0.187844 -0.819245
C31   C     C_3   0.203946 0.818478 0.320562 0.087018
C32   C     C_3   0.258731 0.745991 0.231712 -0.760378
C33   C     C_3   0.894253 0.581910 0.285507 0.101699
C34   C     C_R   0.498492 0.870827 0.521582 -0.217698
C35   C     C_3   0.884224 0.572295 0.175793 -0.795110
C36   C     C_R   0.617892 0.936468 0.534185 0.366382
C37   C     C_R   0.622534 0.062743 0.507355 0.326484
C38   C     C_R   0.501209 0.127911 0.501691 -0.317397
C39   C     C_R   0.379899 0.063376 0.509076 -0.119519
C40   C     C_3   0.266446 0.061095 0.444311 0.761014
Cl1   Cl    Cl    0.677293 0.419388 0.961705 -0.672725
Cl2   Cl    Cl    0.117103 0.122659 0.506995 -0.738459
H1    H     H_    0.071771 0.625449 0.718675 0.100060
H2    H     H_    0.285427 0.397641 0.237346 0.165559
H3    H     H_    0.148323 0.500975 0.246768 0.102616
H4    H     H_    0.997282 0.318115 0.212582 0.291782
H5    H     H_    0.137907 0.337579 0.120045 0.215569
H6    H     H_    0.141311 0.217795 0.213028 0.284379
H7    H     H_    0.191052 0.285119 0.649270 0.215223
H8    H     H_    0.023060 0.320959 0.623367 0.162549
H9    H     H_    0.023174 0.136228 0.731614 0.229526
H10   H     H_    0.937230 0.261494 0.797906 0.275459
H11   H     H_    0.107690 0.221188 0.819493 0.259981
H12   H     H_    0.850043 0.430932 0.698763 0.220837
H13   H     H_    0.725403 0.001625 0.677100 0.124844
H14   H     H_    0.874350 0.006042 0.588104 0.239781
H15   H     H_    0.939943 0.798729 0.648343 0.255082
H16   H     H_    0.926923 0.913975 0.742402 0.217799
H17   H     H_    0.793153 0.801911 0.740589 0.255305
H18   H     H_    0.722352 0.189409 0.334605 0.160293
H19   H     H_    0.713128 0.021421 0.341642 0.095968
H20   H     H_    0.953606 0.011123 0.367606 0.253580
H21   H     H_    0.926088 0.086273 0.252596 0.182052
H22   H     H_    0.964684 0.178690 0.354816 0.327637
H23   H     H_    0.834488 0.598841 0.722173 0.194946
H24   H     H_    0.476471 0.022281 0.320121 0.155141
H25   H     H_    0.474892 0.190382 0.314355 0.119520
H26   H     H_    0.379892 0.192582 0.160793 0.248780
H27   H     H_    0.519851 0.086526 0.151047 0.218329
H28   H     H_    0.348967 0.027164 0.168411 0.257857
H29   H     H_    0.145636 0.898724 0.295699 0.164484
H30   H     H_    0.136988 0.755975 0.370061 0.117079
H31   H     H_    0.315980 0.665294 0.254826 0.264486
H32   H     H_    0.174196 0.712183 0.193850 0.212773
H33   H     H_    0.327493 0.804892 0.181178 0.271164
H34   H     H_    0.176977 0.876884 0.498459 0.087288
H35   H     H_    0.987751 0.634161 0.294886 0.058933
H36   H     H_    0.810278 0.639941 0.319070 0.186207
H37   H     H_    0.808033 0.501782 0.162051 0.298610
H38   H     H_    0.855597 0.663493 0.145396 0.208311
H39   H     H_    0.982598 0.544228 0.136842 0.242697
H40   H     H_    0.212620 0.627222 0.913273 0.172531
H41   H     H_    0.337427 0.751872 0.898231 0.143402
H42   H     H_    0.088531 0.733522 0.050490 0.251523
H43   H     H_    0.216963 0.855243 0.043882 0.256372
H44   H     H_    0.115111 0.835074 0.945151 0.217631
N1    N     N_R   0.857130 0.500860 0.500650 -0.146107
N2    N     N_R   0.142770 0.500820 0.500650 -0.161395
O1    O     O_R   0.385310 0.683210 0.499990 -0.602456
O2    O     O_3   0.157077 0.368604 0.362945 -0.537683
O3    O     O_3   0.113318 0.436534 0.722809 -0.593797
O4    O     O_3   0.731737 0.874610 0.560171 -0.590313
O5    O     O_3   0.745667 0.115089 0.472414 -0.577190
O6    O     O_3   0.286195 0.109484 0.345685 -0.569863
O7    O     O_3   0.313929 0.859267 0.367147 -0.599133
O8    O     O_3   0.890254 0.461141 0.329532 -0.598217
O9    O     O_R   0.614650 0.683240 0.500000 -0.586351
O10   O     O_R   0.368820 0.499950 0.640340 -0.596501
O11   O     O_R   0.598170 0.499990 0.640350 -0.610843
O12   O     O_R   0.385350 0.316760 0.500000 -0.570949
O13   O     O_R   0.614690 0.316790 0.500010 -0.565149
O14   O     O_R   0.401830 0.500010 0.359650 -0.617514
O15   O     O_R   0.631180 0.500050 0.359660 -0.578922
O16   O     O_3   0.345350 0.634672 0.021152 -0.637977
Zn1   Zn    Zn3+2 0.346870 0.499980 0.499990 0.997850
Zn2   Zn    Zn3+2 0.653130 0.500020 0.500010 1.009436

loop_
_geom_bond_atom_site_label_1
_geom_bond_atom_site_label_2
_ccdc_geom_bond_type
C24   H10   S    
C4    O10   A    
C25   H14   S    
C19   H44   S    
C30   H27   S    
C32   H33   S    
C35   H39   S    
C7    C8    S    
O12   Zn1   S    
C29   C30   S    
O10   Zn1   S    
C36   C37   A    
C3    C7    A    
C27   H18   S    
C32   H32   S    
C29   O6    S    
C23   C39   A    
C33   H36   S    
C15   C16   S    
C35   H38   S    
C6    N2    A    
O14   Zn1   S    
C18   C19   S    
C35   H37   S    
C27   H19   S    
C30   H28   S    
C29   H25   S    
C7    N2    A    
C8    C9    S    
C22   O3    S    
C8    H1    S    
C15   O16   S    
C4    C12   S    
C26   H17   S    
C20   H3    S    
C22   H8    S    
C21   H6    S    
C36   O4    S    
C24   H9    S    
C31   H29   S    
C14   C17   S    
C18   H40   S    
C20   H2    S    
C1    C34   S    
C38   C39   A    
C3    N1    A    
C12   C16   T    
C1    O9    A    
C39   C40   S    
C25   C26   S    
C6    O2    S    
C20   O2    S    
C37   C38   A    
C3    C9    S    
C31   C32   S    
C23   C34   A    
C2    C23   S    
C18   H41   S    
C37   O5    S    
C8    O3    S    
C18   O16   S    
C10   O12   A    
C26   H16   S    
C11   O14   A    
C22   H7    S    
O9    Zn2   S    
C28   H22   S    
C31   H30   S    
C14   Cl1   S    
C22   C24   S    
C27   O5    S    
C19   H42   S    
C33   O8    S    
C32   H31   S    
C5    O8    S    
C2    H34   S    
C21   H4    S    
O13   Zn2   S    
O11   Zn2   S    
C2    O7    S    
C25   O4    S    
C1    O1    A    
C10   O13   A    
C25   H13   S    
C40   O6    S    
C19   H43   S    
C13   C17   T    
C10   C38   S    
C24   H11   S    
N2    Zn1   S    
C11   C13   S    
C33   H35   S    
C5    C6    A    
N1    Zn2   S    
C31   O7    S    
C40   Cl2   S    
C33   C35   S    
O15   Zn2   S    
C34   C36   A    
C26   H15   S    
C9    H23   S    
C29   H24   S    
C5    N1    A    
C28   H21   S    
C2    C40   S    
C20   C21   S    
C4    O11   A    
O1    Zn1   S    
C27   C28   S    
C14   C15   D    
C11   O15   A    
C9    H12   S    
C30   H26   S    
C21   H5    S    
C28   H20   S    
