data_mof_unit_64983.cif
_audit_creation_date              2012-12-10T19:32:24-0500
_audit_creation_method            fapswitch 2.2
_symmetry_space_group_name_H-M    P1
_symmetry_Int_Tables_number       1
_space_group_crystal_system       triclinic
_cell_length_a                    16.461921
_cell_length_b                    17.144158
_cell_length_c                    17.753591
_cell_angle_alpha                 88.898895
_cell_angle_beta                  90.156516
_cell_angle_gamma                 93.261762
_cell_volume                      5001.4735127

loop_
_atom_site_label
_atom_site_type_symbol
_atom_type_description
_atom_site_fract_x
_atom_site_fract_y
_atom_site_fract_z
_atom_type_partial_charge
C1    C     C_R   0.500268 0.501213 0.644572 0.877893
C2    C     C_R   0.499744 0.498828 0.355412 0.879719
C3    C     C_R   0.436531 0.453483 0.233279 -0.145142
C4    C     C_R   0.562862 0.548032 0.766400 -0.156121
C5    C     C_R   0.498813 0.496502 0.272518 -0.296354
C6    C     C_R   0.501290 0.503803 0.727432 -0.303222
C7    C     C_R   0.560735 0.538320 0.231855 0.563131
C8    C     C_R   0.440273 0.460995 0.768323 0.564935
C9    C     C_R   0.560524 0.538670 0.153498 0.579034
C10   C     C_R   0.440642 0.460911 0.846672 0.575764
C11   C     C_R   0.498743 0.497210 0.114484 -0.170063
C12   C     C_R   0.501716 0.503613 0.885442 -0.169599
C13   C     C_1   0.499947 0.499557 0.033723 0.130540
C14   C     C_1   0.500709 0.501436 0.966206 0.129803
C15   C     C_R   0.173491 0.547911 0.450507 0.503205
C16   C     C_R   0.826256 0.449250 0.546896 0.505831
C17   C     C_R   0.259173 0.547357 0.451059 0.651063
C18   C     C_R   0.740579 0.449887 0.546373 0.650319
C19   C     C_R   0.254629 0.451618 0.548802 0.718929
C20   C     C_R   0.745517 0.550744 0.453481 0.729727
C21   C     C_R   0.168624 0.450270 0.550145 -0.344617
C22   C     C_R   0.831521 0.552094 0.452209 -0.336577
C23   C     C_R   0.490613 0.348812 0.500167 0.913894
C24   C     C_R   0.509639 0.651222 0.498249 0.906266
C25   C     C_R   0.126818 0.499205 0.500422 -0.237768
C26   C     C_R   0.873125 0.500582 0.499500 -0.233214
C27   C     C_1   0.037169 0.499736 0.499998 0.164532
C28   C     C_1   0.962770 0.499979 0.499895 0.164464
C29   C     C_R   0.487997 0.262902 0.499610 -0.303698
C30   C     C_R   0.514778 0.737134 0.493202 -0.304046
C31   C     C_R   0.557336 0.225266 0.476951 0.501074
C32   C     C_R   0.447045 0.777586 0.468937 0.513581
C33   C     C_R   0.559051 0.144108 0.480731 -0.166698
C34   C     C_R   0.452776 0.858846 0.461039 -0.176420
C35   C     C_R   0.489006 0.098421 0.505732 0.128274
C36   C     C_R   0.526358 0.900730 0.478454 0.130319
C37   C     C_R   0.419453 0.136530 0.527527 -0.196430
C38   C     C_R   0.594131 0.860608 0.502344 -0.179662
C39   C     C_R   0.418828 0.218073 0.524228 0.530940
C40   C     C_R   0.588268 0.779286 0.509974 0.521794
C41   C     C_R   0.436564 0.454151 0.153896 -0.129066
C42   C     C_R   0.563009 0.547640 0.845783 -0.127313
Cu1   Cu    Cu3+1 0.419580 0.500000 0.500020 1.131557
Cu2   Cu    Cu3+1 0.580420 0.500000 0.499980 1.145435
N1    N     N_2   0.485596 0.015343 0.512070 -0.202411
N2    N     N_2   0.533563 0.982901 0.470400 -0.210078
N3    N     N_R   0.298780 0.499980 0.500030 -0.341765
N4    N     N_R   0.701220 0.500020 0.499970 -0.328499
O1    O     O_R   0.432070 0.499990 0.608760 -0.516517
O2    O     O_R   0.567930 0.500010 0.391240 -0.512118
O3    O     O_R   0.567880 0.500000 0.608730 -0.563970
O4    O     O_R   0.432120 0.500000 0.391270 -0.561046
O5    O     O_R   0.424660 0.386070 0.500710 -0.511931
O6    O     O_R   0.575340 0.613930 0.499290 -0.499235
O7    O     O_R   0.560480 0.386080 0.500680 -0.505117
O8    O     O_R   0.439520 0.613920 0.499320 -0.522574
F1    F     F_    0.375863 0.738268 0.450801 -0.569675
F2    F     F_    0.624294 0.267555 0.450855 -0.610809
F3    F     F_    0.302504 0.594395 0.401790 -0.536258
F4    F     F_    0.696959 0.399939 0.592876 -0.569027
F5    F     F_    0.293973 0.403761 0.596401 -0.519775
F6    F     F_    0.706297 0.600741 0.407922 -0.548499
C43   C     C_1   0.124558 0.398343 0.602649 0.496028
N5    N     N_1   0.089219 0.356743 0.644706 -0.146700
C44   C     C_1   0.875795 0.606589 0.402220 0.489327
N6    N     N_1   0.911304 0.650243 0.362176 -0.149678
C45   C     C_1   0.383381 0.898454 0.432795 0.465404
N7    N     N_1   0.327832 0.930188 0.410197 -0.207966
C46   C     C_1   0.634794 0.111050 0.460656 0.472135
N8    N     N_1   0.695630 0.085335 0.444219 -0.205269
C47   C     C_1   0.347555 0.091835 0.553603 0.454684
N9    N     N_1   0.289991 0.056005 0.574456 -0.197986
C48   C     C_1   0.669761 0.902512 0.521319 0.448638
N10   N     N_1   0.730502 0.935713 0.536806 -0.195116
F7    F     F_    0.351410 0.253369 0.546898 -0.569306
F8    F     F_    0.654181 0.741714 0.534642 -0.605898
C49   C     C_1   0.373116 0.410655 0.112856 0.359291
N11   N     N_1   0.322540 0.375985 0.080082 -0.160604
C50   C     C_1   0.625734 0.592382 0.886561 0.355978
N12   N     N_1   0.675737 0.628045 0.919127 -0.162158
C51   C     C_1   0.374205 0.406620 0.273889 0.345614
N13   N     N_1   0.324516 0.369227 0.306295 -0.234171
C52   C     C_1   0.624256 0.595773 0.725487 0.340832
N14   N     N_1   0.673212 0.633861 0.692853 -0.187982
F9    F     F_    0.620485 0.580830 0.267996 -0.548269
F10   F     F_    0.381367 0.417198 0.732420 -0.537740
F11   F     F_    0.620536 0.580228 0.115406 -0.585774
F12   F     F_    0.381515 0.418373 0.884997 -0.585406
F13   F     F_    0.136340 0.595854 0.401181 -0.574866
F14   F     F_    0.863209 0.398602 0.593663 -0.579755

loop_
_geom_bond_atom_site_label_1
_geom_bond_atom_site_label_2
_ccdc_geom_bond_type
C30   C32   A    
C16   F14   S    
C48   N10   T    
C51   N13   T    
C49   N11   T    
C10   F12   S    
C23   C29   S    
C31   F2    S    
C19   C21   A    
C41   C49   S    
C19   N3    A    
Cu1   O4    S    
C15   C25   A    
C24   O6    A    
C7    C9    A    
C12   C42   A    
C2    O2    A    
Cu1   O5    S    
C1    O1    A    
C3    C51   S    
C31   C33   A    
C36   N2    S    
C39   F7    S    
C34   C36   A    
C33   C46   S    
C42   C50   S    
C13   C14   T    
C32   F1    S    
C10   C12   A    
C23   O5    A    
C16   C26   A    
C45   N7    T    
C50   N12   T    
C4    C6    A    
C5    C7    A    
Cu1   O1    S    
C6    C8    A    
N1    N2    D    
C1    C6    S    
C32   C34   A    
Cu1   Cu2   S    
C22   C44   S    
Cu2   O6    S    
C15   F13   S    
C9    C11   A    
C52   N14   T    
C29   C39   A    
C30   C40   A    
C16   C18   A    
C1    O3    A    
C20   N4    A    
C2    O4    A    
C17   F3    S    
Cu2   O3    S    
C18   F4    S    
C12   C14   S    
C37   C47   S    
C2    C5    S    
C24   O8    A    
C35   N1    S    
Cu2   O2    S    
C15   C17   A    
C21   C25   A    
C3    C41   A    
C35   C37   A    
C8    C10   A    
C17   N3    A    
C20   C22   A    
C3    C5    A    
C18   N4    A    
C34   C45   S    
C23   O7    A    
C25   C27   S    
C26   C28   S    
C36   C38   A    
C47   N9    T    
C29   C31   A    
C9    F11   S    
C38   C40   A    
C11   C13   S    
Cu2   O7    S    
C7    F9    S    
C4    C52   S    
C4    C42   A    
C19   F5    S    
C33   C35   A    
C11   C41   A    
C8    F10   S    
C20   F6    S    
C46   N8    T    
C24   C30   S    
C21   C43   S    
C43   N5    T    
C40   F8    S    
Cu1   O8    S    
C37   C39   A    
C44   N6    T    
C22   C26   A    
C27   C28   T    
Cu1   N3    S    
Cu2   N4    S    
C38   C48   S    
