data_mof_unit_46823.cif
_audit_creation_date              2012-12-10T20:42:38-0500
_audit_creation_method            fapswitch 2.2
_symmetry_space_group_name_H-M    P1
_symmetry_Int_Tables_number       1
_space_group_crystal_system       triclinic
_cell_length_a                    8.904232
_cell_length_b                    10.674954
_cell_length_c                    9.886465
_cell_angle_alpha                 89.878395
_cell_angle_beta                  90.278769
_cell_angle_gamma                 90.35615
_cell_volume                      939.699576687

loop_
_atom_site_label
_atom_site_type_symbol
_atom_type_description
_atom_site_fract_x
_atom_site_fract_y
_atom_site_fract_z
_atom_type_partial_charge
C1    C     C_R   0.509615 0.260205 0.500126 0.870978
C2    C     C_R   0.531562 0.936327 0.373876 -0.232464
C3    C     C_R   0.526085 0.872056 0.497624 -0.103375
C4    C     C_R   0.558333 0.935872 0.616771 0.111901
C5    C     C_3   0.485821 0.932452 0.752577 -0.534513
C6    C     C_3   0.513760 0.073281 0.758657 0.006207
C7    C     C_R   0.400441 0.426816 0.070806 0.211321
C8    C     C_R   0.606456 0.563442 0.072935 -0.194188
C9    C     C_R   0.608418 0.562376 0.928841 0.227992
C10   C     C_R   0.400170 0.427145 0.928522 0.148075
C11   C     C_3   0.233439 0.435268 0.921917 -0.500674
C12   C     C_R   0.218770 0.499839 0.499797 0.939214
C13   C     C_3   0.233345 0.434918 0.075438 -0.493576
C14   C     C_R   0.502557 0.740265 0.499654 0.879331
C15   C     C_R   0.781233 0.500049 0.500244 0.937347
C16   C     C_1   0.065411 0.499822 0.499782 -0.221588
C17   C     C_1   0.934578 0.499892 0.500381 -0.209859
C18   C     C_R   0.573513 0.063265 0.617113 0.131348
C19   C     C_R   0.541368 0.129439 0.498327 -0.144754
C20   C     C_R   0.538292 0.065599 0.374181 -0.216164
H1    H     H_    0.527469 0.114387 0.278442 0.171557
H2    H     H_    0.181609 0.349789 0.877185 0.199840
H3    H     H_    0.193583 0.524494 0.119476 0.217858
H4    H     H_    0.181505 0.349127 0.119382 0.200742
H5    H     H_    0.518905 0.888458 0.277928 0.171176
H6    H     H_    0.364565 0.907352 0.746440 0.182199
H7    H     H_    0.551166 0.877419 0.827514 0.206196
H8    H     H_    0.410652 0.130673 0.769467 0.145844
H9    H     H_    0.689904 0.616962 0.128357 0.157668
H10   H     H_    0.194796 0.525213 0.877427 0.221972
N1    N     N_R   0.499010 0.499140 0.142800 -0.116650
N2    N     N_R   0.499010 0.499180 0.857150 -0.130836
O1    O     O_R   0.500020 0.316790 0.614690 -0.628628
O2    O     O_R   0.500000 0.316760 0.385350 -0.618788
O3    O     O_R   0.285350 0.500020 0.614650 -0.619772
O4    O     O_R   0.285340 0.499980 0.385310 -0.614488
O5    O     O_R   0.500000 0.683240 0.614650 -0.602785
O6    O     O_R   0.499980 0.683210 0.385310 -0.627592
O7    O     O_R   0.714660 0.500020 0.614690 -0.592808
O8    O     O_R   0.714650 0.499980 0.385350 -0.621037
Zn1   Zn    Zn3+2 0.500010 0.500020 0.653130 0.942287
Zn2   Zn    Zn3+2 0.499990 0.499980 0.346870 0.937505
N3    N     N_2   0.630066 0.101591 0.858201 -0.290232
H11   H     H_    0.593028 0.092991 0.956501 0.221369
C21   C     C_3   0.721723 0.212063 0.836365 -0.730351
H12   H     H_    0.808745 0.218508 0.916906 0.215841
H13   H     H_    0.651898 0.296917 0.840425 0.253682
H14   H     H_    0.779830 0.207328 0.737438 0.241381
N4    N     N_2   0.721574 0.630249 0.859190 -0.250749
H15   H     H_    0.722936 0.723804 0.884544 0.201209
C22   C     C_3   0.870019 0.576756 0.871327 -0.766055
H16   H     H_    0.912567 0.585445 0.976788 0.215408
H17   H     H_    0.948099 0.627547 0.802938 0.237056
H18   H     H_    0.868392 0.476319 0.842046 0.257421

loop_
_geom_bond_atom_site_label_1
_geom_bond_atom_site_label_2
_ccdc_geom_bond_type
C7    C10   A    
C22   H17   S    
N2    Zn1   S    
C9    N4    S    
N1    Zn2   S    
C5    H6    S    
C12   O4    A    
C11   C13   S    
C11   H2    S    
O4    Zn2   S    
C19   C20   A    
O2    Zn2   S    
N3    H11   S    
C22   H18   S    
O1    Zn1   S    
O8    Zn2   S    
C2    C3    A    
C1    O1    A    
O7    Zn1   S    
C21   H12   S    
C14   O5    A    
C4    C5    S    
N3    C21   S    
C15   O7    A    
C16   C17   T    
C3    C14   S    
O3    Zn1   S    
C8    H9    S    
C13   H4    S    
C1    O2    A    
O6    Zn2   S    
C2    H5    S    
C6    N3    S    
C21   H13   S    
O5    Zn1   S    
C5    C6    S    
C6    C18   S    
C15   O8    A    
C1    C19   S    
C14   O6    A    
C10   C11   S    
C2    C20   A    
C22   H16   S    
C10   N2    A    
C7    C13   S    
C7    N1    A    
C20   H1    S    
C13   H3    S    
N4    H15   S    
C21   H14   S    
C15   C17   S    
C18   C19   A    
C9    N2    A    
N4    C22   S    
C5    H7    S    
C8    N1    A    
C4    C18   A    
C6    H8    S    
C3    C4    A    
C12   C16   S    
C11   H10   S    
C8    C9    A    
C12   O3    A    
