data_mof_unit_46475.cif
_audit_creation_date              2012-12-10T17:55:04-0500
_audit_creation_method            fapswitch 2.2
_symmetry_space_group_name_H-M    P1
_symmetry_Int_Tables_number       1
_space_group_crystal_system       triclinic
_cell_length_a                    8.649153
_cell_length_b                    10.846577
_cell_length_c                    9.670097
_cell_angle_alpha                 89.15073
_cell_angle_beta                  95.964743
_cell_angle_gamma                 93.954507
_cell_volume                      900.101128708

loop_
_atom_site_label
_atom_site_type_symbol
_atom_type_description
_atom_site_fract_x
_atom_site_fract_y
_atom_site_fract_z
_atom_type_partial_charge
C1    C     C_R   0.519886 0.264916 0.502444 0.857479
C2    C     C_R   0.506073 0.738720 0.499443 0.914782
C3    C     C_R   0.205354 0.509974 0.466132 0.867781
C4    C     C_R   0.796725 0.509012 0.535151 0.791370
C5    C     C_2   0.049283 0.552473 0.452826 0.076897
C6    C     C_2   0.964664 0.530442 0.559033 0.133033
C7    C     C_R   0.585216 0.073214 0.384621 0.366310
C8    C     C_R   0.508792 0.940413 0.622069 0.375448
C9    C     C_R   0.582391 0.943308 0.383751 0.017057
C10   C     C_R   0.554670 0.065803 0.631128 0.004703
C11   C     C_R   0.527909 0.875405 0.499456 -0.191363
C12   C     C_R   0.554604 0.133915 0.506165 -0.199243
C13   C     C_R   0.388093 0.430825 0.066049 0.486132
C14   C     C_R   0.604959 0.572873 0.933840 0.497524
C15   C     C_R   0.393676 0.423279 0.918432 0.116323
C16   C     C_R   0.623046 0.553077 0.080096 0.028203
Cu1   Cu    Cu3+1 0.500000 0.500020 0.640660 1.052251
Cu2   Cu    Cu3+1 0.500000 0.499980 0.359340 1.026622
N1    N     N_R   0.500040 0.500030 0.852080 -0.232381
N2    N     N_R   0.499960 0.499970 0.147920 -0.231262
O1    O     O_R   0.499990 0.319660 0.618740 -0.628992
O2    O     O_R   0.500010 0.680340 0.381260 -0.604388
O3    O     O_R   0.499990 0.319630 0.381170 -0.478770
O4    O     O_R   0.500010 0.680370 0.618830 -0.465129
O5    O     O_R   0.274840 0.500010 0.591370 -0.571613
O6    O     O_R   0.725160 0.499990 0.408630 -0.628817
O7    O     O_R   0.274830 0.499980 0.353800 -0.520588
O8    O     O_R   0.725170 0.500020 0.646200 -0.522947
Cl1   Cl    Cl    0.046259 0.703489 0.382919 -0.621521
Cl2   Cl    Cl    0.038745 0.586353 0.726409 -0.523935
Cl3   Cl    Cl    0.643939 0.158651 0.237581 -0.637077
Cl4   Cl    Cl    0.410508 0.874559 0.760437 -0.556594
C17   C     C_3   0.639383 0.882289 0.259549 -0.316291
C18   C     C_3   0.508821 0.862752 0.140958 -0.623258
H1    H     H_    0.407824 0.806125 0.175192 0.269348
H2    H     H_    0.468092 0.952774 0.101461 0.277328
H3    H     H_    0.553059 0.815080 0.054276 0.267754
H4    H     H_    0.737976 0.938427 0.220325 0.255433
H5    H     H_    0.694279 0.796022 0.289693 0.213298
C19   C     C_3   0.631375 0.117710 0.769476 -0.323190
C20   C     C_3   0.802264 0.160029 0.759859 -0.759938
H6    H     H_    0.866757 0.082172 0.727077 0.273564
H7    H     H_    0.812470 0.237546 0.684349 0.236229
H8    H     H_    0.856645 0.192520 0.863198 0.257704
H9    H     H_    0.571572 0.195354 0.806004 0.239217
H10   H     H_    0.629587 0.046697 0.853290 0.257279
Cl5   Cl    Cl    0.246633 0.336425 0.145173 -0.600745
Cl6   Cl    Cl    0.714145 0.694201 0.857832 -0.534104
C21   C     C_3   0.273573 0.333297 0.838695 -0.324643
C22   C     C_3   0.284575 0.196860 0.882655 -0.754563
H11   H     H_    0.177551 0.162232 0.929160 0.286166
H12   H     H_    0.292827 0.138458 0.790663 0.254379
H13   H     H_    0.386623 0.183217 0.959625 0.282249
H14   H     H_    0.155129 0.361374 0.852875 0.230250
H15   H     H_    0.280027 0.335064 0.727439 0.252685
C23   C     C_3   0.786652 0.553739 0.151823 -0.356675
C24   C     C_3   0.926563 0.563354 0.066117 -0.640848
H16   H     H_    0.030634 0.533018 0.131089 0.270099
H17   H     H_    0.905764 0.501710 0.974495 0.275258
H18   H     H_    0.956308 0.660431 0.036004 0.312779
H19   H     H_    0.800028 0.628944 0.227298 0.261803
H20   H     H_    0.796117 0.460748 0.199759 0.264135

loop_
_geom_bond_atom_site_label_1
_geom_bond_atom_site_label_2
_ccdc_geom_bond_type
C2    O2    A    
C22   H12   S    
C16   C23   S    
C1    O1    A    
C14   C16   A    
C18   H3    S    
C20   H7    S    
C20   H6    S    
C18   H2    S    
C17   H4    S    
Cu2   O6    S    
C13   C15   A    
C16   N2    A    
Cu1   O5    S    
C21   C22   S    
C1    O3    A    
C3    O7    A    
Cu1   Cu2   S    
C21   H15   S    
C23   C24   S    
C15   N1    A    
C9    C11   A    
C24   H16   S    
C17   H5    S    
C1    C12   S    
C10   C12   A    
C9    C17   S    
C8    C11   A    
C2    C11   S    
C10   C19   S    
C19   C20   S    
C6    Cl2   S    
C17   C18   S    
Cu2   N2    S    
C15   C21   S    
C2    O4    A    
C5    C6    D    
C7    C12   A    
C20   H8    S    
C23   H20   S    
C4    O6    A    
C24   H17   S    
Cu1   O4    S    
C7    Cl3   S    
C19   H10   S    
C4    C6    S    
Cu2   O3    S    
C22   H13   S    
C5    Cl1   S    
C3    O5    A    
C19   H9    S    
C8    C10   A    
C18   H1    S    
C4    O8    A    
C7    C9    A    
C23   H19   S    
Cu1   N1    S    
C24   H18   S    
C14   Cl6   S    
C13   N2    A    
C22   H11   S    
Cu2   O2    S    
Cu1   O8    S    
C13   Cl5   S    
C14   N1    A    
Cu1   O1    S    
Cu2   O7    S    
C21   H14   S    
C3    C5    S    
C8    Cl4   S    
