data_mof_unit_51738.cif
_audit_creation_date              2012-12-10T18:42:33-0500
_audit_creation_method            fapswitch 2.2
_symmetry_space_group_name_H-M    P1
_symmetry_Int_Tables_number       1
_space_group_crystal_system       triclinic
_cell_length_a                    8.585197
_cell_length_b                    10.677411
_cell_length_c                    9.903318
_cell_angle_alpha                 92.927007
_cell_angle_beta                  99.609352
_cell_angle_gamma                 90.834725
_cell_volume                      893.662872288

loop_
_atom_site_label
_atom_site_type_symbol
_atom_type_description
_atom_site_fract_x
_atom_site_fract_y
_atom_site_fract_z
_atom_type_partial_charge
C1    C     C_R   0.500842 0.260088 0.497266 0.855325
C2    C     C_R   0.399721 0.069432 0.572023 -0.238204
C3    C     C_R   0.499774 0.872153 0.507517 -0.085679
C4    C     C_R   0.498195 0.127146 0.493093 -0.069263
C5    C     C_R   0.571313 0.595097 0.088951 -0.104421
C6    C     C_R   0.427769 0.405606 0.910166 -0.094576
C7    C     C_R   0.581899 0.591409 0.947308 0.225237
C8    C     C_R   0.435013 0.400224 0.054176 0.176175
C9    C     C_3   0.950008 0.439412 0.281456 -0.341248
C10   C     C_3   0.030726 0.367762 0.177043 -0.877179
C11   C     C_3   0.026906 0.369989 0.671503 -0.395585
C12   C     C_R   0.498185 0.739599 0.502738 0.893491
C13   C     C_3   0.920814 0.259180 0.694416 -0.871290
C14   C     C_1   0.707543 0.112272 0.343910 0.127486
C15   C     C_1   0.293498 0.882773 0.658406 0.165903
C16   C     C_3   0.691983 0.686547 0.902247 -0.386673
C17   C     C_3   0.862048 0.676104 0.976723 -0.911277
C18   C     C_3   0.389889 0.278061 0.109697 -0.360295
C19   C     C_3   0.287413 0.184499 0.009288 -0.980404
C20   C     C_R   0.201461 0.481968 0.461535 0.930921
C21   C     C_R   0.797984 0.484054 0.533972 0.943157
C22   C     C_2   0.034948 0.445321 0.433218 -0.102383
C23   C     C_2   0.957932 0.437527 0.543483 -0.072807
C24   C     C_R   0.598317 0.057455 0.421212 0.006309
C25   C     C_R   0.399938 0.941100 0.580171 -0.002377
C26   C     C_R   0.598148 0.929642 0.429305 -0.229996
H1    H     H_    0.675680 0.874212 0.374994 0.149425
H2    H     H_    0.812447 0.291745 0.731173 0.286742
H3    H     H_    0.887766 0.200106 0.598131 0.262650
H4    H     H_    0.984449 0.199568 0.772907 0.243802
H5    H     H_    0.142262 0.328502 0.661232 0.223337
H6    H     H_    0.043693 0.436707 0.762895 0.222386
H7    H     H_    0.872405 0.706173 0.086799 0.249683
H8    H     H_    0.902224 0.578086 0.966935 0.271671
H9    H     H_    0.941281 0.738120 0.930389 0.269204
H10   H     H_    0.698199 0.672955 0.793492 0.276913
H11   H     H_    0.649380 0.782666 0.920758 0.196677
H12   H     H_    0.322609 0.124729 0.626806 0.145729
H13   H     H_    0.181132 0.231320 0.957783 0.270689
H14   H     H_    0.355329 0.143375 0.932418 0.270215
H15   H     H_    0.248225 0.106398 0.066534 0.276914
H16   H     H_    0.499937 0.230557 0.151270 0.239259
H17   H     H_    0.322639 0.299518 0.191799 0.255849
H18   H     H_    0.628560 0.670414 0.157470 0.151669
H19   H     H_    0.373470 0.331268 0.839566 0.160897
H20   H     H_    0.121099 0.427922 0.142742 0.280748
H21   H     H_    0.078196 0.279527 0.220217 0.273606
H22   H     H_    0.943275 0.341919 0.083248 0.245840
H23   H     H_    0.837908 0.384804 0.269631 0.268595
H24   H     H_    0.925838 0.535898 0.247854 0.212010
N1    N     N_R   0.499960 0.499970 0.857200 -0.124480
N2    N     N_R   0.500040 0.500030 0.142800 -0.130847
N3    N     N_1   0.796368 0.153203 0.281131 -0.227768
N4    N     N_1   0.208334 0.836106 0.721019 -0.209755
O1    O     O_R   0.499990 0.316750 0.614620 -0.639586
O2    O     O_R   0.500010 0.683250 0.385380 -0.616475
O3    O     O_R   0.499990 0.316780 0.385290 -0.654308
O4    O     O_R   0.500010 0.683220 0.614710 -0.633815
O5    O     O_R   0.271750 0.499990 0.587840 -0.627505
O6    O     O_R   0.728250 0.500010 0.412160 -0.651909
O7    O     O_R   0.271750 0.500010 0.358510 -0.604902
O8    O     O_R   0.728250 0.499990 0.641490 -0.620881
Zn1   Zn    Zn3+2 0.500000 0.499980 0.653120 0.923744
Zn2   Zn    Zn3+2 0.500000 0.500020 0.346880 0.913628

loop_
_geom_bond_atom_site_label_1
_geom_bond_atom_site_label_2
_ccdc_geom_bond_type
C10   H20   S    
O7    Zn2   S    
C2    C4    A    
O2    Zn2   S    
C13   H2    S    
O8    Zn1   S    
C6    H19   S    
C1    O3    A    
C6    N1    A    
C9    C10   S    
C2    H12   S    
O5    Zn1   S    
N1    Zn1   S    
C16   H11   S    
O6    Zn2   S    
C1    C4    S    
C12   O4    A    
C21   C23   S    
C21   O8    A    
C7    N1    A    
C5    N2    A    
C18   H17   S    
C16   H10   S    
C20   O5    A    
C10   H22   S    
C11   C13   S    
C26   H1    S    
C12   O2    A    
C17   H7    S    
C14   C24   S    
C21   O6    A    
C19   H13   S    
C13   H3    S    
C7    C16   S    
C5    H18   S    
C24   C26   A    
C11   H6    S    
C2    C25   A    
C19   H14   S    
C18   H16   S    
C1    O1    A    
C4    C24   A    
C9    C22   S    
C15   C25   S    
C17   H8    S    
C11   H5    S    
C20   O7    A    
C15   N4    T    
C13   H4    S    
C3    C25   A    
C14   N3    T    
C9    H23   S    
O3    Zn2   S    
C18   C19   S    
N2    Zn2   S    
C11   C23   S    
O4    Zn1   S    
C5    C7    A    
C8    N2    A    
C22   C23   D    
C6    C8    A    
C3    C12   S    
C17   H9    S    
C10   H21   S    
C3    C26   A    
C8    C18   S    
C9    H24   S    
C19   H15   S    
C20   C22   S    
C16   C17   S    
O1    Zn1   S    
