data_mof_unit_51821.cif
_audit_creation_date              2012-12-10T19:42:56-0500
_audit_creation_method            fapswitch 2.2
_symmetry_space_group_name_H-M    P1
_symmetry_Int_Tables_number       1
_space_group_crystal_system       triclinic
_cell_length_a                    10.795706
_cell_length_b                    12.990906
_cell_length_c                    11.669564
_cell_angle_alpha                 99.756801
_cell_angle_beta                  93.486351
_cell_angle_gamma                 90.545015
_cell_volume                      1609.62591621

loop_
_atom_site_label
_atom_site_type_symbol
_atom_type_description
_atom_site_fract_x
_atom_site_fract_y
_atom_site_fract_z
_atom_type_partial_charge
C1    C     C_R   0.498711 0.299171 0.478713 0.854668
C2    C     C_R   0.501288 0.700829 0.521287 0.854669
C3    C     C_R   0.871225 0.501175 0.498363 -0.154421
C4    C     C_R   0.128775 0.498820 0.501634 -0.154432
C5    C     C_R   0.939718 0.594928 0.535096 -0.051166
C6    C     C_R   0.060281 0.405075 0.464863 -0.051194
C7    C     C_R   0.498216 0.814011 0.533473 -0.135052
C8    C     C_R   0.501780 0.185989 0.466525 -0.134893
C9    C     C_R   0.521105 0.016714 0.346179 0.384115
C10   C     C_R   0.478879 0.983285 0.653817 0.384304
C11   C     C_R   0.517479 0.124750 0.357802 -0.165320
C12   C     C_R   0.482502 0.875250 0.642193 -0.165135
C13   C     C_R   0.489933 0.139233 0.564593 -0.203382
C14   C     C_R   0.510067 0.860766 0.435406 -0.203319
C15   C     C_R   0.492119 0.031029 0.555269 -0.007923
C16   C     C_R   0.507873 0.968970 0.444728 -0.007755
C17   C     C_R   0.395774 0.392085 0.021351 -0.253623
C18   C     C_R   0.604224 0.607916 0.978649 -0.253637
C19   C     C_R   0.404321 0.403581 0.143654 0.122857
C20   C     C_R   0.595670 0.596423 0.856347 0.122887
C21   C     C_R   0.542978 0.548198 0.157340 0.065460
C22   C     C_R   0.457027 0.451797 0.842660 0.065476
C23   C     C_R   0.262462 0.498664 0.500469 0.850680
C24   C     C_R   0.737539 0.501331 0.499530 0.850684
C25   C     C_R   0.537315 0.539617 0.034404 0.044390
C26   C     C_R   0.462688 0.460379 0.965596 0.044382
C27   C     C_R   0.197986 0.169939 0.283775 0.414680
C28   C     C_R   0.801795 0.830136 0.715862 0.414587
C29   C     C_R   0.152362 0.270378 0.317021 -0.170554
C30   C     C_R   0.847419 0.729683 0.682730 -0.170505
C31   C     C_R   0.122751 0.304400 0.432545 0.053111
C32   C     C_R   0.877251 0.695622 0.567280 0.053062
C33   C     C_R   0.141302 0.237963 0.514921 -0.133460
C34   C     C_R   0.858915 0.762036 0.484855 -0.133428
C35   C     C_R   0.185487 0.137308 0.481166 -0.186166
C36   C     C_R   0.814732 0.862706 0.518499 -0.186057
C37   C     C_R   0.212670 0.102972 0.365532 -0.132464
C38   C     C_R   0.787333 0.897084 0.634066 -0.132465
C39   C     C_R   0.930631 0.406511 0.462673 0.120582
C40   C     C_R   0.069369 0.593482 0.537319 0.120570
Cu1   Cu    Cu3+1 0.509250 0.507730 0.615930 0.978491
Cu2   Cu    Cu3+1 0.490750 0.492270 0.384070 0.978482
H1    H     H_    0.246144 0.024696 0.339832 0.184277
H2    H     H_    0.753873 0.975374 0.659679 0.184231
H3    H     H_    0.399107 0.391608 0.788947 0.125925
H4    H     H_    0.600903 0.608384 0.211052 0.125930
H5    H     H_    0.646783 0.649791 0.814311 0.149855
H6    H     H_    0.353195 0.350221 0.185691 0.149824
H7    H     H_    0.337630 0.330084 0.970948 0.186572
H8    H     H_    0.662362 0.669919 0.029052 0.186514
H9    H     H_    0.137113 0.320847 0.252744 0.160295
H10   H     H_    0.862493 0.679235 0.747047 0.160238
H11   H     H_    0.117999 0.263090 0.604185 0.162169
H12   H     H_    0.882390 0.736886 0.395649 0.162178
H13   H     H_    0.197999 0.085645 0.544459 0.188943
H14   H     H_    0.802397 0.914349 0.455171 0.188983
H15   H     H_    0.522625 0.812152 0.352172 0.209431
H16   H     H_    0.477381 0.187848 0.647828 0.209426
H17   H     H_    0.472741 0.839178 0.718430 0.222213
H18   H     H_    0.527226 0.160820 0.281563 0.222130
N1    N     N_R   0.523180 0.519350 0.790130 -0.194882
N2    N     N_R   0.476820 0.480650 0.209870 -0.194878
O1    O     O_R   0.506570 0.354460 0.582000 -0.590776
O2    O     O_R   0.493430 0.645540 0.418000 -0.590768
O3    O     O_R   0.490940 0.341410 0.386200 -0.586646
O4    O     O_R   0.509060 0.658590 0.613800 -0.586625
O5    O     O_R   0.327460 0.506540 0.597900 -0.570244
O6    O     O_R   0.672540 0.493460 0.402100 -0.570245
O7    O     O_R   0.311830 0.493480 0.402100 -0.583959
O8    O     O_R   0.688170 0.506520 0.597900 -0.583967
Cl1   Cl    Cl    0.234574 0.127193 0.139249 -0.530492
Cl2   Cl    Cl    0.764907 0.872916 0.860297 -0.530547
I1    I     I_    0.824960 0.264594 0.406068 -0.307769
I2    I     I_    0.175043 0.735393 0.593941 -0.307755
Cl3   Cl    Cl    0.541250 0.945144 0.206149 -0.520799
Cl4   Cl    Cl    0.458722 0.054856 0.793845 -0.520572

loop_
_geom_bond_atom_site_label_1
_geom_bond_atom_site_label_2
_ccdc_geom_bond_type
C8    C13   A    
C27   C29   A    
C1    C8    S    
Cu1   Cu2   S    
C23   O7    A    
C2    C7    S    
Cu1   N1    S    
C24   O8    A    
Cu1   O5    S    
C17   C26   A    
C35   C37   A    
C9    C16   A    
C10   C15   A    
C19   N2    A    
C15   C16   A    
C23   O5    A    
C20   N1    A    
C21   C25   A    
C17   C19   A    
C12   H17   S    
C10   Cl4   S    
C7    C14   A    
C4    C40   A    
Cu2   O3    S    
C1    O3    A    
C31   C33   A    
Cu2   N2    S    
C18   C20   A    
C5    C32   S    
C6    C31   S    
C3    C39   A    
Cu2   O6    S    
C3    C24   S    
C28   Cl2   S    
C18   C25   A    
C1    O1    A    
C2    O2    A    
C33   H11   S    
C7    C12   A    
C35   H13   S    
C4    C6    A    
C17   H7    S    
C4    C23   S    
C19   H6    S    
C13   H16   S    
C3    C5    A    
C25   C26   A    
Cu2   O7    S    
C32   C34   A    
C37   H1    S    
C38   H2    S    
C36   H14   S    
C28   C38   A    
C9    C11   A    
C21   N2    A    
C10   C12   A    
C34   H12   S    
C13   C15   A    
C14   C16   A    
Cu1   O1    S    
C11   H18   S    
Cu2   O2    S    
C27   Cl1   S    
C18   H8    S    
C21   H4    S    
C29   H9    S    
C14   H15   S    
C30   H10   S    
C2    O4    A    
Cu1   O4    S    
C28   C30   A    
C29   C31   A    
C22   N1    A    
C30   C32   A    
C27   C37   A    
C8    C11   A    
C36   C38   A    
C33   C35   A    
C40   I2    S    
C34   C36   A    
C39   I1    S    
C20   H5    S    
C24   O6    A    
C22   H3    S    
C22   C26   A    
C5    C40   A    
C6    C39   A    
C9    Cl3   S    
Cu1   O8    S    
