data_mof_unit_51269.cif
_audit_creation_date              2013-03-05T15:55:17-0500
_audit_creation_method            fapswitch 2.2
_symmetry_space_group_name_H-M    P1
_symmetry_Int_Tables_number       1
_space_group_crystal_system       triclinic
_cell_length_a                    6.93091
_cell_length_b                    16.838957
_cell_length_c                    17.041594
_cell_angle_alpha                 100.366326
_cell_angle_beta                  89.869719
_cell_angle_gamma                 90.438529
_cell_volume                      1956.39008227

loop_
_atom_site_label
_atom_site_type_symbol
_atom_site_description
_atom_site_fract_x
_atom_site_fract_y
_atom_site_fract_z
_atom_type_partial_charge
O1    O     O_R   0.494370 0.415690 0.413450 -0.580723
O2    O     O_R   0.819420 0.429360 0.578420 -0.589348
O3    O     O_R   0.994280 0.584310 0.586550 -0.587342
C1    C     C_R   0.652484 0.415536 0.606996 0.971609
O4    O     O_R   0.823790 0.406230 0.413570 -0.586937
O5    O     O_R   0.998670 0.561000 0.420530 -0.564847
C2    C     C_R   0.654294 0.384604 0.383402 0.956620
O6    O     O_R   0.489970 0.439000 0.579470 -0.581814
O7    O     O_3   0.662300 0.550810 0.502470 -0.252568
V1    V     V_3+5 0.935380 0.490570 0.499540 1.217348
O8    O     O_R   0.328650 0.570640 0.421580 -0.587908
C3    C     C_R   0.160854 0.588501 0.396676 1.016778
O9    O     O_R   0.324290 0.593770 0.586430 -0.594918
C4    C     C_R   0.155220 0.617442 0.614493 0.991774
V2    V     V_3+5 0.435930 0.509430 0.500460 1.217754
O10   O     O_3   0.159140 0.449190 0.497530 -0.262805
C5    C     C_R   0.294049 0.741605 0.701383 -0.074404
H1    H     H_    0.420941 0.737712 0.663706 0.135585
C6    C     C_R   0.280982 0.804746 0.767018 -0.076170
H2    H     H_    0.397768 0.848480 0.777369 0.138634
C7    C     C_R   0.119926 0.811885 0.818443 -0.308778
C8    C     C_R   0.970654 0.752963 0.802664 0.368733
C9    C     C_R   0.980974 0.692645 0.733971 -0.193896
H3    H     H_    0.865165 0.648608 0.722114 0.182357
C10   C     C_R   0.143402 0.685227 0.683680 -0.184873
C11   C     C_R   0.162040 0.642534 0.336228 -0.204781
C12   C     C_R   0.099162 0.864392 0.168959 -0.132211
C13   C     C_R   0.919068 0.821831 0.277558 -0.162198
C14   C     C_R   0.942959 0.873070 0.222423 -0.159607
C15   C     C_R   0.234254 0.803534 0.172527 -0.221635
C16   C     C_R   0.209305 0.750369 0.227247 0.169301
C17   C     C_R   0.050097 0.759101 0.280781 0.138820
C18   C     C_R   0.026789 0.705409 0.336013 0.082575
C19   C     C_R   0.316712 0.634966 0.281705 -0.116977
C20   C     C_R   0.340369 0.687979 0.228324 -0.178977
H4    H     H_    0.422612 0.587818 0.280968 0.166286
H5    H     H_    0.794621 0.831591 0.316201 0.159661
H6    H     H_    0.462411 0.680198 0.187841 0.150614
H7    H     H_    0.836275 0.919501 0.220912 0.126245
H8    H     H_    0.353868 0.795534 0.130784 0.149779
C21   C     C_R   0.657017 0.365795 0.671504 -0.196276
C22   C     C_R   0.609231 0.136235 0.830914 -0.134655
C23   C     C_R   0.430445 0.179116 0.722015 -0.192990
C24   C     C_R   0.456278 0.125844 0.775438 -0.147319
C25   C     C_R   0.737965 0.200975 0.831094 -0.248271
C26   C     C_R   0.710174 0.255859 0.778409 0.166916
C27   C     C_R   0.555330 0.245166 0.723409 0.211006
C28   C     C_R   0.529076 0.300194 0.670566 -0.291313
C29   C     C_R   0.807743 0.376869 0.729102 0.218577
C30   C     C_R   0.832848 0.322330 0.781153 -0.245447
H9    H     H_    0.414022 0.290213 0.626833 0.145767
H10   H     H_    0.310673 0.169356 0.680559 0.125758
H11   H     H_    0.949824 0.331990 0.823998 0.161705
H12   H     H_    0.353793 0.076742 0.774326 0.123825
H13   H     H_    0.853899 0.210716 0.874448 0.138192
C31   C     C_R   0.793021 0.261703 0.297533 -0.134091
H14   H     H_    0.919028 0.267627 0.335665 0.148097
C32   C     C_R   0.784300 0.197157 0.233034 -0.120164
H15   H     H_    0.903939 0.155528 0.223027 0.123586
C33   C     C_R   0.621665 0.185539 0.183100 -0.157887
C34   C     C_R   0.470128 0.240819 0.198058 -0.179681
H16   H     H_    0.345420 0.233968 0.159155 0.154905
C35   C     C_R   0.479077 0.306770 0.261158 0.212294
C36   C     C_R   0.640962 0.317315 0.313280 -0.195389
O11   O     O_R   0.774880 0.061150 0.920630 -0.597058
O12   O     O_R   0.440980 0.093710 0.086500 -0.601751
O13   O     O_R   0.266190 0.938890 0.079390 -0.598006
C37   C     C_R   0.610226 0.116689 0.115140 0.928059
O14   O     O_R   0.445420 0.070740 0.921670 -0.599783
O15   O     O_R   0.270660 0.915760 0.913380 -0.590956
C38   C     C_R   0.612799 0.085694 0.894224 0.929609
O16   O     O_R   0.770400 0.084270 0.086640 -0.603563
O17   O     O_3   0.602590 0.949210 0.997500 -0.244396
V3    V     V_3+5 0.329470 0.009420 0.000470 1.177844
O18   O     O_R   0.940650 0.906250 0.913470 -0.567759
C39   C     C_R   0.109592 0.881828 0.886049 0.990259
O19   O     O_R   0.936210 0.929220 0.078300 -0.581602
C40   C     C_R   0.103237 0.914060 0.105311 0.961720
V4    V     V_3+5 0.828930 0.990510 0.999490 1.207883
O20   O     O_3   0.105680 0.050790 0.002500 -0.284873
I1    I     I_    0.006208 0.475045 0.745206 -0.356458
I2    I     I_    0.245571 0.388838 0.265896 -0.418721
N1    N     N_R   0.814981 0.749736 0.857931 0.238536
O21   O     O_R   0.851466 0.755601 0.933650 -0.379621
O22   O     O_R   0.645116 0.724563 0.831679 -0.405564
I3    I     I_    0.799460 0.723827 0.423099 -0.427700

loop_
_geom_bond_atom_site_label_1
_geom_bond_atom_site_label_2
_geom_bond_distance
_ccdc_geom_bond_type
O12   C37   1.300621 A    
O11   V4    1.986386 S    
C12   C14   1.404847 A    
O17   V3    2.150421 S    
C6    H2    1.083244 S    
C1    O6    1.311790 A    
C12   C40   1.484166 S    
O19   C40   1.290908 A    
C7    C39   1.494049 S    
N1    O21   1.301551 A    
C13   C14   1.394113 A    
C6    C7    1.410048 A    
O16   V4    2.006536 S    
O5    C3    1.304205 A    
C15   C16   1.413614 A    
C23   H10   1.083527 S    
C1    C21   1.497649 S    
C32   C33   1.405013 A    
V2    O10   2.159666 S    
O12   V3    2.000198 S    
C31   H14   1.082998 S    
O14   C38   1.289735 A    
C19   C20   1.393065 A    
C29   I1    2.122283 S    
C34   C35   1.401056 A    
O8    V2    1.984219 S    
C11   C19   1.408457 A    
C28   H9    1.084057 S    
C27   C28   1.416428 A    
O11   C38   1.308287 A    
O15   V3    2.001685 S    
C9    H3    1.082903 S    
C31   C36   1.408203 A    
O1    V2    2.004761 S    
O7    V1    2.150459 S    
V3    O20   1.702916 S    
O9    C4    1.302588 A    
C12   C15   1.402830 A    
O13   C40   1.304790 A    
C22   C24   1.410816 A    
C21   C29   1.423159 A    
O19   V4    1.984165 S    
C30   H11   1.083886 S    
C35   I2    2.128152 S    
C13   C17   1.406886 A    
C20   H6    1.084029 S    
O4    C2    1.306064 A    
C32   H15   1.083183 S    
C25   C26   1.414021 A    
V4    O20   2.159650 S    
C3    C11   1.492060 S    
C33   C34   1.401049 A    
C22   C25   1.403022 A    
O2    C1    1.290015 A    
O18   C39   1.301642 A    
C11   C18   1.419978 A    
C16   C17   1.421669 A    
C37   O16   1.295276 A    
C14   H7    1.083916 S    
C5    H1    1.083153 S    
O17   V4    1.709037 S    
C15   H8    1.084449 S    
O14   V3    1.999187 S    
O13   V3    1.993959 S    
C25   H13   1.084203 S    
O3    C4    1.295973 A    
N1    O22   1.300925 A    
O6    V2    1.985827 S    
O9    V2    2.006231 S    
C23   C24   1.400969 A    
O15   C39   1.298641 A    
C16   C20   1.396732 A    
O2    V1    1.999084 S    
C26   C27   1.415488 A    
O1    C2    1.294075 A    
O5    V1    1.993969 S    
O8    C3    1.294848 A    
C26   C30   1.394531 A    
C5    C10   1.402009 A    
C8    N1    1.437718 S    
O7    V2    1.709744 S    
O4    V1    2.000274 S    
O3    V1    2.001871 S    
V1    O10   1.702814 S    
C17   C18   1.425760 A    
C23   C27   1.400939 A    
C13   H5    1.079475 S    
C22   C38   1.489910 S    
C5    C6    1.400995 A    
C21   C28   1.409090 A    
C31   C32   1.400900 A    
C19   H4    1.083748 S    
C9    C10   1.405961 A    
C4    C10   1.488760 S    
C34   H16   1.083264 S    
C2    C36   1.494002 S    
C35   C36   1.422717 A    
C24   H12   1.083501 S    
C33   C37   1.485779 S    
C29   C30   1.398880 A    
C8    C9    1.407122 A    
C7    C8    1.420087 A    
O18   V4    2.006179 S    
C18   I3    2.147655 S    
