data_mof_unit_51292.cif
_audit_creation_date              2012-12-11T14:29:38-0500
_audit_creation_method            fapswitch 2.2
_symmetry_space_group_name_H-M    P1
_symmetry_Int_Tables_number       1
_space_group_crystal_system       triclinic
_cell_length_a                    6.941087
_cell_length_b                    14.739034
_cell_length_c                    16.232184
_cell_angle_alpha                 90.477161
_cell_angle_beta                  89.987331
_cell_angle_gamma                 89.984214
_cell_volume                      1660.57454994

loop_
_atom_site_label
_atom_site_type_symbol
_atom_type_description
_atom_site_fract_x
_atom_site_fract_y
_atom_site_fract_z
_atom_type_partial_charge
O1    O     O_R   0.494400 0.416610 0.413880 -0.548681
O2    O     O_R   0.823920 0.406790 0.585520 -0.540727
O3    O     O_R   0.994250 0.583390 0.586120 -0.539725
C1    C     C_R   0.654688 0.385116 0.613571 0.786901
O4    O     O_R   0.824110 0.405730 0.414490 -0.546237
O5    O     O_R   0.994440 0.582310 0.413870 -0.545390
C2    C     C_R   0.654895 0.383695 0.386329 0.722005
O6    O     O_R   0.494210 0.417690 0.586130 -0.510534
O7    O     O_3   0.660810 0.557940 0.500000 -0.378887
V1    V     V_3+5 0.935650 0.489250 0.500000 1.451301
O8    O     O_R   0.324160 0.593210 0.414480 -0.551694
C3    C     C_R   0.155439 0.614992 0.386354 0.712791
O9    O     O_R   0.323970 0.594270 0.585510 -0.520043
C4    C     C_R   0.155089 0.615552 0.614383 0.831952
V2    V     V_3+5 0.435660 0.510750 0.500000 1.473905
O10   O     O_3   0.160630 0.442060 0.500000 -0.369437
H1    H     H_    0.890171 0.901523 0.513362 0.113031
C5    C     C_R   0.273159 0.569999 0.783407 0.589258
C6    C     C_R   0.333851 0.548837 0.862818 -0.166644
C7    C     C_R   0.326098 0.613385 0.925373 -0.224445
C8    C     C_R   0.256161 0.699868 0.909463 -0.137992
C9    C     C_R   0.194817 0.724409 0.829531 0.011371
C10   C     C_R   0.205228 0.658648 0.764424 -0.045390
C11   C     C_R   0.119910 0.812372 0.814704 -0.150841
C12   C     C_R   0.056412 0.835241 0.734537 0.078727
C13   C     C_R   0.069545 0.770640 0.668973 0.053430
C14   C     C_R   0.144363 0.682483 0.683547 -0.192948
C15   C     C_R   0.982664 0.922759 0.717719 -0.146834
C16   C     C_R   0.922528 0.945853 0.638770 -0.123772
C17   C     C_R   0.935921 0.883055 0.574740 -0.113308
C18   C     C_R   0.009142 0.796614 0.589201 -0.141282
H2    H     H_    0.385685 0.481226 0.876144 0.144172
H3    H     H_    0.372372 0.595995 0.986950 0.143206
H4    H     H_    0.249417 0.746850 0.960920 0.120453
H5    H     H_    0.971516 0.974563 0.765079 0.105359
H6    H     H_    0.866328 0.013080 0.627151 0.116780
H7    H     H_    0.018592 0.750838 0.536931 0.092101
C19   C     C_2   0.985403 0.709740 0.283004 -0.133303
C20   C     C_2   0.150306 0.682751 0.319507 -0.306237
H8    H     H_    0.849461 0.681669 0.303958 0.135918
H9    H     H_    0.287868 0.710258 0.300669 0.127452
C21   C     C_2   0.973090 0.777222 0.215026 -0.134809
C22   C     C_2   0.126259 0.814458 0.177077 -0.310957
H10   H     H_    0.829134 0.796241 0.195423 0.134911
H11   H     H_    0.271332 0.796057 0.194838 0.128852
C23   C     C_2   0.779339 0.207760 0.781163 -0.134449
C24   C     C_2   0.614211 0.179624 0.816629 -0.308922
H12   H     H_    0.915367 0.179571 0.801923 0.138089
H13   H     H_    0.476257 0.206215 0.797297 0.132178
C25   C     C_2   0.791379 0.276221 0.714164 -0.143239
C26   C     C_2   0.638241 0.317675 0.680049 -0.282244
H14   H     H_    0.934962 0.292634 0.692242 0.153997
H15   H     H_    0.493436 0.302611 0.700506 0.151379
C27   C     C_2   0.779186 0.208968 0.213934 -0.130930
C28   C     C_2   0.614056 0.181880 0.177382 -0.310145
H16   H     H_    0.914975 0.180239 0.193061 0.137168
H17   H     H_    0.476576 0.209929 0.196090 0.126971
C29   C     C_2   0.791695 0.277476 0.281867 -0.136355
C30   C     C_2   0.638355 0.315420 0.319559 -0.304079
H18   H     H_    0.935629 0.296624 0.301654 0.133963
H19   H     H_    0.493285 0.296923 0.301684 0.128139
O11   O     O_R   0.770210 0.079270 0.910680 -0.541016
O12   O     O_R   0.440150 0.091160 0.082270 -0.545653
O13   O     O_R   0.269970 0.914530 0.082860 -0.544490
C31   C     C_R   0.608797 0.113258 0.110487 0.743820
O14   O     O_R   0.440480 0.090100 0.911240 -0.544747
O15   O     O_R   0.270310 0.913460 0.910610 -0.536676
C32   C     C_R   0.609168 0.111732 0.883111 0.746497
O16   O     O_R   0.769870 0.080340 0.082930 -0.538784
O17   O     O_3   0.603660 0.938980 0.996790 -0.369600
V3    V     V_3+5 0.328750 0.007610 0.996740 1.406145
O18   O     O_R   0.940600 0.902510 0.911180 -0.538907
C33   C     C_R   0.109518 0.880745 0.882774 0.691567
O19   O     O_R   0.940270 0.903570 0.082200 -0.540215
C34   C     C_R   0.109540 0.881873 0.110349 0.735130
V4    V     V_3+5 0.828770 0.986010 0.996670 1.418723
O20   O     O_3   0.103730 0.054750 0.996710 -0.373870
F1    F     F_    0.277771 0.501726 0.726919 -0.713203

loop_
_geom_bond_atom_site_label_1
_geom_bond_atom_site_label_2
_ccdc_geom_bond_type
O14   C32   A    
O12   C31   A    
C6    C7    A    
C1    O6    A    
C24   H13   S    
C12   C15   A    
C16   H6    S    
C13   C14   A    
O19   V4    S    
C15   C16   A    
C19   C21   S    
O5    C3    A    
C17   C18   A    
C11   C33   S    
C29   H18   S    
V2    O10   S    
O16   V4    S    
C5    C6    A    
O13   V3    S    
C23   C24   D    
O8    V2    S    
C15   H5    S    
C25   H14   S    
O17   V3    S    
O15   C33   A    
C10   C14   A    
C4    C14   S    
O7    V1    S    
O18   V4    S    
C13   C18   A    
O9    C4    A    
H1    C17   S    
O11   V4    S    
C21   H10   S    
C6    H2    S    
C2    C30   S    
C28   C31   S    
C23   H12   S    
C22   C34   S    
C27   H16   S    
C30   H19   S    
O19   C34   A    
C1    C26   S    
C5    C10   A    
V4    O20   S    
C20   H9    S    
O4    C2    A    
C8    H4    S    
C12   C13   A    
C18   H7    S    
C26   H15   S    
O2    C1    A    
C16   C17   A    
O14   V3    S    
C5    F1    S    
C25   C26   D    
C11   C12   A    
C22   H11   S    
O3    C4    A    
O1    V2    S    
C7    H3    S    
O12   V3    S    
O6    V2    S    
C28   H17   S    
O17   V4    S    
C9    C11   A    
C29   C30   D    
C21   C22   D    
O2    V1    S    
C24   C32   S    
V3    O20   S    
C27   C29   S    
C27   C28   D    
O1    C2    A    
O18   C33   A    
O5    V1    S    
O8    C3    A    
C23   C25   S    
O11   C32   A    
C3    C20   S    
O9    V2    S    
O7    V2    S    
O4    V1    S    
O3    V1    S    
V1    O10   S    
C19   H8    S    
C19   C20   D    
C31   O16   A    
O13   C34   A    
O15   V3    S    
C7    C8    A    
C9    C10   A    
C8    C9    A    
