data_mof_unit_5818.cif
_audit_creation_date              2012-12-10T17:40:52-0500
_audit_creation_method            fapswitch 2.2
_symmetry_space_group_name_H-M    P1
_symmetry_Int_Tables_number       1
_space_group_crystal_system       triclinic
_cell_length_a                    15.052587
_cell_length_b                    15.453518
_cell_length_c                    9.967663
_cell_angle_alpha                 89.819559
_cell_angle_beta                  91.811166
_cell_angle_gamma                 89.991859
_cell_volume                      2317.46225408

loop_
_atom_site_label
_atom_site_type_symbol
_atom_type_description
_atom_site_fract_x
_atom_site_fract_y
_atom_site_fract_z
_atom_type_partial_charge
C1    C     C_R   0.386040 0.874909 0.498870 1.041532
C2    C     C_R   0.385650 0.124807 0.498457 1.041985
C3    C     C_R   0.886040 0.374909 0.498870 1.041532
C4    C     C_R   0.885650 0.624807 0.498457 1.041985
C5    C     C_R   0.271636 0.211755 0.381299 0.605019
C6    C     C_R   0.274719 0.785929 0.380734 0.601715
C7    C     C_R   0.771636 0.711755 0.381299 0.605018
C8    C     C_R   0.774719 0.285929 0.380734 0.601715
C9    C     C_R   0.701415 0.767621 0.387169 0.579276
C10   C     C_R   0.704387 0.230201 0.385780 0.581702
C11   C     C_R   0.201415 0.267621 0.387169 0.579276
C12   C     C_R   0.204387 0.730201 0.385780 0.581702
C13   C     C_R   0.682823 0.808882 0.508436 -0.292708
C14   C     C_R   0.683325 0.190719 0.507735 -0.294249
C15   C     C_R   0.182823 0.308882 0.508436 -0.292708
C16   C     C_R   0.183325 0.690719 0.507735 -0.294249
C17   C     C_R   0.333970 0.999421 0.130874 0.777895
C18   C     C_R   0.833970 0.499421 0.130874 0.777895
C19   C     C_R   0.254630 0.998758 0.058697 -0.242927
C20   C     C_R   0.754630 0.498758 0.058697 -0.242927
C21   C     C_R   0.253542 0.998795 0.922769 0.047174
C22   C     C_R   0.753542 0.498795 0.922769 0.047174
C23   C     C_R   0.332485 0.999344 0.855513 0.585063
C24   C     C_R   0.832485 0.499344 0.855513 0.585063
C25   C     C_R   0.418441 0.999672 0.923981 -0.082753
C26   C     C_R   0.918441 0.499672 0.923981 -0.082753
C27   C     C_R   0.418763 0.999710 0.068991 -0.113643
C28   C     C_R   0.918763 0.499710 0.068991 -0.113643
C29   C     C_R   0.576553 0.000266 0.073166 0.355551
C30   C     C_R   0.076553 0.500266 0.073166 0.355551
C31   C     C_R   0.618101 0.122027 0.502126 0.932321
C32   C     C_R   0.618042 0.877939 0.502407 0.932686
C33   C     C_R   0.118101 0.622027 0.502126 0.932322
C34   C     C_R   0.118042 0.377939 0.502407 0.932686
C35   C     C_R   0.575996 0.000307 0.931239 -0.113659
C36   C     C_R   0.075996 0.500307 0.931239 -0.113659
C37   C     C_R   0.381721 0.256940 0.713666 0.089952
C38   C     C_R   0.377969 0.745810 0.720597 0.094491
C39   C     C_R   0.881721 0.756939 0.713666 0.089952
C40   C     C_R   0.877969 0.245810 0.720597 0.094491
C41   C     C_R   0.358468 0.276494 0.845049 0.087876
C42   C     C_R   0.351522 0.728018 0.851324 0.085929
C43   C     C_R   0.858468 0.776495 0.845049 0.087876
C44   C     C_R   0.851522 0.228018 0.851324 0.085929
C45   C     C_R   0.770927 0.799205 0.868900 0.613877
C46   C     C_R   0.763351 0.205882 0.871413 0.613836
C47   C     C_R   0.270927 0.299205 0.868900 0.613877
C48   C     C_R   0.263351 0.705882 0.871413 0.613836
C49   C     C_R   0.710817 0.811261 0.760965 -0.221184
C50   C     C_R   0.705706 0.192531 0.761112 -0.222296
C51   C     C_R   0.210817 0.311261 0.760965 -0.221184
C52   C     C_R   0.205706 0.692531 0.761112 -0.222296
C53   C     C_R   0.734373 0.790231 0.627675 -0.045471
C54   C     C_R   0.732527 0.211058 0.628319 -0.045505
C55   C     C_R   0.234373 0.290231 0.627675 -0.045471
C56   C     C_R   0.232527 0.711058 0.628319 -0.045505
C57   C     C_R   0.315080 0.247765 0.612205 -0.059674
C58   C     C_R   0.313745 0.753082 0.614925 -0.058872
C59   C     C_R   0.815080 0.747765 0.612205 -0.059674
C60   C     C_R   0.813745 0.253082 0.614925 -0.058872
C61   C     C_R   0.327103 0.199020 0.494788 -0.326303
C62   C     C_R   0.328026 0.800270 0.496015 -0.328124
C63   C     C_R   0.827103 0.699020 0.494788 -0.326303
C64   C     C_R   0.828026 0.300270 0.496015 -0.328124
H1    H     H_    0.638225 0.000567 0.879782 0.152887
H2    H     H_    0.138225 0.500567 0.879782 0.152887
H3    H     H_    0.645392 0.831485 0.787564 0.223157
H4    H     H_    0.639399 0.173375 0.785106 0.223291
H5    H     H_    0.145392 0.331485 0.787564 0.223158
H6    H     H_    0.139399 0.673375 0.785106 0.223291
H7    H     H_    0.192298 0.998538 0.110317 0.247004
H8    H     H_    0.692298 0.498538 0.110317 0.247004
N1    N     N_R   0.498810 0.000000 0.142780 -0.124364
N2    N     N_R   0.998810 0.500000 0.142780 -0.124364
N3    N     N_R   0.498740 0.000000 0.857170 -0.107488
N4    N     N_R   0.998740 0.500000 0.857170 -0.107488
O1    O     O_R   0.408390 0.908380 0.614690 -0.559021
O2    O     O_R   0.408390 0.091620 0.614690 -0.559530
O3    O     O_R   0.908390 0.408380 0.614690 -0.559021
O4    O     O_R   0.908390 0.591620 0.614690 -0.559530
O5    O     O_R   0.408370 0.908380 0.385360 -0.515075
O6    O     O_R   0.408370 0.091620 0.385360 -0.516189
O7    O     O_R   0.908370 0.408380 0.385360 -0.515075
O8    O     O_R   0.908370 0.591620 0.385360 -0.516189
O9    O     O_R   0.591620 0.091610 0.614640 -0.656817
O10   O     O_R   0.591620 0.908390 0.614640 -0.656023
O11   O     O_R   0.091620 0.591610 0.614640 -0.656817
O12   O     O_R   0.091620 0.408390 0.614640 -0.656023
O13   O     O_R   0.591610 0.091610 0.385310 -0.561424
O14   O     O_R   0.591610 0.908390 0.385310 -0.562132
O15   O     O_R   0.091610 0.591610 0.385310 -0.561424
O16   O     O_R   0.091610 0.408390 0.385310 -0.562132
Zn1   Zn    Zn3+2 0.500010 0.000000 0.653130 1.010876
Zn2   Zn    Zn3+2 0.000010 0.500000 0.653130 1.010876
Zn3   Zn    Zn3+2 0.499980 0.000000 0.346870 1.137442
Zn4   Zn    Zn3+2 0.999980 0.500000 0.346870 1.137442
F1    F     F_    0.284432 0.170324 0.263677 -0.575454
F2    F     F_    0.289417 0.826043 0.262186 -0.576578
F3    F     F_    0.784432 0.670324 0.263677 -0.575454
F4    F     F_    0.789417 0.326043 0.262186 -0.576578
I1    I     I_    0.128543 0.998727 0.819255 -0.102233
I2    I     I_    0.628543 0.498727 0.819255 -0.102233
F5    F     F_    0.316858 0.999805 0.723984 -0.610328
F6    F     F_    0.816858 0.499805 0.723984 -0.610328
I3    I     I_    0.508389 0.293779 0.650706 -0.276880
I4    I     I_    0.507885 0.712128 0.668495 -0.273684
I5    I     I_    0.008389 0.793779 0.650706 -0.276880
I6    I     I_    0.007885 0.212128 0.668495 -0.273685
I7    I     I_    0.452930 0.273072 0.007845 -0.051130
I8    I     I_    0.441951 0.733135 0.019153 -0.047172
I9    I     I_    0.952930 0.773072 0.007845 -0.051130
I10   I     I_    0.941951 0.233135 0.019153 -0.047172
F7    F     F_    0.745159 0.815281 0.995557 -0.586458
F8    F     F_    0.734535 0.191652 0.997108 -0.579996
F9    F     F_    0.245159 0.315281 0.995557 -0.586458
F10   F     F_    0.234535 0.691652 0.997108 -0.579996
F11   F     F_    0.649322 0.778063 0.274315 -0.558001
F12   F     F_    0.654334 0.218563 0.271313 -0.552590
F13   F     F_    0.149322 0.278063 0.274315 -0.558001
F14   F     F_    0.154334 0.718563 0.271313 -0.552590
I11   I     I_    0.704032 0.000545 0.169046 -0.030472
I12   I     I_    0.204032 0.500545 0.169046 -0.030472
F15   F     F_    0.319669 0.000118 0.261175 -0.576129
F16   F     F_    0.819669 0.500118 0.261175 -0.576129

loop_
_geom_bond_atom_site_label_1
_geom_bond_atom_site_label_2
_ccdc_geom_bond_type
C58   C62   A    
C49   C53   A    
O13   Zn3   S    
C31   O9    A    
C9    F11   S    
C13   C32   S    
C19   H7    S    
C14   C31   S    
C28   N2    A    
C1    C62   S    
C53   C59   A    
O14   Zn3   S    
C54   C60   A    
C3    C64   S    
C39   I5    S    
C4    C63   S    
C35   N3    A    
C50   C54   A    
C7    F3    S    
C2    O2    A    
C6    F2    S    
C19   C21   A    
C24   C26   A    
C4    O4    A    
C33   O15   A    
C6    C12   A    
C30   N2    A    
C36   H2    S    
C29   N1    A    
C35   H1    S    
O2    Zn1   S    
C1    O5    A    
O11   Zn2   S    
O16   Zn4   S    
C1    O1    A    
C39   C59   A    
O8    Zn4   S    
C9    C13   A    
C36   N4    A    
N4    Zn2   S    
O15   Zn4   S    
C12   F14   S    
C11   C15   A    
C17   F15   S    
C32   O14   A    
C30   I12   S    
C31   O13   A    
C29   I11   S    
C26   N4    A    
C40   C44   A    
C15   C34   S    
C18   C20   A    
C2    C61   S    
C40   I6    S    
C21   I1    S    
C11   F13   S    
C41   I7    S    
C37   C41   A    
C43   I9    S    
C12   C16   A    
C44   C46   A    
C13   C53   A    
O12   Zn2   S    
C46   F8    S    
C17   C27   A    
N2    Zn4   S    
C18   C28   A    
O3    Zn2   S    
C10   C14   A    
C39   C43   A    
C24   F6    S    
C15   C55   A    
C38   I4    S    
C42   C48   A    
C47   F9    S    
C16   C56   A    
C37   I3    S    
C10   F12   S    
O10   Zn1   S    
C16   C33   S    
O9    Zn1   S    
C4    O8    A    
C45   C49   A    
C32   O10   A    
C41   C47   A    
C5    C61   A    
C34   O12   A    
C43   C45   A    
C7    C63   A    
C3    O3    A    
C8    C64   A    
C44   I10   S    
C23   F5    S    
C14   C54   A    
C5    F1    S    
C21   C23   A    
C5    C11   A    
C3    O7    A    
C22   C24   A    
C2    O6    A    
N1    Zn3   S    
O4    Zn2   S    
N3    Zn1   S    
C7    C9    A    
C46   C50   A    
O6    Zn3   S    
C49   H3    S    
C59   C63   A    
C20   C22   A    
C47   C51   A    
C57   C61   A    
C30   C36   A    
C25   C27   A    
C29   C35   A    
C26   C28   A    
C22   I2    S    
C48   F10   S    
C60   C64   A    
C6    C62   A    
C55   C57   A    
C42   I8    S    
C8    F4    S    
O5    Zn3   S    
O7    Zn4   S    
O1    Zn1   S    
C17   C19   A    
C56   C58   A    
C51   C55   A    
C23   C25   A    
C33   O11   A    
C34   O16   A    
C52   H6    S    
C38   C42   A    
C45   F7    S    
C48   C52   A    
C8    C10   A    
C40   C60   A    
C20   H8    S    
C51   H5    S    
C25   N3    A    
C27   N1    A    
C50   H4    S    
C38   C58   A    
C37   C57   A    
C52   C56   A    
C18   F16   S    
