data_mof_unit_55125.cif
_audit_creation_date              2012-12-11T15:23:32-0500
_audit_creation_method            fapswitch 2.2
_symmetry_space_group_name_H-M    P1
_symmetry_Int_Tables_number       1
_space_group_crystal_system       triclinic
_cell_length_a                    6.954359
_cell_length_b                    17.439477
_cell_length_c                    19.313648
_cell_angle_alpha                 109.519195
_cell_angle_beta                  90.398612
_cell_angle_gamma                 90.656189
_cell_volume                      2207.4606168

loop_
_atom_site_label
_atom_site_type_symbol
_atom_type_description
_atom_site_fract_x
_atom_site_fract_y
_atom_site_fract_z
_atom_type_partial_charge
O1    O     O_R   0.505810 0.439670 0.562310 -0.540114
O2    O     O_R   0.169070 0.404920 0.411210 -0.544020
O3    O     O_R   0.005550 0.560330 0.437690 -0.537821
C1    C     C_R   0.337974 0.380673 0.383536 0.687980
O4    O     O_R   0.175650 0.430000 0.560110 -0.543346
O5    O     O_R   0.012170 0.585580 0.587650 -0.537885
C2    C     C_R   0.344589 0.415128 0.581880 0.702743
O6    O     O_R   0.499180 0.414420 0.412350 -0.535597
O7    O     O_3   0.341430 0.551020 0.508860 -0.367654
V1    V     V_3+5 0.063930 0.490540 0.498360 1.384649
O8    O     O_R   0.682850 0.595080 0.588790 -0.543825
C3    C     C_R   0.853151 0.618093 0.616906 0.683182
O9    O     O_R   0.676280 0.570000 0.439890 -0.540771
C4    C     C_R   0.845097 0.585392 0.418502 0.714389
V2    V     V_3+5 0.564760 0.509460 0.501640 1.388740
O10   O     O_3   0.837130 0.448980 0.491140 -0.371067
C5    C     C_R   0.068328 0.866881 0.179639 -0.223801
C6    C     C_R   0.914733 0.865965 0.131482 -0.084505
C7    C     C_R   0.748870 0.818987 0.131723 -0.222093
C8    C     C_R   0.736748 0.772499 0.178562 0.089771
C9    C     C_R   0.890523 0.774399 0.227209 0.051948
C10   C     C_R   0.056273 0.822258 0.228107 0.093811
C11   C     C_R   0.573655 0.723946 0.177521 -0.190955
C12   C     C_R   0.561964 0.678221 0.224734 -0.185412
C13   C     C_R   0.712876 0.680383 0.274016 0.090874
C14   C     C_R   0.878553 0.728304 0.274993 0.052613
C15   C     C_R   0.032499 0.730017 0.323516 0.089383
C16   C     C_R   0.195246 0.778879 0.324771 -0.192122
C17   C     C_R   0.206831 0.824718 0.277619 -0.182771
C18   C     C_R   0.701443 0.635150 0.321986 -0.223735
C19   C     C_R   0.855607 0.635436 0.369710 -0.085498
C20   C     C_R   0.021028 0.682866 0.369856 -0.222459
H1    H     H_    0.630086 0.817711 0.094664 0.128279
H2    H     H_    0.454463 0.721618 0.140394 0.133584
H3    H     H_    0.434140 0.641457 0.222961 0.133659
H4    H     H_    0.574043 0.598387 0.321120 0.122888
H5    H     H_    0.314435 0.781216 0.361897 0.133458
C21   C     C_3   0.710317 0.781229 0.770497 -0.116640
C22   C     C_3   0.812456 0.776153 0.698007 -0.178690
H6    H     H_    0.752730 0.797638 0.654393 0.111542
H7    H     H_    0.566088 0.807239 0.787243 0.112112
C23   C     C_3   0.869008 0.687979 0.687772 -0.057329
C24   C     C_3   0.768632 0.692873 0.759542 0.184566
C25   C     C_3   0.958070 0.722751 0.803024 -0.155731
C26   C     C_3   0.059415 0.717924 0.730398 -0.139478
C27   C     C_3   0.002832 0.806880 0.741286 -0.133019
C28   C     C_3   0.901272 0.810953 0.812964 -0.033593
H8    H     H_    0.017757 0.700985 0.846487 0.106889
H9    H     H_    0.203515 0.691908 0.713540 0.119663
H10   H     H_    0.100491 0.854525 0.734348 0.105564
C29   C     C_3   0.531763 0.253535 0.297221 -0.153931
C30   C     C_3   0.397479 0.178796 0.263806 0.175655
H11   H     H_    0.640852 0.259632 0.340594 0.126481
C31   C     C_3   0.415846 0.188990 0.187839 -0.086269
C32   C     C_3   0.550784 0.263297 0.220452 -0.142949
C33   C     C_3   0.373333 0.319611 0.236978 -0.168935
C34   C     C_3   0.237540 0.244742 0.204014 -0.152117
C35   C     C_3   0.221852 0.234742 0.280407 0.182207
C36   C     C_3   0.354664 0.309385 0.312881 -0.096933
H12   H     H_    0.687484 0.274583 0.195881 0.116291
H13   H     H_    0.361981 0.378091 0.226245 0.111570
H14   H     H_    0.115783 0.241023 0.165472 0.115896
C37   C     C_R   0.565999 0.135042 0.821240 -0.224604
C38   C     C_R   0.416539 0.136081 0.870207 -0.085009
C39   C     C_R   0.255227 0.184689 0.871967 -0.207262
C40   C     C_R   0.243011 0.232179 0.825925 0.060086
C41   C     C_R   0.390987 0.229440 0.775834 0.045112
C42   C     C_R   0.552976 0.180346 0.773358 0.101759
C43   C     C_R   0.085909 0.282966 0.829990 -0.226082
C44   C     C_R   0.072135 0.331391 0.784680 0.140383
C45   C     C_R   0.216959 0.326372 0.731657 0.068995
C46   C     C_R   0.377358 0.275668 0.728185 0.016930
C47   C     C_R   0.525690 0.271366 0.677353 0.099128
C48   C     C_R   0.684755 0.221702 0.674890 -0.198439
C49   C     C_R   0.698788 0.176995 0.722715 -0.187898
C50   C     C_R   0.207171 0.370453 0.682152 -0.221295
C51   C     C_R   0.354656 0.366360 0.631698 -0.083924
C52   C     C_R   0.514079 0.317221 0.630143 -0.227086
H15   H     H_    0.690399 0.097446 0.819182 0.122506
H16   H     H_    0.140166 0.186467 0.910056 0.126124
H17   H     H_    0.974499 0.285961 0.869787 0.129229
H18   H     H_    0.087237 0.409514 0.682848 0.130629
H19   H     H_    0.628653 0.314019 0.591511 0.124489
H20   H     H_    0.824049 0.139773 0.720095 0.131409
O11   O     O_R   0.271890 0.085690 0.087580 -0.537397
O12   O     O_R   0.595690 0.070020 0.939870 -0.541400
O13   O     O_R   0.758900 0.914390 0.912370 -0.538931
C53   C     C_R   0.426766 0.085578 0.918581 0.708035
O14   O     O_R   0.602020 0.095100 0.088770 -0.542208
O15   O     O_R   0.765280 0.939660 0.062330 -0.539116
C54   C     C_R   0.433075 0.119014 0.116545 0.684273
O16   O     O_R   0.265520 0.060430 0.937620 -0.539526
O17   O     O_3   0.429560 0.949050 0.991100 -0.368511
V3    V     V_3+5 0.707160 0.009450 0.001650 1.389787
O18   O     O_R   0.094540 0.929890 0.060190 -0.542665
C55   C     C_R   0.925703 0.915070 0.081958 0.709415
O19   O     O_R   0.088200 0.904800 0.911290 -0.541160
C56   C     C_R   0.917757 0.881426 0.883388 0.690062
V4    V     V_3+5 0.206300 0.990390 0.998440 1.391843
O20   O     O_3   0.934030 0.050940 0.008900 -0.369585
H21   H     H_    0.195957 0.903393 0.180246 0.119684
C57   C     C_3   0.633649 0.626771 0.767816 -0.373682
C58   C     C_3   0.551477 0.650545 0.845008 -0.774779
H22   H     H_    0.669241 0.661159 0.886436 0.224292
H23   H     H_    0.465195 0.706613 0.856916 0.226293
H24   H     H_    0.456633 0.600669 0.849225 0.221153
H25   H     H_    0.513474 0.616537 0.727422 0.177673
H26   H     H_    0.713881 0.569160 0.755660 0.175629
C59   C     C_3   0.422727 0.095334 0.272943 -0.372319
C60   C     C_3   0.412019 0.099685 0.353015 -0.765010
H27   H     H_    0.516492 0.145431 0.387472 0.217476
H28   H     H_    0.265206 0.115762 0.374481 0.233553
H29   H     H_    0.446758 0.039326 0.357055 0.221123
H30   H     H_    0.313553 0.051569 0.239605 0.165313
H31   H     H_    0.563005 0.070148 0.250067 0.174206
C61   C     C_3   0.038624 0.225127 0.319076 -0.359031
C62   C     C_3   0.930712 0.146217 0.278858 -0.778061
H32   H     H_    0.870817 0.147653 0.225869 0.231142
H33   H     H_    0.022367 0.092524 0.268559 0.230494
H34   H     H_    0.813859 0.138869 0.314670 0.223211
H35   H     H_    0.074518 0.227329 0.375811 0.171144
H36   H     H_    0.946982 0.277822 0.322783 0.180487
C63   C     C_3   0.904384 0.389068 0.796534 -0.337411
C64   C     C_3   0.967189 0.476160 0.840168 -0.779100
H37   H     H_    0.032995 0.478655 0.893469 0.233477
H38   H     H_    0.072781 0.499644 0.809049 0.223252
H39   H     H_    0.839997 0.516123 0.851543 0.225308
H40   H     H_    0.837501 0.386494 0.743521 0.177253
H41   H     H_    0.788696 0.370889 0.827652 0.186975
H42   H     H_    0.799896 0.218229 0.636479 0.129258
H43   H     H_    0.140070 0.683830 0.406709 0.127963
H44   H     H_    0.334490 0.861617 0.279469 0.135615

loop_
_geom_bond_atom_site_label_1
_geom_bond_atom_site_label_2
_ccdc_geom_bond_type
C9    C14   A    
O17   V3    S    
C10   C17   A    
C6    C55   S    
C47   C48   A    
O18   C55   A    
C4    C19   S    
C1    O6    A    
O19   C56   A    
O11   C54   A    
C34   H14   S    
C37   H15   S    
C51   C52   A    
C33   C34   S    
C42   C49   A    
C14   C15   A    
C28   C56   S    
C61   H36   S    
C30   C59   S    
C16   C17   A    
C6    C7    A    
C62   H33   S    
O5    C3    A    
C21   C22   S    
O18   V4    S    
C49   H20   S    
C40   C43   A    
V2    O10   S    
O13   V3    S    
C61   C62   S    
C41   C46   A    
O14   V3    S    
C5    H21   S    
C60   H27   S    
C3    C23   S    
O12   V3    S    
C27   C28   S    
O8    V2    S    
C44   C63   S    
C53   O16   A    
C47   C52   A    
C57   H26   S    
C44   C45   A    
O1    V2    S    
V3    O20   S    
O14   C54   A    
O7    V1    S    
O17   V4    S    
C29   C32   S    
C25   C28   S    
C2    C51   S    
O13   C56   A    
C32   H12   S    
C40   C41   A    
C39   H16   S    
O9    C4    A    
C63   H41   S    
C35   C61   S    
C57   C58   S    
C52   H19   S    
O4    V1    S    
O19   V4    S    
C30   C31   S    
O15   V3    S    
C22   C23   S    
C12   H3    S    
C48   C49   A    
C41   C42   A    
C63   C64   S    
C12   C13   A    
C21   H7    S    
C61   H35   S    
C62   H34   S    
C50   H18   S    
C22   H6    S    
O4    C2    A    
C35   C36   S    
C26   C27   S    
C29   C30   S    
C29   H11   S    
C23   C26   S    
O2    C1    A    
C24   C25   S    
O11   V4    S    
C19   C20   A    
C8    C11   A    
C26   H9    S    
C18   C19   A    
C11   C12   A    
C11   H2    S    
C32   C33   S    
C5    C6    A    
C57   H25   S    
C58   H23   S    
C50   C51   A    
C60   H29   S    
C21   C28   S    
O3    C4    A    
C30   C35   S    
C59   H30   S    
C64   H39   S    
O6    V2    S    
C22   C27   S    
C7    H1    S    
C29   C36   S    
C23   C24   S    
O2    V1    S    
C48   H42   S    
C58   H22   S    
C25   C26   S    
C64   H38   S    
C13   C18   A    
C27   H10   S    
C31   C32   S    
C15   C20   A    
O1    C2    A    
C46   C47   A    
O5    V1    S    
O8    C3    A    
O15   C55   A    
C37   C42   A    
C62   H32   S    
C5    C10   A    
C33   C36   S    
C18   H4    S    
C38   C39   A    
C7    C8    A    
O9    V2    S    
C13   C14   A    
C24   C57   S    
C21   C24   S    
O3    V1    S    
V1    O10   S    
V4    O20   S    
C34   C35   S    
C45   C50   A    
C16   H5    S    
C1    C36   S    
C58   H24   S    
O12   C53   A    
O7    V2    S    
C43   C44   A    
C60   H28   S    
C43   H17   S    
C59   H31   S    
C37   C38   A    
C17   H44   S    
C59   C60   S    
C31   C54   S    
C45   C46   A    
C8    C9    A    
C39   C40   A    
C63   H40   S    
C15   C16   A    
C33   H13   S    
C9    C10   A    
C38   C53   S    
C20   H43   S    
C25   H8    S    
O16   V4    S    
C64   H37   S    
C31   C34   S    
