data_mof_unit_55424.cif
_audit_creation_date              2013-03-05T16:12:05-0500
_audit_creation_method            fapswitch 2.2
_symmetry_space_group_name_H-M    P1
_symmetry_Int_Tables_number       1
_space_group_crystal_system       triclinic
_cell_length_a                    9.820076
_cell_length_b                    10.669497
_cell_length_c                    16.68907
_cell_angle_alpha                 90.149539
_cell_angle_beta                  84.896817
_cell_angle_gamma                 89.457719
_cell_volume                      1741.58213401

loop_
_atom_site_label
_atom_site_type_symbol
_atom_site_description
_atom_site_fract_x
_atom_site_fract_y
_atom_site_fract_z
_atom_type_partial_charge
O1    O     O_R   0.385380 0.683250 0.500010 -0.594603
O2    O     O_R   0.614620 0.316750 0.499990 -0.595019
O3    O     O_R   0.614710 0.683220 0.500000 -0.597441
O4    O     O_R   0.385290 0.316780 0.500000 -0.614056
C1    C     C_R   0.499260 0.739669 0.500567 1.044771
C2    C     C_R   0.500692 0.260141 0.500453 0.989011
O5    O     O_R   0.371780 0.500040 0.615800 -0.594444
O6    O     O_R   0.628220 0.499960 0.384200 -0.596621
O7    O     O_R   0.601110 0.500010 0.615800 -0.620572
O8    O     O_R   0.398890 0.499990 0.384200 -0.614463
C3    C     C_R   0.480830 0.495177 0.653706 1.004826
C4    C     C_R   0.519498 0.500313 0.346086 1.009974
Zn1   Zn    Zn3+2 0.346870 0.500020 0.500000 1.054256
Zn2   Zn    Zn3+2 0.653130 0.499980 0.500000 1.059218
C5    C     C_R   0.470737 0.456368 0.738083 -0.224266
C6    C     C_R   0.532741 0.479881 0.258950 -0.193445
C7    C     C_R   0.583791 0.391802 0.764140 -0.139465
C8    C     C_R   0.416951 0.439769 0.223290 -0.114962
C9    C     C_R   0.575918 0.334674 0.838266 -0.139442
C10   C     C_R   0.427503 0.398575 0.144613 -0.182837
C11   C     C_R   0.457062 0.345789 0.890188 0.013732
C12   C     C_R   0.555056 0.393845 0.099664 0.021775
C13   C     C_R   0.341606 0.409645 0.865816 0.468040
C14   C     C_R   0.673222 0.433674 0.134662 0.449055
C15   C     C_R   0.347255 0.464030 0.788668 0.208053
C16   C     C_R   0.661109 0.482891 0.213172 0.213285
C17   C     C_2   0.463861 0.315982 0.975073 -0.156829
C18   C     C_2   0.563867 0.368942 0.012828 -0.205419
H1    H     H_    0.678590 0.381684 0.726144 0.228365
H2    H     H_    0.317186 0.437946 0.256687 0.203612
H3    H     H_    0.648711 0.412183 0.977137 0.210129
H4    H     H_    0.375491 0.274015 0.007649 0.198174
H5    H     H_    0.333797 0.374245 0.119274 0.170071
H6    H     H_    0.665276 0.286040 0.856779 0.194922
C19   C     C_R   0.559009 0.934436 0.562981 0.217504
C20   C     C_R   0.440241 0.064763 0.439022 0.220113
C21   C     C_R   0.562168 0.064104 0.561698 0.216991
C22   C     C_R   0.436354 0.935268 0.440599 0.208894
C23   C     C_R   0.503068 0.127609 0.499664 -0.354988
C24   C     C_R   0.497086 0.871890 0.501920 -0.360181
C25   C     C_R   0.936525 0.423843 0.448692 0.030131
C26   C     C_R   0.063461 0.576304 0.551200 0.012753
H7    H     H_    0.888599 0.363063 0.407716 0.158625
H8    H     H_    0.111351 0.637376 0.591982 0.188613
C27   C     C_R   0.080568 0.423880 0.448706 -0.020371
C28   C     C_R   0.919431 0.576225 0.551218 -0.015154
H9    H     H_    0.142129 0.363162 0.407705 0.172899
H10   H     H_    0.857882 0.637111 0.592121 0.182737
N1    N     N_R   0.142790 0.500030 0.500020 -0.108591
N2    N     N_R   0.857210 0.499970 0.499980 -0.103632
N3    N     N_R   0.777243 0.540832 0.244230 0.240189
O9    O     O_R   0.766112 0.653569 0.274215 -0.316040
O10   O     O_R   0.896527 0.485839 0.237143 -0.377955
N4    N     N_R   0.230214 0.530523 0.764029 0.215825
O11   O     O_R   0.108774 0.482669 0.776386 -0.329351
O12   O     O_R   0.242780 0.644710 0.737370 -0.365236
O13   O     O_3   0.223985 0.419461 0.917850 -0.590700
C29   C     C_3   0.224677 0.535045 0.959115 -0.194935
H11   H     H_    0.218603 0.615486 0.917330 0.205422
H12   H     H_    0.316261 0.543993 0.993402 0.147792
H13   H     H_    0.133229 0.539875 0.003155 0.219719
O14   O     O_3   0.798405 0.438261 0.089527 -0.588272
C30   C     C_3   0.857859 0.317193 0.086949 -0.166540
H14   H     H_    0.799304 0.251077 0.051904 0.157905
H15   H     H_    0.867139 0.279422 0.148391 0.183879
H16   H     H_    0.962547 0.323078 0.056252 0.210929
N5    N     N_R   0.616417 0.866729 0.626617 0.240112
O15   O     O_R   0.543464 0.784989 0.668688 -0.372517
O16   O     O_R   0.739109 0.891412 0.645478 -0.308210
N6    N     N_R   0.389592 0.131900 0.373179 0.230639
O17   O     O_R   0.471279 0.202753 0.327997 -0.424307
O18   O     O_R   0.263736 0.118746 0.356295 -0.331328
N7    N     N_R   0.615486 0.131023 0.626524 0.222458
O19   O     O_R   0.558560 0.117970 0.699387 -0.349224
O20   O     O_R   0.734232 0.184308 0.615377 -0.347560
N8    N     N_R   0.380915 0.867861 0.376692 0.244283
O21   O     O_R   0.461985 0.806481 0.324245 -0.363967
O22   O     O_R   0.249251 0.856306 0.376247 -0.296740

loop_
_geom_bond_atom_site_label_1
_geom_bond_atom_site_label_2
_geom_bond_distance
_ccdc_geom_bond_type
C30   H15   1.113677 S    
C7    H1    1.083103 S    
N7    O19   1.300786 A    
C22   N8    1.434530 S    
O5    C3    1.292018 A    
O1    C1    1.275784 A    
C9    C11   1.394332 A    
C14   C16   1.405064 A    
C5    C15   1.416133 A    
C29   H12   1.112786 S    
C13   O13   1.384922 S    
C26   C28   1.414365 A    
O4    Zn1   1.987641 S    
C3    C5    1.463980 S    
C4    C6    1.464017 S    
C14   O14   1.384771 S    
N6    O17   1.300145 A    
C8    H2    1.083570 S    
C19   N5    1.438890 S    
C29   H13   1.109417 S    
C11   C17   1.459887 S    
C30   H16   1.109495 S    
C12   C18   1.467490 S    
C25   H7    1.081855 S    
O2    C2    1.275855 A    
C26   H8    1.081396 S    
C20   N6    1.436173 S    
C28   H10   1.081740 S    
C27   H9    1.081689 S    
C6    C16   1.415395 A    
N4    O12   1.301295 A    
N5    O15   1.300908 A    
C15   N4    1.436516 S    
O4    C2    1.279889 A    
C29   H11   1.111769 S    
C20   C23   1.403531 A    
N3    O9    1.301484 A    
N3    O10   1.300902 A    
O7    Zn2   1.954544 S    
O14   C30   1.411471 S    
C27   N1    1.365918 A    
O6    C4    1.290456 A    
C9    H6    1.084064 S    
N8    O21   1.300761 A    
O7    C3    1.290882 A    
O3    Zn2   1.987641 S    
O8    C4    1.293618 A    
Zn1   N1    2.004051 S    
C10   H5    1.079881 S    
C10   C12   1.402026 A    
C11   C13   1.408532 A    
C12   C14   1.413103 A    
O1    Zn1   1.994726 S    
N7    O20   1.300812 A    
C25   N2    1.365580 A    
C5    C7    1.403275 A    
C21   N7    1.434644 S    
N4    O11   1.301432 A    
O6    Zn2   1.969482 S    
C19   C21   1.384305 A    
C17   H4    1.083444 S    
C18   H3    1.087317 S    
N8    O22   1.300645 A    
O3    C1    1.278010 A    
O8    Zn1   1.954544 S    
C28   N2    1.365741 A    
C20   C22   1.382792 A    
C19   C24   1.402832 A    
C21   C23   1.403873 A    
C16   N3    1.438157 S    
C22   C24   1.401732 A    
O13   C29   1.411285 S    
Zn2   N2    2.004051 S    
C7    C9    1.376846 A    
C8    C10   1.378392 A    
C13   C15   1.410439 A    
O2    Zn2   1.994726 S    
C26   N1    1.365538 A    
C30   H14   1.111610 S    
O5    Zn1   1.969482 S    
C6    C8    1.399467 A    
C1    C24   1.410783 S    
C17   C18   1.341455 D    
C25   C27   1.414537 A    
C2    C23   1.414030 S    
N6    O18   1.300620 A    
N5    O16   1.301197 A    
