data_mof_unit_6646.cif
_audit_creation_date              2012-12-10T16:58:27-0500
_audit_creation_method            fapswitch 2.2
_symmetry_space_group_name_H-M    P1
_symmetry_Int_Tables_number       1
_space_group_crystal_system       triclinic
_cell_length_a                    7.739814
_cell_length_b                    8.562604
_cell_length_c                    23.425607
_cell_angle_alpha                 90.973123
_cell_angle_beta                  85.944164
_cell_angle_gamma                 93.660044
_cell_volume                      1545.31654407

loop_
_atom_site_label
_atom_site_type_symbol
_atom_type_description
_atom_site_fract_x
_atom_site_fract_y
_atom_site_fract_z
_atom_type_partial_charge
C1    C     C_R   0.545890 0.794850 0.498509 0.975830
C2    C     C_R   0.454110 0.205150 0.501491 0.975693
C3    C     C_R   0.358740 0.508138 0.766701 -0.103789
C4    C     C_R   0.332661 0.523068 0.243077 -0.088725
C5    C     C_R   0.354596 0.512778 0.707701 -0.207172
C6    C     C_R   0.335838 0.520336 0.302257 -0.217803
C7    C     C_R   0.507302 0.496163 0.672686 -0.040510
C8    C     C_R   0.492916 0.502348 0.327285 -0.040212
C9    C     C_R   0.664054 0.474735 0.697435 -0.216581
C10   C     C_R   0.646339 0.487098 0.292504 -0.205379
C11   C     C_R   0.667654 0.469814 0.756541 -0.091921
C12   C     C_R   0.642644 0.489660 0.233487 -0.108668
C13   C     C_R   0.515006 0.486580 0.791049 0.326979
C14   C     C_R   0.486120 0.507695 0.208831 0.326972
C15   C     C_2   0.570172 0.958275 0.497647 -0.373638
C16   C     C_2   0.429829 0.041725 0.502354 -0.373531
C17   C     C_R   0.502348 0.499581 0.610636 0.875111
C18   C     C_R   0.497663 0.500257 0.389361 0.875049
C19   C     C_R   0.408556 0.382332 0.121314 0.507685
C20   C     C_R   0.596650 0.608399 0.878639 0.508428
C21   C     C_R   0.564331 0.632310 0.118901 0.495095
C22   C     C_R   0.437016 0.360186 0.880735 0.497072
C23   C     C_R   0.582790 0.628504 0.058500 -0.052386
C24   C     C_R   0.424280 0.360487 0.941256 -0.043566
C25   C     C_R   0.500767 0.498506 0.030029 -0.052316
C26   C     C_R   0.506628 0.490304 0.969775 -0.055535
C27   C     C_R   0.412394 0.376264 0.061807 -0.036720
C28   C     C_R   0.594391 0.613125 0.938080 -0.042132
C29   C     C_R   0.678316 0.747440 0.025338 0.158305
C30   C     C_R   0.333387 0.238796 0.974502 0.154563
C31   C     C_R   0.678698 0.738721 0.965812 -0.201158
C32   C     C_R   0.330187 0.249469 0.034116 -0.220206
H1    H     H_    0.748084 0.831218 0.940830 0.188330
H2    H     H_    0.260619 0.157543 0.059343 0.191513
H3    H     H_    0.240908 0.521744 0.793647 0.137221
H4    H     H_    0.211590 0.537020 0.223768 0.138167
H5    H     H_    0.232179 0.529436 0.689635 0.163151
H6    H     H_    0.215927 0.532395 0.328258 0.161409
H7    H     H_    0.783414 0.461444 0.671265 0.161994
H8    H     H_    0.769050 0.473045 0.310760 0.162980
H9    H     H_    0.788512 0.453165 0.775610 0.137979
H10   H     H_    0.761097 0.477124 0.206749 0.136083
H11   H     H_    0.702697 0.009368 0.493154 0.180729
H12   H     H_    0.297303 0.990632 0.506847 0.180738
H13   H     H_    0.014146 0.382859 0.456861 0.191667
H14   H     H_    0.985854 0.617141 0.543138 0.191789
N1    N     N_R   0.483983 0.508422 0.148158 -0.353654
N2    N     N_R   0.518213 0.484094 0.851684 -0.354266
N3    N     N_2   0.950330 0.457950 0.484560 -0.175711
N4    N     N_2   0.049670 0.542050 0.515440 -0.175657
O1    O     O_R   0.389250 0.738570 0.503790 -0.611322
O2    O     O_R   0.610750 0.261430 0.496210 -0.611394
O3    O     O_R   0.678390 0.711620 0.493890 -0.628620
O4    O     O_R   0.321610 0.288380 0.506110 -0.628680
O5    O     O_R   0.355400 0.513520 0.588790 -0.621248
O6    O     O_R   0.644600 0.486480 0.411210 -0.621496
O7    O     O_R   0.644550 0.486570 0.578900 -0.630017
O8    O     O_R   0.355450 0.513430 0.421100 -0.629767
O9    O     O_2   0.331243 0.262658 0.152426 -0.562916
O10   O     O_2   0.675130 0.727879 0.847681 -0.562132
O11   O     O_2   0.621721 0.758442 0.148877 -0.560854
O12   O     O_2   0.371023 0.238420 0.850352 -0.562398
Zn1   Zn    Zn3+2 0.306930 0.518000 0.506610 0.948577
Zn2   Zn    Zn3+2 0.693070 0.482000 0.493390 0.948415
C33   C     C_3   0.788943 0.882143 0.049645 -0.365907
C34   C     C_3   0.684871 0.026503 0.060902 -0.752480
H15   H     H_    0.643223 0.069698 0.019912 0.233804
H16   H     H_    0.568083 0.999388 0.090147 0.302211
H17   H     H_    0.767084 0.120844 0.080571 0.244295
H18   H     H_    0.852742 0.848480 0.088043 0.249745
H19   H     H_    0.900037 0.915061 0.018628 0.177761
C35   C     C_3   0.232901 0.097692 0.950035 -0.340701
C36   C     C_3   0.057631 0.141737 0.930918 -0.783911
H20   H     H_    0.975044 0.181326 0.968445 0.238241
H21   H     H_    0.072850 0.237147 0.899198 0.284383
H22   H     H_    0.990477 0.037974 0.911284 0.250433
H23   H     H_    0.310451 0.038822 0.915449 0.258938
H24   H     H_    0.205863 0.005363 0.982860 0.167742

loop_
_geom_bond_atom_site_label_1
_geom_bond_atom_site_label_2
_ccdc_geom_bond_type
C34   H16   S    
C4    H4    S    
C5    H5    S    
C36   H20   S    
C22   N2    A    
C23   C29   A    
C24   C26   A    
O3    Zn2   S    
C19   N1    A    
C34   H17   S    
O4    Zn1   S    
C15   C16   D    
C9    H7    S    
C10   H8    S    
C1    O3    A    
C12   H10   S    
C18   O8    A    
C7    C17   S    
O5    Zn1   S    
C35   H24   S    
O6    Zn2   S    
C1    C15   S    
C3    H3    S    
C20   O10   S    
C2    C16   S    
C16   H12   S    
C21   O11   S    
C3    C13   A    
C18   O6    A    
C34   H15   S    
N3    Zn2   S    
N4    Zn1   S    
C36   H21   S    
C10   C12   A    
C31   H1    S    
O1    Zn1   S    
C4    C6    A    
O2    Zn2   S    
C5    C7    A    
C6    C8    A    
C20   C28   A    
C19   O9    S    
C25   C26   A    
C33   H19   S    
C8    C18   S    
C32   H2    S    
C35   H23   S    
C22   O12   S    
C1    O1    A    
H13   N3    S    
C6    H6    S    
C9    C11   A    
C20   N2    A    
C2    O2    A    
C29   C33   S    
C12   C14   A    
N3    N4    D    
C21   C23   A    
C2    O4    A    
C36   H22   S    
C22   C24   A    
C19   C27   A    
O7    Zn2   S    
O8    Zn1   S    
C7    C9    A    
C17   O5    A    
C27   C32   A    
C28   C31   A    
C35   C36   S    
C3    C5    A    
C13   N2    S    
C30   C35   S    
C14   N1    S    
C25   C27   A    
H14   N4    S    
C26   C28   A    
C15   H11   S    
C29   C31   A    
C30   C32   A    
C11   C13   A    
C11   H9    S    
C23   C25   A    
C4    C14   A    
C24   C30   A    
C8    C10   A    
C33   C34   S    
C33   H18   S    
C17   O7    A    
C21   N1    A    
