data_mof_unit_7556.cif
_audit_creation_date              2012-12-10T19:45:46-0500
_audit_creation_method            fapswitch 2.2
_symmetry_space_group_name_H-M    P1
_symmetry_Int_Tables_number       1
_space_group_crystal_system       triclinic
_cell_length_a                    10.813812
_cell_length_b                    14.688065
_cell_length_c                    14.727835
_cell_angle_alpha                 65.173981
_cell_angle_beta                  103.77875
_cell_angle_gamma                 103.325568
_cell_volume                      2039.28601219

loop_
_atom_site_label
_atom_site_type_symbol
_atom_type_description
_atom_site_fract_x
_atom_site_fract_y
_atom_site_fract_z
_atom_type_partial_charge
C1    C     C_R   0.480842 0.119702 0.312358 0.864008
C2    C     C_R   0.616622 0.783049 0.971857 0.395977
C3    C     C_R   0.396619 0.151799 0.130782 -0.375675
C4    C     C_R   0.603244 0.848181 0.869235 -0.375833
C5    C     C_R   0.524286 0.289895 0.177125 0.077562
C6    C     C_R   0.475574 0.710109 0.822856 0.077630
C7    C     C_R   0.486514 0.359986 0.078165 -0.034330
C8    C     C_R   0.513276 0.640004 0.921826 -0.034336
C9    C     C_R   0.428489 0.321269 0.001842 0.094742
C10   C     C_R   0.571271 0.678712 0.998162 0.094764
C11   C     C_R   0.507933 0.466852 0.051802 0.095816
C12   C     C_R   0.519139 0.880297 0.687641 0.864077
C13   C     C_R   0.491828 0.533135 0.948188 0.095813
C14   C     C_R   0.461450 0.490565 0.874326 -0.269931
C15   C     C_R   0.538283 0.509414 0.125667 -0.269912
C16   C     C_R   0.262423 0.000396 0.499357 0.826569
C17   C     C_R   0.737577 0.999602 0.500649 0.826511
C18   C     C_R   0.422038 0.387257 0.900156 -0.168538
C19   C     C_R   0.577683 0.612721 0.099844 -0.168524
C20   C     C_R   0.701087 0.279217 0.677824 -0.318337
C21   C     C_R   0.298882 0.720772 0.322191 -0.318365
C22   C     C_R   0.672545 0.199731 0.644798 0.081879
C23   C     C_R   0.871438 0.999870 0.500314 -0.152513
C24   C     C_R   0.327447 0.800267 0.355206 0.081812
C25   C     C_R   0.521978 0.286802 0.506432 -0.004354
C26   C     C_R   0.478005 0.713190 0.493575 -0.004536
C27   C     C_R   0.547493 0.371098 0.535514 -0.029401
C28   C     C_R   0.452467 0.628885 0.464504 -0.029289
C29   C     C_R   0.638440 0.364703 0.624037 0.158057
C30   C     C_R   0.361515 0.635279 0.375984 0.158086
C31   C     C_R   0.485394 0.459940 0.481547 0.076569
C32   C     C_R   0.514549 0.540036 0.518479 0.076613
C33   C     C_R   0.604244 0.528335 0.608248 -0.244942
C34   C     C_R   0.128561 0.000133 0.499695 -0.152605
C35   C     C_R   0.395687 0.471635 0.391784 -0.244958
C36   C     C_R   0.665180 0.442802 0.659264 -0.195123
C37   C     C_R   0.334755 0.557171 0.340767 -0.195082
C38   C     C_R   0.334252 0.965795 0.823862 -0.179586
C39   C     C_R   0.666234 0.035365 0.175794 -0.179433
C40   C     C_R   0.237929 0.947842 0.747580 0.189270
C41   C     C_R   0.762521 0.052900 0.252302 0.189105
C42   C     C_R   0.193872 0.031085 0.662385 0.163571
C43   C     C_R   0.806172 0.969392 0.337381 0.163332
C44   C     C_R   0.245246 0.130354 0.655495 -0.147729
C45   C     C_R   0.904882 0.984491 0.421409 -0.002203
C46   C     C_R   0.754432 0.870274 0.343934 -0.147358
C47   C     C_R   0.341541 0.147032 0.731366 -0.083391
C48   C     C_R   0.658171 0.854012 0.267838 -0.083302
C49   C     C_R   0.386223 0.064885 0.815248 -0.126818
C50   C     C_R   0.613899 0.936425 0.184068 -0.127420
C51   C     C_R   0.966418 0.014925 0.579198 0.086391
C52   C     C_R   0.033575 0.985069 0.420814 0.086378
C53   C     C_R   0.095123 0.015591 0.578558 -0.002278
C54   C     C_R   0.467731 0.187672 0.204944 -0.085642
C55   C     C_R   0.532177 0.812321 0.795054 -0.085633
C56   C     C_R   0.383156 0.216928 0.028160 0.395883
Cu1   Cu    Cu3+1 0.466270 0.918260 0.475690 0.943470
Cu2   Cu    Cu3+1 0.533730 0.081740 0.524310 0.943523
H1    H     H_    0.460943 0.077975 0.873928 0.141374
H2    H     H_    0.718711 0.132810 0.687657 0.117085
H3    H     H_    0.770614 0.273312 0.745838 0.141989
H4    H     H_    0.229347 0.726675 0.254180 0.142012
H5    H     H_    0.629473 0.584048 0.641736 0.131485
H6    H     H_    0.370443 0.415916 0.358304 0.131464
H7    H     H_    0.369314 0.903099 0.889963 0.136533
H8    H     H_    0.631479 0.098275 0.109786 0.136621
H9    H     H_    0.212122 0.194746 0.590372 0.129939
H10   H     H_    0.787240 0.805682 0.408965 0.129946
H11   H     H_    0.381839 0.223733 0.724979 0.146460
H12   H     H_    0.539215 0.923661 0.125213 0.141166
H13   H     H_    0.617584 0.777430 0.273963 0.146739
H14   H     H_    0.390363 0.358998 0.839962 0.191537
H15   H     H_    0.609331 0.640975 0.160043 0.191572
H16   H     H_    0.644553 0.927479 0.847684 0.160223
H17   H     H_    0.355343 0.072494 0.152348 0.160240
H18   H     H_    0.297806 0.106450 0.984720 0.323213
H19   H     H_    0.701938 0.893519 0.015319 0.323219
H20   H     H_    0.088626 0.834143 0.763445 0.219216
H21   H     H_    0.230463 0.793875 0.821578 0.224225
H22   H     H_    0.912207 0.166267 0.236858 0.219145
H23   H     H_    0.468461 0.535793 0.795902 0.152019
H24   H     H_    0.770599 0.206951 0.178728 0.224252
H25   H     H_    0.861882 0.966669 0.693744 0.208247
H26   H     H_    0.901392 0.095429 0.637149 0.240947
H27   H     H_    0.098571 0.904518 0.362901 0.240952
H28   H     H_    0.138116 0.033273 0.306278 0.208242
H29   H     H_    0.382857 0.667393 0.704348 0.232146
H30   H     H_    0.297548 0.625963 0.802211 0.228919
H31   H     H_    0.702297 0.374085 0.197710 0.228864
H32   H     H_    0.617041 0.332655 0.295603 0.232181
H33   H     H_    0.531257 0.464178 0.204087 0.152032
H34   H     H_    0.733669 0.437483 0.727707 0.144869
H35   H     H_    0.266258 0.562487 0.272328 0.144869
H36   H     H_    0.549340 0.716726 0.557281 0.122176
H37   H     H_    0.450644 0.283263 0.442727 0.122142
H38   H     H_    0.281288 0.867192 0.312343 0.117114
N1    N     N_R   0.584450 0.204570 0.560790 -0.173209
N2    N     N_R   0.415550 0.795430 0.439210 -0.173232
N3    N     N_3   0.185272 0.846102 0.755537 -0.587927
N4    N     N_3   0.815561 0.154486 0.244693 -0.587890
N5    N     N_3   0.933969 0.025813 0.662939 -0.595224
N6    N     N_3   0.066017 0.974146 0.337089 -0.595208
N7    N     N_3   0.360315 0.685544 0.759231 -0.568020
N8    N     N_3   0.639560 0.314497 0.240716 -0.568117
O1    O     O_R   0.455540 0.022090 0.338120 -0.596362
O2    O     O_3   0.677136 0.818958 0.046817 -0.756899
O3    O     O_R   0.544460 0.977910 0.661880 -0.596378
O4    O     O_R   0.512510 0.160150 0.379180 -0.580925
O5    O     O_R   0.487490 0.839850 0.620820 -0.580943
O6    O     O_R   0.291160 0.930970 0.479480 -0.580594
O7    O     O_R   0.708840 0.069030 0.520520 -0.580574
O8    O     O_R   0.348130 0.069020 0.520540 -0.588506
O9    O     O_R   0.651870 0.930980 0.479460 -0.588543
O10   O     O_3   0.322577 0.181013 0.953216 -0.756853

loop_
_geom_bond_atom_site_label_1
_geom_bond_atom_site_label_2
_ccdc_geom_bond_type
C26   H36   S    
Cu1   O1    S    
C8    C13   A    
C23   C45   A    
C27   C29   A    
C14   C18   A    
C6    C55   A    
C40   N3    S    
C16   O6    A    
C39   C41   A    
C38   C49   A    
C26   C28   A    
C15   C19   A    
C29   C36   A    
C52   N6    S    
C17   C23   S    
C24   N2    A    
H21   N3    S    
H19   O2    S    
C35   C37   A    
C24   H38   S    
C42   C53   S    
C22   H2    S    
C3    C54   A    
C33   C36   A    
Cu2   O3    S    
C20   H3    S    
C47   H11   S    
C16   C34   S    
C11   C15   A    
Cu1   O5    S    
C31   C32   A    
H18   O10   S    
C35   H6    S    
C3    H17   S    
C4    H16   S    
C44   C47   A    
C36   H34   S    
C40   C42   A    
C5    N8    S    
C22   N1    A    
C13   C14   A    
H22   N4    S    
H26   N5    S    
C41   C43   A    
Cu2   N1    S    
C42   C44   A    
C17   O7    A    
C12   O5    A    
C7    C11   A    
C20   C29   A    
C18   H14   S    
C46   C48   A    
Cu2   O4    S    
C17   O9    A    
Cu2   O7    S    
C5    C54   A    
C19   H15   S    
C47   C49   A    
C5    C7    A    
C6    C8    A    
C45   C52   A    
C27   C31   A    
C2    O2    S    
C30   C37   A    
C51   C53   A    
C2    C4    A    
C1    C54   S    
C46   H10   S    
C3    C56   A    
C23   C51   A    
Cu1   O6    S    
C38   H7    S    
C28   C32   A    
C10   C19   A    
C33   H5    S    
C41   N4    S    
C37   H35   S    
C9    C56   A    
C6    N7    S    
C43   C45   S    
H32   N8    S    
C21   H4    S    
C26   N2    A    
H29   N7    S    
C25   N1    A    
C20   C22   A    
C25   H37   S    
C4    C55   A    
C39   H8    S    
Cu2   O8    S    
C51   N5    S    
C48   H13   S    
H28   N6    S    
H30   N7    S    
C16   O8    A    
C7    C9    A    
H25   N5    S    
H24   N4    S    
C12   O3    A    
Cu1   O9    S    
C25   C27   A    
C21   C30   A    
C34   C52   A    
C49   H1    S    
C32   C33   A    
C28   C30   A    
C50   H12   S    
H31   N8    S    
C38   C40   A    
C11   C13   A    
Cu1   Cu2   S    
Cu1   N2    S    
C48   C50   A    
C31   C35   A    
C43   C46   A    
C12   C55   S    
C1    O4    A    
C15   H33   S    
C9    C18   A    
C39   C50   A    
C34   C53   A    
C8    C10   A    
C21   C24   A    
H20   N3    S    
C56   O10   S    
C44   H9    S    
C14   H23   S    
H27   N6    S    
C1    O1    A    
C2    C10   A    
