data_mof_unit_17255.cif
_audit_creation_date              2013-03-05T15:46:57-0500
_audit_creation_method            fapswitch 2.2
_symmetry_space_group_name_H-M    P1
_symmetry_Int_Tables_number       1
_space_group_crystal_system       triclinic
_cell_length_a                    10.118919
_cell_length_b                    10.589504
_cell_length_c                    15.062909
_cell_angle_alpha                 90.00449
_cell_angle_beta                  81.875479
_cell_angle_gamma                 94.402818
_cell_volume                      1593.04595299

loop_
_atom_site_label
_atom_site_type_symbol
_atom_site_description
_atom_site_fract_x
_atom_site_fract_y
_atom_site_fract_z
_atom_type_partial_charge
O1    O     O_R   0.431060 0.692470 0.507460 -0.583751
O2    O     O_R   0.568940 0.307530 0.492540 -0.583306
O3    O     O_R   0.651120 0.659650 0.483670 -0.610402
O4    O     O_R   0.348880 0.340350 0.516330 -0.613238
C1    C     C_R   0.554233 0.733935 0.488914 1.013387
C2    C     C_R   0.445432 0.266086 0.500471 1.015410
O5    O     O_R   0.389960 0.516440 0.644050 -0.603434
O6    O     O_R   0.610040 0.483560 0.355950 -0.583100
O7    O     O_R   0.610030 0.483620 0.620260 -0.613345
O8    O     O_R   0.389970 0.516380 0.379740 -0.593484
C3    C     C_R   0.501031 0.499468 0.672715 0.956554
C4    C     C_R   0.499024 0.500653 0.327036 1.003178
Zn1   Zn    Zn3+2 0.353060 0.521920 0.515880 1.046395
Zn2   Zn    Zn3+2 0.646940 0.478080 0.484120 1.049325
C5    C     C_R   0.393853 0.431924 0.195584 -0.057633
C6    C     C_R   0.600840 0.575530 0.803866 -0.070735
C7    C     C_R   0.497296 0.502677 0.231424 -0.170724
C8    C     C_R   0.502991 0.497660 0.767973 -0.209565
C9    C     C_R   0.600628 0.574004 0.176171 -0.075172
C10   C     C_R   0.405381 0.419338 0.822324 -0.082795
C11   C     C_R   0.598540 0.576832 0.083510 0.042900
C12   C     C_R   0.403970 0.420597 0.915356 0.038424
C13   C     C_R   0.499175 0.501171 0.046340 0.071597
C14   C     C_R   0.500886 0.499513 0.952718 0.070949
C15   C     C_R   0.398200 0.427078 0.102318 0.042600
C16   C     C_R   0.599584 0.576693 0.896930 0.041961
C17   C     C_R   0.692636 0.655491 0.027236 -0.144313
C18   C     C_R   0.309336 0.342826 0.971872 -0.155613
C19   C     C_R   0.692519 0.656112 0.935776 -0.151030
C20   C     C_R   0.305738 0.346848 0.063623 -0.133009
H1    H     H_    0.766636 0.719028 0.053097 0.180507
H2    H     H_    0.236707 0.277577 0.946252 0.184413
H3    H     H_    0.766263 0.720288 0.896324 0.184752
H4    H     H_    0.230680 0.284338 0.103524 0.185997
C21   C     C_2   0.579786 0.868180 0.468260 -0.414369
C22   C     C_2   0.418689 0.131798 0.485414 -0.416428
C23   C     C_2   0.490255 0.931226 0.430493 0.268813
C24   C     C_2   0.505491 0.068450 0.428775 0.269539
H5    H     H_    0.332774 0.081911 0.525560 0.158318
H6    H     H_    0.667476 0.918263 0.489692 0.161016
H7    H     H_    0.109799 0.420347 0.444122 0.178923
H8    H     H_    0.890196 0.579779 0.555816 0.188041
N1    N     N_2   0.842700 0.448880 0.462930 -0.183209
N2    N     N_2   0.157300 0.551120 0.537070 -0.181210
C25   C     C_2   0.926937 0.510674 0.507088 -0.087476
C26   C     C_2   0.073082 0.489450 0.492834 -0.057653
H9    H     H_    0.119204 0.616098 0.582831 0.199425
H10   H     H_    0.880779 0.383930 0.417133 0.218391
C27   C     C_2   0.282871 0.361198 0.255458 0.915647
O9    O     O_2   0.167393 0.387519 0.254912 -0.599478
O10   O     O_R   0.310791 0.265367 0.312128 -0.763487
H11   H     H_    0.227231 0.224785 0.349616 0.354100
C28   C     C_2   0.700923 0.658260 0.743647 0.905994
O11   O     O_2   0.820392 0.644016 0.739818 -0.626068
O12   O     O_R   0.657500 0.750257 0.690292 -0.813799
H12   H     H_    0.734417 0.799309 0.651401 0.339390
C29   C     C_2   0.709920 0.646602 0.215491 0.937423
O13   O     O_2   0.825691 0.619539 0.195779 -0.572898
O14   O     O_R   0.679914 0.744796 0.275032 -0.760204
H13   H     H_    0.762431 0.786529 0.297321 0.367712
C30   C     C_2   0.308051 0.333961 0.780640 0.925370
O15   O     O_2   0.188093 0.347295 0.796971 -0.593335
O16   O     O_R   0.354865 0.240787 0.721121 -0.812939
H14   H     H_    0.279701 0.189614 0.696383 0.342910
N3    N     N_R   0.611903 0.130454 0.366291 0.237036
O17   O     O_R   0.586943 0.223190 0.316208 -0.337998
O18   O     O_R   0.723940 0.077596 0.345626 -0.372802
N4    N     N_R   0.380788 0.868931 0.391357 0.240104
O19   O     O_R   0.268322 0.921860 0.394805 -0.374005
O20   O     O_R   0.402522 0.775785 0.336356 -0.334494

loop_
_geom_bond_atom_site_label_1
_geom_bond_atom_site_label_2
_geom_bond_distance
_ccdc_geom_bond_type
C4    C7    1.442950 S    
O5    Zn1   2.019197 S    
O7    Zn2   2.033477 S    
N2    H9    1.030886 S    
C3    C8    1.437956 S    
C23   C24   1.449315 S    
O10   H11   1.013791 S    
C17   C19   1.377840 A    
C10   C12   1.399465 A    
N1    C25   1.292954 D    
N1    H10   1.030962 S    
C24   N3    1.442739 S    
O6    C4    1.286043 A    
H7    C26   1.084669 S    
Zn2   N1    2.009152 S    
O12   H12   1.013838 S    
C5    C27   1.490023 S    
C21   H6    1.086981 S    
C11   C17   1.403260 A    
O14   H13   1.013790 S    
C12   C18   1.403046 A    
C28   O11   1.223026 D    
C9    C29   1.489766 S    
O5    C3    1.284566 A    
O7    C3    1.284929 A    
C29   O13   1.223059 D    
O2    C2    1.281562 A    
O3    Zn2   1.919943 S    
O8    C4    1.286972 A    
O1    C1    1.281361 A    
C1    C21   1.451023 S    
C22   C24   1.352006 D    
C9    C11   1.399251 A    
C2    C22   1.450891 S    
O8    Zn1   2.033474 S    
N3    O17   1.299747 A    
C8    C10   1.406941 A    
C28   O12   1.397763 S    
C11   C13   1.414816 A    
C6    C16   1.400132 A    
C30   O15   1.223027 D    
O2    Zn2   1.911467 S    
C12   C14   1.416652 A    
C5    C15   1.400367 A    
O4    C2    1.296927 A    
C29   O14   1.396120 S    
C20   H4    1.081710 S    
C13   C14   1.408004 A    
C17   H1    1.081751 S    
O16   H14   1.013796 S    
C23   N4    1.442907 S    
C19   H3    1.081053 S    
C18   H2    1.081031 S    
C13   C15   1.415668 A    
O1    Zn1   1.911465 S    
C16   C19   1.402877 A    
C6    C8    1.406593 A    
C27   O9    1.223074 D    
C27   O10   1.396645 S    
C10   C30   1.489824 S    
C5    C7    1.409863 A    
N4    O20   1.299751 A    
C6    C28   1.490015 S    
C15   C20   1.403184 A    
O6    Zn2   2.019194 S    
N2    C26   1.292931 D    
C7    C9    1.410440 A    
C21   C23   1.352292 D    
Zn1   N2    2.009152 S    
C25   C26   1.498276 S    
C22   H5    1.086962 S    
C30   O16   1.397595 S    
N3    O18   1.301200 A    
O4    Zn1   1.919945 S    
C14   C16   1.417439 A    
N4    O19   1.301227 A    
O3    C1    1.297194 A    
H8    C25   1.084911 S    
C18   C20   1.378103 A    
