data_mof_unit_12598.cif
_audit_creation_date              2012-12-11T15:15:14-0500
_audit_creation_method            fapswitch 2.2
_symmetry_space_group_name_H-M    P1
_symmetry_Int_Tables_number       1
_space_group_crystal_system       triclinic
_cell_length_a                    18.847175
_cell_length_b                    18.858346
_cell_length_c                    20.352202
_cell_angle_alpha                 107.208653
_cell_angle_beta                  106.405015
_cell_angle_gamma                 111.064331
_cell_volume                      5802.61287641

loop_
_atom_site_label
_atom_site_type_symbol
_atom_type_description
_atom_site_fract_x
_atom_site_fract_y
_atom_site_fract_z
_atom_type_partial_charge
C1    C     C_R   0.089192 0.087317 0.355315 -0.149304
C2    C     C_R   0.757573 0.994599 0.549769 0.085429
C3    C     C_R   0.757111 0.792477 0.273192 0.038050
C4    C     C_R   0.958698 0.213366 0.460879 0.076128
C5    C     C_R   0.229360 0.229383 0.644998 -0.146152
C6    C     C_R   0.923506 0.758585 0.498373 -0.170251
C7    C     C_R   0.175907 0.928949 0.479614 -0.132814
C8    C     C_R   0.030358 0.053010 0.718505 -0.124679
C9    C     C_R   0.961390 0.911590 0.654402 -0.128577
C10   C     C_R   0.245419 0.070144 0.544594 -0.128766
C11   C     C_R   0.151833 0.222861 0.709181 -0.134056
C12   C     C_R   0.761554 0.925863 0.505239 -0.144246
C13   C     C_R   0.002962 0.764589 0.435979 -0.136562
C14   C     C_R   0.227339 0.274491 0.711232 0.046229
C15   C     C_R   0.954751 0.712781 0.460653 0.108444
C16   C     C_R   0.253713 0.997739 0.534494 0.075217
C17   C     C_R   0.015098 0.979146 0.727008 0.038417
C18   C     C_R   0.885152 0.578563 0.473621 0.425593
C19   C     C_R   0.928571 0.622139 0.439062 -0.048854
C20   C     C_R   0.948177 0.578487 0.383924 -0.310455
C21   C     C_R   0.932454 0.495847 0.368147 0.149347
C22   C     C_R   0.889170 0.453087 0.402359 -0.050712
C23   C     C_R   0.839394 0.816569 0.281400 -0.125700
C24   C     C_R   0.859767 0.492374 0.450470 0.040605
C25   C     C_R   0.964833 0.457620 0.323220 -0.185986
C26   C     C_R   0.963195 0.382031 0.319871 -0.210325
C27   C     C_R   0.927055 0.343114 0.359694 0.139840
C28   C     C_R   0.884325 0.375281 0.396165 0.062564
C29   C     C_R   0.845735 0.335136 0.434494 0.149653
C30   C     C_R   0.805361 0.368341 0.472416 -0.252805
C31   C     C_R   0.813626 0.447350 0.481590 -0.127497
C32   C     C_R   0.942143 0.279897 0.372209 -0.262824
C33   C     C_R   0.915555 0.250277 0.421321 0.112609
C34   C     C_R   0.945762 0.191802 0.517694 -0.131107
C35   C     C_R   0.858159 0.269700 0.443395 -0.256178
C36   C     C_R   0.407221 0.069894 0.621031 -0.257126
C37   C     C_R   0.330679 0.994421 0.572212 0.115724
C38   C     C_R   0.330257 0.916218 0.551873 -0.257910
C39   C     C_R   0.405962 0.913895 0.566956 0.140898
C40   C     C_R   0.482689 0.990751 0.606028 0.026574
C41   C     C_R   0.483563 0.068734 0.637040 0.141432
C42   C     C_R   0.405565 0.836629 0.536153 -0.206146
C43   C     C_R   0.479499 0.836162 0.536641 -0.207118
C44   C     C_R   0.554217 0.912936 0.568220 0.142558
C45   C     C_R   0.760817 0.810114 0.345960 -0.124152
C46   C     C_R   0.557030 0.990248 0.606773 0.027283
C47   C     C_R   0.631907 0.067715 0.638895 0.142750
C48   C     C_R   0.634184 0.144351 0.677016 -0.208338
C49   C     C_R   0.560156 0.144864 0.676065 -0.205248
C50   C     C_R   0.623381 0.914275 0.555390 -0.261304
C51   C     C_R   0.694286 0.991971 0.579233 0.114390
C52   C     C_R   0.700540 0.067924 0.625812 -0.262321
C53   C     C_R   0.282105 0.366287 0.761008 0.142873
C54   C     C_R   0.253608 0.413812 0.803122 -0.188485
C55   C     C_R   0.307067 0.499735 0.852437 -0.160722
C56   C     C_R   0.023345 0.198133 0.452577 -0.129093
C57   C     C_R   0.390042 0.539347 0.860722 0.229955
C58   C     C_R   0.416550 0.493554 0.814891 -0.181863
C59   C     C_R   0.363271 0.407576 0.765782 -0.177695
C60   C     C_R   0.614205 0.700820 0.063658 -0.151205
C61   C     C_R   0.685410 0.734041 0.131320 -0.187203
C62   C     C_R   0.606733 0.756870 0.203549 -0.169709
C63   C     C_R   0.535146 0.723192 0.135588 -0.189012
C64   C     C_R   0.537837 0.693892 0.065013 0.227188
C65   C     C_2   0.454596 0.622835 0.924559 -0.231730
C66   C     C_2   0.457552 0.642281 0.994672 -0.219730
C67   C     C_R   0.831076 0.065969 0.569823 -0.149528
C68   C     C_R   0.682170 0.760939 0.201967 0.143717
C69   C     C_R   0.115842 0.025150 0.241471 0.142944
C70   C     C_R   0.124681 0.955579 0.203323 -0.188165
C71   C     C_R   0.162618 0.958352 0.153850 -0.160711
C72   C     C_R   0.191926 0.030607 0.141469 0.229216
C73   C     C_R   0.189546 0.102509 0.184225 -0.181342
C74   C     C_R   0.151387 0.099724 0.233620 -0.178084
C75   C     C_R   0.137273 0.045145 0.935948 -0.151445
C76   C     C_R   0.098827 0.047883 0.868342 -0.187302
C77   C     C_R   0.054409 0.899524 0.797078 -0.166918
C78   C     C_R   0.019400 0.947317 0.291256 -0.132798
C79   C     C_R   0.092627 0.896647 0.865179 -0.186746
C80   C     C_R   0.134032 0.969251 0.935238 0.224744
C81   C     C_2   0.210258 0.028187 0.075413 -0.232456
C82   C     C_2   0.158487 0.960619 0.006880 -0.218520
C83   C     C_R   0.056141 0.975048 0.798187 0.142743
C84   C     C_R   0.070437 0.020356 0.289673 0.045916
H1    H     H_    0.139182 0.151777 0.379177 0.092827
H2    H     H_    0.870696 0.734275 0.511417 0.156349
H3    H     H_    0.158923 0.862863 0.457410 0.094173
H4    H     H_    0.071323 0.117470 0.762160 0.094397
H5    H     H_    0.937448 0.844904 0.639232 0.101998
H6    H     H_    0.292812 0.135020 0.583178 0.095067
H7    H     H_    0.123111 0.242084 0.745114 0.084049
H8    H     H_    0.026081 0.745870 0.394622 0.084828
H9    H     H_    0.980708 0.609926 0.356477 0.138325
H10   H     H_    0.997026 0.489284 0.295524 0.123231
H11   H     H_    0.721874 0.859894 0.489146 0.089480
H12   H     H_    0.994775 0.357062 0.290303 0.128412
H13   H     H_    0.982119 0.261239 0.350611 0.120280
H14   H     H_    0.831853 0.242657 0.476449 0.120467
H15   H     H_    0.774243 0.337182 0.500999 0.135217
H16   H     H_    0.787763 0.474918 0.516551 0.177136
H17   H     H_    0.408493 0.130450 0.640692 0.117844
H18   H     H_    0.271632 0.857092 0.517973 0.118632
H19   H     H_    0.347121 0.777053 0.507010 0.130004
H20   H     H_    0.476934 0.776227 0.508021 0.129886
H21   H     H_    0.618496 0.854915 0.521616 0.118053
H22   H     H_    0.860895 0.814299 0.237396 0.094524
H23   H     H_    0.755665 0.128287 0.646985 0.116234
H24   H     H_    0.691814 0.204207 0.703042 0.128581
H25   H     H_    0.561818 0.205095 0.701206 0.129272
H26   H     H_    0.190489 0.384971 0.798923 0.111561
H27   H     H_    0.741841 0.735253 0.127474 0.112010
H28   H     H_    0.602113 0.778170 0.256915 0.113844
H29   H     H_    0.402092 0.607479 0.001267 0.132387
H30   H     H_    0.480499 0.522972 0.820709 0.111873
H31   H     H_    0.618485 0.675883 0.010637 0.110562
H32   H     H_    0.386921 0.372899 0.733794 0.111439
H33   H     H_    0.900360 0.194794 0.539196 0.096592
H34   H     H_    0.509712 0.658114 0.917833 0.132027
H35   H     H_    0.284391 0.534361 0.885793 0.113351
H36   H     H_    0.476690 0.717283 0.137990 0.115849
H37   H     H_    0.101281 0.898293 0.210427 0.111622
H38   H     H_    0.100502 0.106863 0.871988 0.111636
H39   H     H_    0.022926 0.842369 0.744015 0.116422
H40   H     H_    0.119365 0.899852 0.003540 0.133454
H41   H     H_    0.211716 0.158836 0.175289 0.110776
H42   H     H_    0.164842 0.101611 0.988767 0.110817
H43   H     H_    0.146395 0.154599 0.262945 0.111649
H44   H     H_    0.709187 0.800579 0.361627 0.093753
H45   H     H_    0.250141 0.088518 0.078549 0.132581
H46   H     H_    0.165809 0.902829 0.122955 0.113728
H47   H     H_    0.087802 0.837043 0.863417 0.118124
H48   H     H_    0.049325 0.206798 0.412907 0.096797
H49   H     H_    0.855939 0.129168 0.613435 0.087163
H50   H     H_    0.003462 0.883404 0.255721 0.084253
H51   H     H_    0.270947 0.255648 0.621254 0.091196
N1    N     N_R   0.052580 0.056040 0.395500 -0.036965
N2    N     N_R   0.954640 0.834860 0.500130 -0.042944
N3    N     N_R   0.122510 0.958490 0.460420 -0.041260
N4    N     N_R   0.990180 0.030970 0.644220 -0.039268
N5    N     N_R   0.947420 0.943960 0.604500 -0.038874
N6    N     N_R   0.165270 0.045500 0.500140 -0.040443
N7    N     N_R   0.109790 0.150600 0.644220 -0.037582
N8    N     N_R   0.002890 0.838860 0.460420 -0.039288
N9    N     N_R   0.834730 0.954500 0.499860 -0.038470
N10   N     N_R   0.890210 0.849400 0.355780 -0.039447
N11   N     N_R   0.997110 0.161140 0.539580 -0.041789
N12   N     N_R   0.841950 0.845400 0.395490 -0.038919
N13   N     N_R   0.045360 0.165140 0.499870 -0.040845
N14   N     N_R   0.877490 0.041510 0.539580 -0.038648
N15   N     N_R   0.009820 0.969030 0.355780 -0.037604
N16   N     N_R   0.158050 0.154600 0.604510 -0.036837
Ni1   Ni    Ni4+2 0.104370 0.104380 0.500010 0.212577
Ni2   Ni    Ni4+2 0.895630 0.895620 0.499990 0.215842
Ni3   Ni    Ni4+2 0.006300 0.904810 0.408930 0.210284
Ni4   Ni    Ni4+2 0.993700 0.095190 0.591070 0.210034
O1    O     O_3   0.874965 0.619980 0.535558 -0.792120
H52   H     H_    0.930969 0.669641 0.572894 0.306773

loop_
_geom_bond_atom_site_label_1
_geom_bond_atom_site_label_2
_ccdc_geom_bond_type
C20   H9    S    
C40   C41   A    
C66   H29   S    
C67   N14   A    
C62   H28   S    
C73   C74   A    
C3    C23   A    
C19   C20   A    
C61   C68   A    
C43   C44   A    
C2    C12   A    
C42   H19   S    
C81   C82   D    
C53   C59   A    
C55   H35   S    
C53   C54   A    
C1    C84   A    
C40   C46   A    
C23   N10   A    
C26   C27   A    
C37   C38   A    
C8    N4    A    
C18   C24   A    
C28   C29   A    
C67   H49   S    
C38   C39   A    
C33   C35   A    
C11   C14   A    
C77   C83   A    
C45   H44   S    
C32   H13   S    
C54   H26   S    
C18   C19   A    
C46   C47   A    
C82   H40   S    
N9    Ni2   S    
C43   H20   S    
N10   N12   A    
C6    C15   A    
C54   C55   A    
C7    H3    S    
N11   Ni4   S    
C3    C68   S    
C52   H23   S    
C59   H32   S    
C50   H21   S    
N16   Ni1   S    
C12   H11   S    
C70   C71   A    
N7    Ni4   S    
C1    N1    A    
C75   C80   A    
C72   C81   S    
C16   C37   S    
N3    Ni3   S    
C34   H33   S    
N2    N8    A    
C25   H10   S    
C22   C28   A    
C21   C22   A    
C4    C56   A    
C1    H1    S    
C36   C41   A    
C76   C83   A    
C41   C49   A    
N1    Ni1   S    
C44   C46   A    
C39   C42   A    
N11   N13   A    
C77   C79   A    
C26   H12   S    
C4    C34   A    
C51   C52   A    
C47   C48   A    
C80   C82   S    
C2    C67   A    
C9    H5    S    
C39   C40   A    
N8    Ni3   S    
C58   C59   A    
C63   C64   A    
C23   H22   S    
C30   H15   S    
C3    C45   A    
C12   N9    A    
C36   H17   S    
C17   C83   S    
C10   N6    A    
C64   C66   S    
N7    N16   A    
C56   N13   A    
C15   C19   S    
C75   C76   A    
C62   C63   A    
C77   H39   S    
C78   C84   A    
C81   H45   S    
C74   H43   S    
N4    Ni4   S    
C30   C31   A    
C65   H34   S    
C79   H47   S    
C50   C51   A    
N2    Ni2   S    
C69   C74   A    
C31   H16   S    
C78   H50   S    
C5    C14   A    
C56   H48   S    
N10   Ni3   S    
N5    Ni2   S    
C9    C17   A    
C48   C49   A    
C13   C15   A    
C13   H8    S    
C22   C24   A    
C42   C43   A    
C35   H14   S    
C18   O1    S    
C78   N15   A    
C49   H25   S    
C44   C50   A    
C5    H51   S    
C21   C25   A    
C4    C33   S    
C36   C37   A    
N9    N14   A    
C27   C32   A    
C45   N12   A    
C7    C16   A    
N13   Ni1   S    
C57   C65   S    
C72   C73   A    
N3    N6    A    
C5    N16   A    
C7    N3    A    
N1    N15   A    
N4    N5    A    
C47   C52   A    
C29   C35   A    
C8    C17   A    
C6    H2    S    
C62   C68   A    
C60   C64   A    
C75   H42   S    
C76   H38   S    
C32   C33   A    
C6    N2    A    
C55   C57   A    
C25   C26   A    
C24   C31   A    
C71   C72   A    
C38   H18   S    
C69   C84   S    
C10   C16   A    
C71   H46   S    
C63   H36   S    
C34   N11   A    
C70   H37   S    
C57   C58   A    
C48   H24   S    
C73   H41   S    
C9    N5    A    
C13   N8    A    
N14   Ni4   S    
C69   C70   A    
N12   Ni2   S    
C11   N7    A    
C2    C51   S    
C29   C30   A    
C79   C80   A    
C11   H7    S    
C14   C53   S    
O1    H52   S    
C20   C21   A    
C10   H6    S    
C65   C66   D    
N15   Ni3   S    
C27   C28   A    
C58   H30   S    
C60   C61   A    
C60   H31   S    
C8    H4    S    
N6    Ni1   S    
C61   H27   S    
