data_mof_unit_20679.cif
_audit_creation_date              2012-12-11T14:34:42-0500
_audit_creation_method            fapswitch 2.2
_symmetry_space_group_name_H-M    P1
_symmetry_Int_Tables_number       1
_space_group_crystal_system       triclinic
_cell_length_a                    33.419446
_cell_length_b                    7.241291
_cell_length_c                    27.855253
_cell_angle_alpha                 89.979464
_cell_angle_beta                  140.348048
_cell_angle_gamma                 90.016452
_cell_volume                      4301.56312889

loop_
_atom_site_label
_atom_site_type_symbol
_atom_type_description
_atom_site_fract_x
_atom_site_fract_y
_atom_site_fract_z
_atom_type_partial_charge
O1    O     O_R   0.335930 0.530330 0.836120 -0.527887
O2    O     O_R   0.664070 0.469670 0.163880 -0.529417
O3    O     O_R   0.664070 0.530330 0.663880 -0.529050
O4    O     O_R   0.335930 0.469670 0.336120 -0.525918
O5    O     O_R   0.835930 0.030330 0.836120 -0.526958
O6    O     O_R   0.164070 0.969670 0.163880 -0.529137
O7    O     O_R   0.164070 0.030330 0.663880 -0.527782
O8    O     O_R   0.835930 0.969670 0.336120 -0.528342
O9    O     O_R   0.254100 0.856860 0.685510 -0.543723
O10   O     O_R   0.745900 0.143140 0.314490 -0.527331
O11   O     O_R   0.745900 0.856860 0.814490 -0.542559
O12   O     O_R   0.254100 0.143140 0.185510 -0.528216
O13   O     O_R   0.754100 0.356860 0.685510 -0.527098
O14   O     O_R   0.245900 0.643140 0.314490 -0.536946
O15   O     O_R   0.245900 0.356860 0.814490 -0.537397
O16   O     O_R   0.754100 0.643140 0.185510 -0.527168
C1    C     C_R   0.251540 0.692181 0.663322 0.732473
C2    C     C_R   0.748854 0.307612 0.337020 0.761882
C3    C     C_R   0.748433 0.692115 0.836661 0.737015
C4    C     C_R   0.251074 0.307681 0.162912 0.756414
C5    C     C_R   0.751169 0.192369 0.662980 0.762259
C6    C     C_R   0.248229 0.807773 0.336516 0.737667
C7    C     C_R   0.248812 0.192293 0.837017 0.736098
C8    C     C_R   0.751756 0.807825 0.163470 0.763713
O17   O     O_R   0.341180 0.859830 0.836880 -0.496194
O18   O     O_R   0.658820 0.140170 0.163120 -0.509661
O19   O     O_R   0.658820 0.859830 0.663120 -0.511114
O20   O     O_R   0.341180 0.140170 0.336880 -0.495383
O21   O     O_R   0.841180 0.359830 0.836880 -0.495915
O22   O     O_R   0.158820 0.640170 0.163120 -0.512480
O23   O     O_R   0.158820 0.359830 0.663120 -0.495665
O24   O     O_R   0.841180 0.640170 0.336880 -0.512550
O25   O     O_R   0.251370 0.033430 0.816330 -0.536681
O26   O     O_R   0.748630 0.966570 0.183670 -0.541412
O27   O     O_R   0.748630 0.033430 0.683670 -0.539639
O28   O     O_R   0.251370 0.966570 0.316330 -0.538841
O29   O     O_R   0.751370 0.533430 0.816330 -0.542201
O30   O     O_R   0.248630 0.466570 0.183670 -0.543353
O31   O     O_R   0.248630 0.533430 0.683670 -0.537314
O32   O     O_R   0.751370 0.466570 0.316330 -0.548146
C9    C     C_R   0.366736 0.687814 0.862348 0.690369
C10   C     C_R   0.633856 0.311021 0.135582 0.717699
C11   C     C_R   0.633870 0.689002 0.635564 0.710743
C12   C     C_R   0.366750 0.312202 0.362345 0.696400
C13   C     C_R   0.866745 0.187824 0.862382 0.687819
C14   C     C_R   0.133865 0.811022 0.135541 0.701187
C15   C     C_R   0.133256 0.187819 0.637614 0.688173
C16   C     C_R   0.866134 0.811020 0.364456 0.701561
O33   O     O_3   0.220230 0.697940 0.743080 -0.353024
O34   O     O_3   0.779770 0.302060 0.256920 -0.374774
O35   O     O_3   0.779770 0.697940 0.756920 -0.350217
O36   O     O_3   0.220230 0.302060 0.243080 -0.377862
O37   O     O_3   0.720230 0.197940 0.743080 -0.380656
O38   O     O_3   0.279770 0.802060 0.256920 -0.353494
O39   O     O_3   0.279770 0.197940 0.756920 -0.358269
O40   O     O_3   0.720230 0.802060 0.243080 -0.376449
V1    V     V_3+5 0.255280 0.971510 0.751280 1.606348
V2    V     V_3+5 0.744720 0.028490 0.248720 1.604669
V3    V     V_3+5 0.744720 0.971510 0.748720 1.583808
V4    V     V_3+5 0.255280 0.028490 0.251280 1.628529
V5    V     V_3+5 0.755280 0.471510 0.751280 1.621126
V6    V     V_3+5 0.244720 0.528490 0.248720 1.597795
V7    V     V_3+5 0.244720 0.471510 0.748720 1.619113
V8    V     V_3+5 0.755280 0.528490 0.251280 1.596981
C17   C     C_2   0.062893 0.162405 0.571318 0.164357
C18   C     C_2   0.935625 0.836372 0.430149 0.220693
C19   C     C_2   0.937107 0.162424 0.928675 0.164501
C20   C     C_2   0.064374 0.836365 0.069843 0.220798
C21   C     C_2   0.564382 0.663795 0.569873 0.218355
C22   C     C_2   0.437127 0.337721 0.428559 0.168210
C23   C     C_2   0.437083 0.662365 0.928623 0.162646
C24   C     C_2   0.564351 0.336286 0.069881 0.216908
C25   C     C_2   0.033337 0.993979 0.550643 0.311861
C26   C     C_2   0.963616 0.967912 0.484426 0.310368
C27   C     C_2   0.966665 0.994030 0.949343 0.312397
C28   C     C_2   0.036386 0.967972 0.015564 0.309420
C29   C     C_2   0.536358 0.532572 0.515487 0.310532
C30   C     C_2   0.466632 0.506325 0.449311 0.311098
C31   C     C_2   0.466616 0.493909 0.949312 0.309297
C32   C     C_2   0.536339 0.467846 0.015581 0.312690
C33   C     C_1   0.251114 0.187862 0.891276 -0.153933
C34   C     C_1   0.754711 0.812789 0.114017 -0.136294
C35   C     C_1   0.748782 0.188142 0.608673 -0.132779
C36   C     C_1   0.245263 0.812626 0.385959 -0.156513
C37   C     C_1   0.746382 0.686004 0.886874 -0.176528
C38   C     C_1   0.248296 0.311990 0.108294 -0.142122
C39   C     C_1   0.253565 0.686225 0.613104 -0.176830
C40   C     C_1   0.751438 0.311709 0.391463 -0.144181
C41   C     C_2   0.262126 0.181912 0.997827 0.334073
C42   C     C_2   0.763736 0.812305 0.026241 0.301516
C43   C     C_2   0.737547 0.181752 0.501967 0.333513
C44   C     C_2   0.236278 0.812268 0.473771 0.304211
C45   C     C_2   0.740273 0.672003 0.977685 0.335434
C46   C     C_2   0.236207 0.318072 0.000934 0.356972
C47   C     C_2   0.259689 0.671972 0.522334 0.331695
C48   C     C_2   0.763253 0.318092 0.498573 0.355444
C49   C     C_1   0.243979 0.313121 0.060779 -0.040433
C50   C     C_1   0.743978 0.681422 0.928273 -0.072926
C51   C     C_1   0.755589 0.312763 0.438831 -0.040589
C52   C     C_1   0.255960 0.681652 0.571706 -0.072184
C53   C     C_1   0.758191 0.812569 0.073593 0.022346
C54   C     C_1   0.254905 0.186688 0.938367 -0.059675
C55   C     C_1   0.241795 0.812394 0.426395 0.016758
C56   C     C_1   0.744902 0.186973 0.561520 -0.055506
Cl1   Cl    Cl    0.920381 0.084988 0.489414 -0.647698
Cl2   Cl    Cl    0.072917 0.794265 0.607911 -0.539195
Cl3   Cl    Cl    0.079627 0.085194 0.010587 -0.648970
Cl4   Cl    Cl    0.927085 0.794384 0.892065 -0.539570
Cl5   Cl    Cl    0.426948 0.706211 0.392172 -0.529948
Cl6   Cl    Cl    0.579560 0.416802 0.510224 -0.627160
Cl7   Cl    Cl    0.579587 0.584894 0.010603 -0.583465
Cl8   Cl    Cl    0.427010 0.294413 0.891910 -0.532738
Cl9   Cl    Cl    0.978605 0.729055 0.423570 -0.583863
Cl10  Cl    Cl    0.017481 0.358174 0.516436 -0.485175
Cl11  Cl    Cl    0.021389 0.728912 0.076412 -0.582596
Cl12  Cl    Cl    0.982518 0.358164 0.983558 -0.485358
Cl13  Cl    Cl    0.482646 0.141811 0.483185 -0.472246
Cl14  Cl    Cl    0.521457 0.771467 0.576465 -0.542928
Cl15  Cl    Cl    0.521363 0.228390 0.076365 -0.554351
Cl16  Cl    Cl    0.482495 0.858121 0.983462 -0.475645
O41   O     O_3   0.201193 0.454713 0.944990 -0.581603
C57   C     C_3   0.179357 0.598238 0.955109 0.073094
H1    H     H_    0.171338 0.721754 0.924846 0.153409
H2    H     H_    0.214716 0.642013 0.014831 0.120253
C58   C     C_3   0.116645 0.546231 0.920616 -0.343855
H3    H     H_    0.080535 0.528167 0.858872 0.210795
H4    H     H_    0.120993 0.413632 0.944367 0.224826
C59   C     C_3   0.095044 0.695280 0.935707 -0.676445
H5    H     H_    0.129730 0.711476 0.997220 0.234332
H6    H     H_    0.049267 0.655307 0.909343 0.267371
H7    H     H_    0.089345 0.829394 0.911564 0.236236
O42   O     O_3   0.708873 0.529131 0.972303 -0.571269
C60   C     C_3   0.713393 0.357901 0.952191 0.118073
H8    H     H_    0.716250 0.248529 0.982697 0.186461
H9    H     H_    0.756887 0.344188 0.970412 0.115334
C61   C     C_3   0.654526 0.322296 0.867615 -0.316186
H10   H     H_    0.612591 0.323958 0.852574 0.223009
H11   H     H_    0.648722 0.432506 0.834925 0.203240
C62   C     C_3   0.658202 0.136036 0.845528 -0.732342
H12   H     H_    0.700123 0.130507 0.860602 0.231476
H13   H     H_    0.615675 0.115867 0.783856 0.245645
H14   H     H_    0.660722 0.022387 0.874557 0.242926
O43   O     O_3   0.797929 0.455570 0.554157 -0.581916
C63   C     C_3   0.819994 0.598488 0.544129 0.073546
H15   H     H_    0.827860 0.722432 0.574105 0.153459
H16   H     H_    0.784833 0.641780 0.484380 0.120025
C64   C     C_3   0.882864 0.545989 0.579113 -0.344870
H17   H     H_    0.918745 0.528249 0.640831 0.210741
H18   H     H_    0.878627 0.413118 0.555597 0.224680
C65   C     C_3   0.904782 0.694463 0.564243 -0.675911
H19   H     H_    0.870339 0.710306 0.502775 0.234282
H20   H     H_    0.950670 0.654144 0.590972 0.267310
H21   H     H_    0.910371 0.828836 0.588154 0.236144
O44   O     O_3   0.290979 0.528732 0.527694 -0.577423
C66   C     C_3   0.286743 0.357965 0.548363 0.105537
H22   H     H_    0.284095 0.247904 0.518246 0.184848
H23   H     H_    0.243230 0.344173 0.530100 0.120084
C67   C     C_3   0.345640 0.323761 0.633066 -0.314871
H24   H     H_    0.387523 0.323422 0.648004 0.217525
H25   H     H_    0.351676 0.435652 0.665453 0.207038
C68   C     C_3   0.341782 0.139273 0.655866 -0.721322
H26   H     H_    0.299991 0.135984 0.641076 0.231820
H27   H     H_    0.384396 0.119973 0.717579 0.250413
H28   H     H_    0.338889 0.023894 0.627041 0.237415
O45   O     O_3   0.789917 0.965076 0.028233 -0.593417
C69   C     C_3   0.855030 0.936537 0.083166 0.044647
H29   H     H_    0.865188 0.800687 0.075300 0.124536
H30   H     H_    0.878398 0.942124 0.140492 0.132821
C70   C     C_3   0.881706 0.089197 0.075851 -0.293296
H31   H     H_    0.875264 0.225055 0.087813 0.190217
H32   H     H_    0.855778 0.091589 0.017261 0.204544
C71   C     C_3   0.951283 0.059324 0.129911 -0.760646
H33   H     H_    0.978388 0.058294 0.188965 0.213709
H34   H     H_    0.969065 0.173033 0.123296 0.253947
H35   H     H_    0.958549 0.926361 0.117531 0.261954
O46   O     O_3   0.296497 0.044334 0.053273 -0.582078
C72   C     C_3   0.318635 0.904766 0.042574 0.065882
H36   H     H_    0.351043 0.964503 0.045244 0.147645
H37   H     H_    0.278526 0.834986 0.987418 0.134312
C73   C     C_3   0.354839 0.761281 0.105211 -0.279278
H38   H     H_    0.395835 0.828345 0.160504 0.215396
H39   H     H_    0.324185 0.704287 0.105518 0.197442
C74   C     C_3   0.377811 0.603324 0.094709 -0.781328
H40   H     H_    0.337592 0.534727 0.039573 0.236523
H41   H     H_    0.402663 0.499600 0.140039 0.241565
H42   H     H_    0.410715 0.656192 0.097402 0.246222
O47   O     O_3   0.210194 0.965241 0.471813 -0.593330
C75   C     C_3   0.145086 0.936888 0.417019 0.046594
H43   H     H_    0.134912 0.800942 0.424842 0.124333
H44   H     H_    0.121595 0.942850 0.359631 0.133735
C76   C     C_3   0.118601 0.089387 0.424625 -0.294547
H45   H     H_    0.125029 0.225363 0.412682 0.190538
H46   H     H_    0.144672 0.091414 0.483285 0.204416
C77   C     C_3   0.049052 0.059677 0.370746 -0.761008
H47   H     H_    0.021802 0.059130 0.311625 0.213826
H48   H     H_    0.031425 0.173202 0.377610 0.254080
H49   H     H_    0.041800 0.926538 0.383086 0.261982
O48   O     O_3   0.703416 0.043231 0.446911 -0.581609
C78   C     C_3   0.681121 0.904673 0.457763 0.072383
H50   H     H_    0.648740 0.965411 0.454981 0.153298
H51   H     H_    0.721169 0.835202 0.513032 0.134553
C79   C     C_3   0.644798 0.760397 0.395405 -0.304692
H52   H     H_    0.603796 0.827049 0.340003 0.215635
H53   H     H_    0.675369 0.702319 0.395131 0.197381
C80   C     C_3   0.621824 0.603596 0.406346 -0.738069
H54   H     H_    0.662062 0.535163 0.461524 0.243100
H55   H     H_    0.596741 0.499409 0.361126 0.236076
H56   H     H_    0.589137 0.657545 0.403851 0.258359

loop_
_geom_bond_atom_site_label_1
_geom_bond_atom_site_label_2
_ccdc_geom_bond_type
C77   H48   S    
O45   C69   S    
O33   V7    S    
C18   Cl9   S    
C41   C54   S    
C66   H23   S    
O34   V8    S    
C17   Cl10  S    
C21   C29   D    
C64   H17   S    
O35   V5    S    
C43   C56   S    
C19   Cl12  S    
C59   H5    S    
C23   C31   D    
C68   H26   S    
O37   V3    S    
C44   O47   S    
C42   C53   S    
O38   V4    S    
C80   H54   S    
C73   H38   S    
O3    C11   A    
C79   H53   S    
C23   Cl16  S    
C75   C76   S    
C75   H44   S    
O10   V2    S    
O2    C10   A    
C63   C64   S    
O22   V6    S    
C62   H14   S    
C77   H49   S    
C22   C30   D    
C22   Cl13  S    
O43   C63   S    
O14   V6    S    
C48   C51   S    
O4    V6    S    
C21   Cl14  S    
C17   C25   D    
C24   Cl15  S    
O27   V3    S    
C1    O31   A    
C41   C46   D    
C38   C49   T    
C8    C34   S    
C2    O32   A    
C37   C50   T    
C3    O29   A    
C44   C55   S    
O8    V2    S    
C43   C48   D    
C43   O48   S    
C67   H25   S    
C5    C35   S    
C71   H34   S    
O42   C60   S    
C72   H37   S    
C79   C80   S    
C4    C38   S    
C13   C19   S    
C78   C79   S    
C12   C22   S    
O48   C78   S    
C45   O42   S    
C7    C33   S    
C67   C68   S    
C73   C74   S    
C9    C23   S    
O15   C7    A    
C77   H47   S    
C27   Cl4   S    
O16   C8    A    
O23   C15   A    
C15   C17   S    
C66   C67   S    
C69   H30   S    
O24   C16   A    
C69   H29   S    
O17   V1    S    
C61   C62   S    
O11   V3    S    
O1    V7    S    
C68   H27   S    
O2    V8    S    
C33   C54   T    
O3    V5    S    
C25   C26   S    
O21   V5    S    
C79   H52   S    
O5    V3    S    
C76   H45   S    
C70   H31   S    
O6    V4    S    
C64   C65   S    
O24   V8    S    
C63   H16   S    
C35   C56   T    
C74   H42   S    
O17   C9    A    
O18   V2    S    
C47   C52   S    
C63   H15   S    
O4    C12   A    
C46   C49   S    
C7    O25   A    
C29   C30   S    
O30   V6    S    
O5    C13   A    
O20   C12   A    
C44   C47   D    
C8    O26   A    
O21   C13   A    
C75   H43   S    
C6    C36   S    
C67   H24   S    
C27   C28   S    
C76   H46   S    
C74   H40   S    
C14   C20   S    
O23   V7    S    
C58   C59   S    
C4    O30   A    
C73   H39   S    
C72   C73   S    
O11   C3    A    
O12   C4    A    
C10   C24   S    
O41   C57   S    
O13   C5    A    
O9    C1    A    
O26   V2    S    
C65   H21   S    
O44   C66   S    
O20   V4    S    
C60   C61   S    
C31   Cl8   S    
C61   H11   S    
O46   C72   S    
C28   Cl3   S    
O39   V1    S    
C42   O45   S    
C58   H3    S    
C70   C71   S    
C65   H20   S    
C19   C27   D    
C57   H2    S    
C59   H7    S    
C68   H28   S    
O31   V7    S    
C71   H33   S    
O18   C10   A    
C42   C45   D    
C78   H51   S    
C39   C52   T    
C70   H32   S    
C80   H56   S    
O1    C9    A    
C36   C55   T    
O25   V1    S    
O6    C14   A    
C64   H18   S    
C1    C39   S    
O22   C14   A    
C61   H10   S    
C3    C37   S    
C59   H6    S    
O29   V5    S    
C62   H12   S    
C71   H35   S    
C5    O27   A    
C20   C28   D    
C6    O28   A    
O32   V8    S    
O15   V7    S    
C47   O44   S    
O14   C6    A    
C57   C58   S    
C74   H41   S    
C76   C77   S    
O47   C75   S    
C24   C32   D    
O19   V3    S    
O8    C16   A    
C26   Cl1   S    
C62   H13   S    
C25   Cl2   S    
C60   H8    S    
O10   C2    A    
C32   Cl7   S    
C34   C53   T    
O40   V2    S    
C30   Cl5   S    
O9    V1    S    
C29   Cl6   S    
C2    C40   S    
C40   C51   T    
C20   Cl11  S    
C31   C32   S    
O12   V4    S    
C46   O41   S    
O19   C11   A    
C78   H50   S    
O13   V5    S    
C69   C70   S    
C11   C21   S    
C72   H36   S    
C66   H22   S    
C58   H4    S    
C60   H9    S    
O28   V4    S    
C65   H19   S    
O36   V6    S    
O16   V8    S    
C41   O46   S    
C16   C18   S    
C57   H1    S    
C80   H55   S    
C45   C50   S    
O7    V1    S    
O7    C15   A    
C48   O43   S    
C18   C26   D    
