data_mof_unit_20577.cif
_audit_creation_date              2013-03-05T15:58:17-0500
_audit_creation_method            fapswitch 2.2
_symmetry_space_group_name_H-M    P1
_symmetry_Int_Tables_number       1
_space_group_crystal_system       triclinic
_cell_length_a                    12.639708
_cell_length_b                    13.244295
_cell_length_c                    15.255879
_cell_angle_alpha                 83.711461
_cell_angle_beta                  100.354484
_cell_angle_gamma                 96.377536
_cell_volume                      2486.25562805

loop_
_atom_site_label
_atom_site_type_symbol
_atom_site_description
_atom_site_fract_x
_atom_site_fract_y
_atom_site_fract_z
_atom_type_partial_charge
O1    O     O_R   0.374950 0.371210 0.521360 -0.621110
O2    O     O_R   0.542050 0.338030 0.492790 -0.564296
C1    C     C_R   0.445047 0.308535 0.512214 0.864169
O3    O     O_R   0.368720 0.526070 0.390200 -0.638671
O4    O     O_R   0.535820 0.492890 0.361630 -0.540481
C2    C     C_R   0.435587 0.516152 0.335520 0.909036
Zn1   Zn    Zn3+2 0.388420 0.522150 0.519080 0.989045
Zn2   Zn    Zn3+2 0.611580 0.477850 0.480920 1.033264
O5    O     O_R   0.457950 0.661970 0.507210 -0.613160
O6    O     O_R   0.625050 0.628790 0.478640 -0.633276
O7    O     O_R   0.464180 0.507110 0.638370 -0.553824
O8    O     O_R   0.631280 0.473930 0.609800 -0.567954
C3    C     C_R   0.555628 0.691079 0.489179 0.932054
C4    C     C_R   0.565804 0.487883 0.665022 0.918493
C5    C     C_R   0.406910 0.551998 0.241337 -0.081411
C6    C     C_R   0.609317 0.486081 0.761886 -0.263044
C7    C     C_R   0.361920 0.695460 0.133598 -0.107405
C8    C     C_R   0.356694 0.642294 0.217015 -0.307622
C9    C     C_R   0.456052 0.511549 0.180259 0.408815
C10   C     C_R   0.479483 0.574006 0.103622 -0.074427
C11   C     C_R   0.424567 0.663116 0.076117 -0.013756
C12   C     C_R   0.557335 0.550975 0.054957 0.051138
C13   C     C_R   0.555750 0.595285 0.966646 0.049741
C14   C     C_R   0.505153 0.686199 0.941526 -0.166050
C15   C     C_R   0.439453 0.720359 0.994784 0.288908
C16   C     C_R   0.640781 0.489516 0.093485 -0.186425
C17   C     C_R   0.704224 0.454377 0.040335 -0.160578
C18   C     C_R   0.680277 0.474171 0.947530 0.026028
C19   C     C_R   0.604838 0.545157 0.908342 -0.003753
C20   C     C_R   0.724722 0.416892 0.894472 -0.154617
C21   C     C_R   0.685404 0.417100 0.803579 0.477847
C22   C     C_R   0.572064 0.552753 0.813908 0.235549
H1    H     H_    0.764897 0.403693 0.071179 0.151427
H2    H     H_    0.323856 0.765887 0.118170 0.201712
H3    H     H_    0.318878 0.674841 0.264357 0.179158
H4    H     H_    0.518495 0.733769 0.881791 0.229756
H5    H     H_    0.657325 0.467981 0.164763 0.197692
H6    H     H_    0.781934 0.362736 0.925220 0.181966
C23   C     C_R   0.730536 0.935507 0.521002 0.489560
H7    H     H_    0.761301 0.784887 0.501433 0.183738
C24   C     C_R   0.590716 0.799050 0.488032 -0.130271
C25   C     C_R   0.300709 0.167030 0.498134 -0.301763
C26   C     C_R   0.266827 0.064770 0.486094 0.539983
C27   C     C_R   0.344141 0.996650 0.489405 -0.111659
C28   C     C_R   0.456545 0.027871 0.509432 0.019536
C29   C     C_R   0.488296 0.127535 0.533206 0.039941
C30   C     C_R   0.538562 0.963977 0.506561 0.011441
C31   C     C_R   0.650254 0.998515 0.531344 -0.032471
C32   C     C_R   0.677736 0.091122 0.570441 0.432924
C33   C     C_R   0.596330 0.153492 0.571747 -0.227782
C34   C     C_R   0.512190 0.865628 0.480665 -0.213620
C35   C     C_R   0.699762 0.834919 0.502857 -0.149264
C36   C     C_R   0.411048 0.199238 0.518650 -0.117746
H8    H     H_    0.430190 0.836235 0.458374 0.153554
H9    H     H_    0.241048 0.221778 0.488496 0.159609
H10   H     H_    0.312325 0.919800 0.477091 0.164720
H11   H     H_    0.618297 0.222524 0.604351 0.144416
C37   C     C_R   0.142771 0.678941 0.584133 0.222605
H12   H     H_    0.315073 0.678564 0.611422 0.222437
H13   H     H_    0.942344 0.727119 0.578430 0.238541
N1    N     N_R   0.239390 0.551900 0.544730 -0.134186
C38   C     C_R   0.756319 0.373157 0.400786 0.615411
C39   C     C_R   0.851441 0.350093 0.375864 -0.354836
C40   C     C_R   0.948637 0.404371 0.406874 -0.203948
C41   C     C_R   0.952118 0.482781 0.462987 0.027876
C42   C     C_R   0.854515 0.505428 0.486108 0.037530
C43   C     C_R   0.049550 0.536697 0.500646 -0.017440
C44   C     C_R   0.046465 0.627218 0.542107 -0.012314
C45   C     C_R   0.946823 0.659227 0.546394 -0.246180
C46   C     C_R   0.857719 0.587726 0.539262 0.276231
C47   C     C_R   0.149894 0.501146 0.502968 -0.035484
C48   C     C_R   0.239236 0.639263 0.582919 0.007769
N2    N     N_R   0.759950 0.448600 0.455730 -0.147869
H14   H     H_    0.159883 0.433718 0.472783 0.132375
H15   H     H_    0.019306 0.385761 0.383745 0.156627
H16   H     H_    0.850192 0.291091 0.331723 0.154770
N3    N     N_R   0.385599 0.810747 0.963133 0.214770
O9    O     O_R   0.436732 0.889123 0.924605 -0.336664
O10   O     O_R   0.281203 0.807655 0.956457 -0.320393
O11   O     O_3   0.782695 0.117334 0.611042 -0.711467
H17   H     H_    0.787680 0.185131 0.634184 0.361971
O12   O     O_3   0.838833 0.968393 0.528972 -0.681081
H18   H     H_    0.844803 0.039181 0.500325 0.359389
O13   O     O_3   0.158957 0.029806 0.466979 -0.716021
H19   H     H_    0.114655 0.087048 0.467200 0.341074
N4    N     N_R   0.492106 0.619097 0.771099 0.194548
O14   O     O_R   0.391463 0.596172 0.779851 -0.370094
O15   O     O_R   0.517991 0.696401 0.716144 -0.369712
N5    N     N_R   0.144154 0.766525 0.632366 0.228776
O16   O     O_R   0.090482 0.760233 0.698301 -0.281267
O17   O     O_R   0.217862 0.842307 0.625234 -0.338589
O18   O     O_3   0.657963 0.322859 0.368545 -0.701171
H20   H     H_    0.668981 0.270925 0.329711 0.315090
N6    N     N_R   0.809295 0.573833 0.617361 0.243796
O19   O     O_R   0.840503 0.500599 0.677245 -0.322721
O20   O     O_R   0.771617 0.650924 0.643588 -0.382756
O21   O     O_3   0.718035 0.343606 0.759722 -0.700026
H21   H     H_    0.657627 0.323178 0.712612 0.311140
O22   O     O_3   0.479271 0.411042 0.197732 -0.752630
H22   H     H_    0.473618 0.382052 0.139670 0.345338

loop_
_geom_bond_atom_site_label_1
_geom_bond_atom_site_label_2
_geom_bond_distance
_ccdc_geom_bond_type
C5    C8    1.399105 A    
C9    C10   1.413183 A    
C3    C24   1.448551 S    
O21   H21   0.985975 S    
C42   C46   1.421032 A    
N3    O9    1.301754 A    
C17   H1    1.084248 S    
C6    C21   1.418492 A    
Zn1   O7    1.898710 S    
C16   C17   1.384361 A    
C14   H4    1.077837 S    
C15   N3    1.437314 S    
C13   C19   1.426959 A    
C18   C19   1.421842 A    
C46   N6    1.420276 S    
C19   C22   1.421344 A    
C25   C36   1.401847 A    
O4    C2    1.317990 A    
O7    C4    1.319982 A    
N4    O15   1.301663 A    
C39   H16   1.083091 S    
C20   H6    1.084900 S    
O5    C3    1.319732 A    
Zn1   N1    2.078540 S    
C2    C5    1.456998 S    
O22   H22   0.991377 S    
C44   C45   1.387262 A    
C41   C43   1.413075 A    
C38   O18   1.378110 S    
C13   C14   1.409813 A    
C38   N2    1.364753 A    
N5    O17   1.300750 A    
C8    H3    1.083501 S    
C24   C35   1.393766 A    
H12   C48   1.080626 S    
N1    C47   1.342834 A    
C28   C30   1.418457 A    
C23   C35   1.389131 A    
C26   O13   1.380162 S    
C45   C46   1.385143 A    
O3    Zn1   1.932633 S    
Zn2   N2    2.065864 S    
N3    O10   1.301467 A    
C43   C44   1.422777 A    
C14   C15   1.400355 A    
O3    C2    1.315132 A    
C9    O22   1.382053 S    
N4    O14   1.301779 A    
C30   C34   1.390249 A    
C28   C29   1.403500 A    
C42   N2    1.373818 A    
C7    C11   1.409537 A    
O1    C1    1.314048 A    
C5    C9    1.390100 A    
C26   C27   1.392703 A    
C38   C39   1.398146 A    
C25   H9    1.083646 S    
C47   H14   1.077754 S    
C27   H10   1.075531 S    
C30   C31   1.431015 A    
Zn2   O8    1.932632 S    
C22   N4    1.433284 S    
C7    C8    1.394020 A    
O13   H19   0.991903 S    
N6    O20   1.302065 A    
N1    C48   1.351602 A    
C37   C44   1.411575 A    
C31   C32   1.404249 A    
O8    C4    1.321933 A    
C32   C33   1.393291 A    
C12   C16   1.408393 A    
C4    C6    1.479807 S    
C7    H2    1.080643 S    
C27   C28   1.422681 A    
Zn1   O5    1.963814 S    
C11   C15   1.412769 A    
O1    Zn1   1.984403 S    
C33   H11   1.074246 S    
O2    Zn2   1.963815 S    
C23   O12   1.377515 S    
C10   C12   1.411196 A    
O11   H17   0.991844 S    
O6    C3    1.310345 A    
O4    Zn2   1.898710 S    
C16   H5    1.082171 S    
C6    C22   1.418299 A    
C29   C33   1.407096 A    
C32   O11   1.383322 S    
C34   H8    1.074285 S    
C40   C41   1.408628 A    
C18   C20   1.392463 A    
O2    C1    1.320060 A    
C41   C42   1.413553 A    
H7    C35   1.080895 S    
C1    C36   1.461354 S    
C37   C48   1.384105 A    
C20   C21   1.386189 A    
H13   C45   1.080799 S    
C29   C36   1.409381 A    
O18   H20   0.991816 S    
C40   H15   1.079079 S    
C43   C47   1.394439 A    
C21   O21   1.377072 S    
N6    O19   1.300895 A    
C37   N5    1.437066 S    
C39   C40   1.385369 A    
C10   C11   1.421109 A    
Zn2   O6    1.984402 S    
O12   H18   0.990982 S    
C25   C26   1.396003 A    
C17   C18   1.395408 A    
C12   C13   1.406986 A    
N5    O16   1.301312 A    
C24   C34   1.381278 A    
C23   C31   1.423195 A    
