data_mof_unit_65284.cif
_audit_creation_date              2012-12-10T17:23:32-0500
_audit_creation_method            fapswitch 2.2
_symmetry_space_group_name_H-M    P1
_symmetry_Int_Tables_number       1
_space_group_crystal_system       triclinic
_cell_length_a                    18.842853
_cell_length_b                    18.79502
_cell_length_c                    18.75791
_cell_angle_alpha                 109.42675
_cell_angle_beta                  109.495391
_cell_angle_gamma                 109.50847
_cell_volume                      5112.82515792

loop_
_atom_site_label
_atom_site_type_symbol
_atom_type_description
_atom_site_fract_x
_atom_site_fract_y
_atom_site_fract_z
_atom_type_partial_charge
C1    C     C_R   0.381278 0.499838 0.381208 0.848054
C2    C     C_R   0.772817 0.834442 0.543113 0.008732
C3    C     C_3   0.768704 0.908127 0.600617 -0.556155
C4    C     C_3   0.697727 0.837862 0.601667 0.390840
C5    C     C_R   0.227211 0.432964 0.272506 0.436609
C6    C     C_R   0.162984 0.434966 0.209695 -0.275126
C7    C     C_R   0.186072 0.499155 0.186107 -0.079116
C8    C     C_R   0.273608 0.562703 0.226999 -0.169034
C9    C     C_R   0.337152 0.562724 0.291297 -0.265665
C10   C     C_R   0.313992 0.498684 0.314349 -0.072997
C11   C     C_R   0.320633 0.241732 0.498594 -0.191025
C12   C     C_R   0.619183 0.618818 0.500248 0.785984
C13   C     C_R   0.257265 0.178384 0.499984 -0.172885
C14   C     C_R   0.185526 0.185664 0.499432 -0.010441
C15   C     C_R   0.177930 0.257076 0.498684 -0.191564
C16   C     C_R   0.242872 0.321990 0.500423 -0.153591
C17   C     C_R   0.314004 0.314088 0.499775 -0.021272
C18   C     C_R   0.756699 0.498907 0.677688 -0.173080
C19   C     C_R   0.821574 0.500469 0.742555 -0.181032
C20   C     C_R   0.814467 0.500652 0.814564 -0.007938
C21   C     C_R   0.743243 0.501000 0.822452 -0.152355
C22   C     C_R   0.679893 0.502466 0.759079 -0.175940
C23   C     C_R   0.619011 0.500166 0.619051 0.775584
C24   C     C_R   0.686119 0.500569 0.686203 -0.011417
C25   C     C_R   0.999800 0.881014 0.380879 0.804481
C26   C     C_R   0.881683 0.882003 0.500501 0.803632
C27   C     C_R   0.999968 0.118760 0.619045 0.778443
C28   C     C_R   0.118830 0.118920 0.499837 0.777741
C29   C     C_R   0.999610 0.618944 0.118447 0.845870
C30   C     C_R   0.119041 0.499931 0.119188 0.803883
C31   C     C_R   0.999998 0.381100 0.881191 0.776549
C32   C     C_R   0.881170 0.500276 0.881287 0.799930
C33   C     C_R   0.984998 0.813957 0.235163 -0.261904
C34   C     C_R   0.381010 0.381034 0.499921 0.804095
C35   C     C_R   0.987584 0.751526 0.171219 0.492406
C36   C     C_R   0.999126 0.685974 0.184549 -0.104658
C37   C     C_R   0.012002 0.685298 0.262147 -0.259788
C38   C     C_R   0.013920 0.750186 0.327185 -0.175011
C39   C     C_R   0.999715 0.814206 0.313556 -0.082198
C40   C     C_R   0.921076 0.176304 0.680231 -0.177785
C41   C     C_R   0.921145 0.239819 0.745027 -0.173674
C42   C     C_R   0.000000 0.313987 0.814321 -0.013105
C43   C     C_R   0.078855 0.323631 0.819509 -0.175713
C44   C     C_R   0.078918 0.258711 0.756268 -0.177661
C45   C     C_R   0.710759 0.772232 0.543292 0.016710
C46   C     C_R   0.999998 0.185446 0.686151 -0.008216
C47   C     C_R   0.686147 0.684756 0.499762 -0.122808
C48   C     C_R   0.728749 0.662426 0.453944 -0.184202
C49   C     C_R   0.793742 0.727422 0.454238 -0.212979
C50   C     C_R   0.816103 0.815028 0.499582 -0.030830
Cu1   Cu    Cu3+1 0.499970 0.561780 0.561770 0.981792
Cu2   Cu    Cu3+1 0.500030 0.438220 0.438230 0.944900
Cu3   Cu    Cu3+1 0.061810 0.000000 0.561760 0.950509
Cu4   Cu    Cu3+1 0.938190 0.000070 0.438240 0.949457
Cu5   Cu    Cu3+1 0.938200 0.438300 0.000110 0.952226
Cu6   Cu    Cu3+1 0.061800 0.561880 0.000070 0.952871
H1    H     H_    0.712613 0.595418 0.418603 0.165139
H2    H     H_    0.404444 0.612319 0.322695 0.129753
H3    H     H_    0.375518 0.235201 0.498208 0.141362
H4    H     H_    0.263392 0.123110 0.500084 0.139835
H5    H     H_    0.122708 0.263269 0.498388 0.143582
H6    H     H_    0.236909 0.377412 0.500595 0.159831
H7    H     H_    0.762175 0.497823 0.621690 0.139671
H8    H     H_    0.876350 0.499901 0.735875 0.139302
H9    H     H_    0.737522 0.501538 0.878194 0.144798
H10   H     H_    0.625336 0.503450 0.765986 0.141293
H11   H     H_    0.972276 0.862515 0.224037 0.156443
H12   H     H_    0.826050 0.709419 0.419197 0.135680
H13   H     H_    0.021903 0.635302 0.272772 0.159083
H14   H     H_    0.024697 0.749416 0.387321 0.156217
H15   H     H_    0.859799 0.119525 0.626346 0.136288
H16   H     H_    0.859834 0.231936 0.740363 0.143667
H17   H     H_    0.140164 0.380553 0.873117 0.141221
H18   H     H_    0.140193 0.266274 0.761062 0.139110
H19   H     H_    0.829692 0.952576 0.664851 0.171613
H20   H     H_    0.745449 0.940945 0.566638 0.208072
H21   H     H_    0.718989 0.842955 0.666888 0.100174
H22   H     H_    0.095392 0.386845 0.179837 0.158387
H23   H     H_    0.292971 0.612922 0.210024 0.161280
O1    O     O_R   0.409790 0.552170 0.461990 -0.574348
O2    O     O_R   0.947790 0.909920 0.357650 -0.584857
O3    O     O_R   0.962030 0.909820 0.552150 -0.585572
O4    O     O_R   0.857630 0.909880 0.447840 -0.585688
O5    O     O_R   0.052210 0.090150 0.642360 -0.584361
O6    O     O_R   0.947820 0.090210 0.538040 -0.586756
O7    O     O_R   0.142360 0.090190 0.552160 -0.585205
O8    O     O_R   0.037970 0.090250 0.447850 -0.586684
O9    O     O_R   0.947800 0.538090 0.090240 -0.590532
O10   O     O_R   0.052170 0.642450 0.090210 -0.570279
O11   O     O_R   0.038000 0.447920 0.090280 -0.591855
O12   O     O_R   0.409840 0.447810 0.357660 -0.587655
O13   O     O_R   0.142370 0.552280 0.090250 -0.597519
O14   O     O_R   0.947830 0.357730 0.909970 -0.585966
O15   O     O_R   0.052200 0.462090 0.909940 -0.589176
O16   O     O_R   0.857630 0.447900 0.909930 -0.589871
O17   O     O_R   0.962000 0.552260 0.909900 -0.576336
O18   O     O_R   0.590140 0.642360 0.552170 -0.575318
O19   O     O_R   0.590190 0.538010 0.447840 -0.595235
O20   O     O_R   0.590160 0.552190 0.642340 -0.585376
O21   O     O_R   0.590210 0.447830 0.538010 -0.589938
O22   O     O_R   0.409810 0.461990 0.552160 -0.584131
O23   O     O_R   0.409860 0.357640 0.447830 -0.591371
O24   O     O_R   0.052180 0.909860 0.461960 -0.589710
O25   O     O_3   0.970148 0.748451 0.092100 -0.581498
C51   C     C_3   0.038521 0.821986 0.105781 -0.296643
H24   H     H_    0.029831 0.812800 0.041278 0.192771
H25   H     H_    0.103161 0.829702 0.143291 0.158182
H26   H     H_    0.037043 0.882264 0.138919 0.149855
O26   O     O_3   0.615559 0.833793 0.567700 -0.550469
C52   C     C_3   0.568459 0.793244 0.475665 -0.242956
H27   H     H_    0.545056 0.722311 0.445227 0.147443
H28   H     H_    0.607147 0.823558 0.449801 0.152489
H29   H     H_    0.510304 0.801018 0.456643 0.176017
O27   O     O_3   0.205952 0.372241 0.299228 -0.595799
C53   C     C_3   0.166790 0.287444 0.228628 0.052200
H30   H     H_    0.204045 0.284328 0.193367 0.143108
H31   H     H_    0.098692 0.265372 0.182123 0.145146
C54   C     C_3   0.164593 0.224641 0.263294 -0.760691
H32   H     H_    0.128501 0.226350 0.299517 0.255123
H33   H     H_    0.131675 0.157313 0.208137 0.192436
H34   H     H_    0.231857 0.242922 0.307636 0.255093

loop_
_geom_bond_atom_site_label_1
_geom_bond_atom_site_label_2
_ccdc_geom_bond_type
C43   H17   S    
C23   O20   A    
Cu5   Cu6   S    
C38   H14   S    
Cu1   O18   S    
C26   O4    A    
C40   H15   S    
C37   H13   S    
C5    O27   S    
C41   C42   A    
C49   H12   S    
C35   C36   A    
C30   O11   A    
C29   O10   A    
O27   C53   S    
C7    C8    A    
C13   H4    S    
Cu3   Cu4   S    
C40   C46   A    
C51   H25   S    
C29   C36   S    
Cu2   O23   S    
C33   C39   A    
Cu3   O5    S    
C18   C24   A    
C36   C37   A    
C31   C42   S    
C18   C19   A    
Cu5   O11   S    
C26   C50   S    
C5    C6    A    
C18   H7    S    
C6    H22   S    
C15   C16   A    
C8    C9    A    
C9    H2    S    
Cu5   O9    S    
C27   O6    A    
C54   H32   S    
Cu4   O4    S    
C29   O9    A    
C2    C50   A    
C52   H27   S    
C22   H10   S    
C19   C20   A    
C16   C17   A    
C53   H31   S    
C8    H23   S    
C23   C24   S    
Cu3   O7    S    
C3    H19   S    
C9    C10   A    
C12   O19   A    
Cu5   O14   S    
C23   O21   A    
C26   O3    A    
C7    C30   S    
C21   C22   A    
C25   O2    A    
C16   H6    S    
C12   C47   S    
C11   H3    S    
O25   C51   S    
C44   C46   A    
C54   H33   S    
C4    C45   S    
C45   C47   A    
C2    C45   A    
Cu1   O20   S    
C38   C39   A    
C51   H26   S    
C34   O22   A    
Cu1   Cu2   S    
C48   H1    S    
C30   O13   A    
C35   O25   S    
C25   O24   A    
C31   O14   A    
Cu2   O21   S    
Cu3   O3    S    
C54   H34   S    
Cu6   O15   S    
C43   C44   A    
C37   C38   A    
C47   C48   A    
Cu6   O13   S    
C19   H8    S    
C53   C54   S    
C28   O8    A    
C15   H5    S    
C34   O23   A    
C44   H18   S    
C3    H20   S    
C52   H29   S    
C12   O18   A    
C41   H16   S    
C27   C46   S    
Cu5   O16   S    
C48   C49   A    
C32   O17   A    
C28   O7    A    
C22   C24   A    
C42   C43   A    
C3    C4    S    
C31   O15   A    
C33   H11   S    
C20   C32   S    
Cu6   O17   S    
Cu6   O10   S    
C27   O5    A    
C21   H9    S    
C1    C10   S    
C11   C17   A    
Cu4   O6    S    
C6    C7    A    
Cu1   O22   S    
C4    O26   S    
C51   H24   S    
C2    C3    S    
C5    C10   A    
O26   C52   S    
C25   C39   S    
C11   C13   A    
Cu4   O8    S    
Cu3   O24   S    
Cu1   O1    S    
Cu2   O19   S    
C33   C35   A    
C52   H28   S    
C4    H21   S    
C32   O16   A    
C20   C21   A    
C1    O12   A    
C49   C50   A    
C17   C34   S    
C1    O1    A    
C14   C15   A    
Cu2   O12   S    
C40   C41   A    
C14   C28   S    
C13   C14   A    
Cu4   O2    S    
C53   H30   S    
