data_mof_unit_56098.cif
_audit_creation_date              2012-12-11T16:14:10-0500
_audit_creation_method            fapswitch 2.2
_symmetry_space_group_name_H-M    P1
_symmetry_Int_Tables_number       1
_space_group_crystal_system       triclinic
_cell_length_a                    25.81776
_cell_length_b                    25.808541
_cell_length_c                    27.327262
_cell_angle_alpha                 90.099931
_cell_angle_beta                  90.043137
_cell_angle_gamma                 89.968181
_cell_volume                      18208.630518

loop_
_atom_site_label
_atom_site_type_symbol
_atom_type_description
_atom_site_fract_x
_atom_site_fract_y
_atom_site_fract_z
_atom_type_partial_charge
C1    C     C_R   0.620035 0.439520 0.415216 -0.129956
C2    C     C_R   0.369372 0.429982 0.433815 -0.128227
C3    C     C_R   0.336384 0.602993 0.679752 -0.272442
C4    C     C_R   0.355120 0.290062 0.394082 -0.279193
C5    C     C_R   0.644946 0.708284 0.610069 -0.275905
C6    C     C_R   0.291646 0.643774 0.389415 -0.277114
C7    C     C_R   0.643312 0.418724 0.693877 -0.254754
C8    C     C_R   0.603787 0.335251 0.679229 -0.271760
C9    C     C_R   0.345471 0.711292 0.423829 -0.277831
C10   C     C_R   0.712251 0.653784 0.576246 -0.278877
C11   C     C_R   0.288082 0.344354 0.428566 -0.268503
C12   C     C_R   0.420622 0.640841 0.694662 -0.254068
C13   C     C_R   0.445205 0.616143 0.588502 -0.134956
C14   C     C_R   0.585313 0.350505 0.310610 -0.254177
C15   C     C_R   0.288929 0.358794 0.605877 -0.279833
C16   C     C_R   0.669636 0.612279 0.326657 -0.274618
C17   C     C_R   0.081223 0.134156 0.802907 -0.254839
C18   C     C_R   0.855737 0.792211 0.110126 -0.275334
C19   C     C_R   0.212316 0.846109 0.923940 -0.278400
C20   C     C_R   0.788578 0.156749 0.070303 -0.267374
C21   C     C_R   0.920690 0.859470 0.805187 -0.253742
C22   C     C_R   0.084759 0.149568 0.189753 -0.252915
C23   C     C_R   0.790155 0.144721 0.893243 -0.279307
C24   C     C_R   0.556794 0.380794 0.414067 -0.136828
C25   C     C_R   0.144747 0.915346 0.189840 -0.252332
C26   C     C_R   0.109846 0.829927 0.174044 -0.275268
C27   C     C_R   0.843300 0.211986 0.928910 -0.267208
C28   C     C_R   0.167599 0.108131 0.176734 -0.279620
C29   C     C_R   0.836421 0.897308 0.820049 -0.273143
C30   C     C_R   0.855552 0.209720 0.106687 -0.279334
C31   C     C_R   0.145005 0.791584 0.890179 -0.275598
C32   C     C_R   0.788298 0.846472 0.076275 -0.278637
C33   C     C_R   0.168270 0.109846 0.825750 -0.272320
C34   C     C_R   0.600690 0.665011 0.264781 0.159524
C35   C     C_R   0.369178 0.430728 0.565746 -0.146093
C36   C     C_R   0.300659 0.253902 0.582094 0.180395
C37   C     C_R   0.687304 0.369631 0.280723 0.174407
C38   C     C_R   0.318618 0.621696 0.724713 0.172222
C39   C     C_R   0.318866 0.251291 0.384168 0.167910
C40   C     C_R   0.681436 0.746475 0.621245 0.169457
C41   C     C_R   0.253139 0.680018 0.378606 0.170134
C42   C     C_R   0.662857 0.401311 0.738779 0.160738
C43   C     C_R   0.622808 0.317004 0.723957 0.172937
C44   C     C_R   0.307473 0.748335 0.413368 0.175994
C45   C     C_R   0.749518 0.691467 0.587066 0.176610
C46   C     C_R   0.620152 0.560368 0.415409 -0.130089
C47   C     C_R   0.250991 0.306074 0.418885 0.179545
C48   C     C_R   0.403666 0.660103 0.739791 0.161532
C49   C     C_R   0.602073 0.331973 0.265150 0.161569
C50   C     C_R   0.248417 0.324539 0.615443 0.171950
C51   C     C_R   0.686919 0.629951 0.281210 0.173985
C52   C     C_R   0.099002 0.152218 0.757599 0.162230
C53   C     C_R   0.819509 0.753708 0.120677 0.169823
C54   C     C_R   0.249611 0.808438 0.913091 0.176284
C55   C     C_R   0.751736 0.195349 0.079863 0.179459
C56   C     C_R   0.903715 0.840201 0.760052 0.161121
C57   C     C_R   0.555163 0.383680 0.588326 -0.134967
C58   C     C_R   0.101318 0.167980 0.235336 0.161281
C59   C     C_R   0.751454 0.180867 0.882624 0.168979
C60   C     C_R   0.162716 0.899298 0.235621 0.161943
C61   C     C_R   0.127568 0.812934 0.219602 0.173987
C62   C     C_R   0.805000 0.248937 0.918656 0.177899
C63   C     C_R   0.184928 0.125850 0.222306 0.174326
C64   C     C_R   0.818632 0.878595 0.775083 0.172421
C65   C     C_R   0.819547 0.248724 0.116588 0.168695
C66   C     C_R   0.181523 0.753403 0.878977 0.169223
C67   C     C_R   0.751239 0.808461 0.086479 0.177850
C68   C     C_R   0.430089 0.630248 0.433062 -0.145189
C69   C     C_R   0.187205 0.128318 0.781157 0.173675
C70   C     C_3   0.550494 0.742009 0.248865 -0.890682
C71   C     C_3   0.274184 0.186360 0.526399 -0.911583
C72   C     C_3   0.774295 0.335619 0.278063 -0.894627
C73   C     C_3   0.231208 0.654703 0.724302 -0.892040
C74   C     C_3   0.349053 0.163893 0.394015 -0.898255
C75   C     C_3   0.648589 0.833210 0.613747 -0.891100
C76   C     C_3   0.166388 0.647437 0.386248 -0.893713
C77   C     C_3   0.743066 0.447258 0.751419 -0.891329
C78   C     C_3   0.654688 0.229155 0.723929 -0.894503
C79   C     C_R   0.130495 0.930107 0.933504 -0.138709
C80   C     C_3   0.284205 0.820700 0.465086 -0.898028
C81   C     C_3   0.822090 0.713404 0.535386 -0.901014
C82   C     C_3   0.180568 0.281861 0.472059 -0.918300
C83   C     C_3   0.451912 0.738984 0.752822 -0.897741
C84   C     C_3   0.554688 0.253099 0.250027 -0.896250
C85   C     C_3   0.161934 0.354930 0.599979 -0.906109
C86   C     C_3   0.773077 0.665971 0.279485 -0.893804
C87   C     C_3   0.040684 0.221410 0.735485 -0.890342
C88   C     C_3   0.851594 0.666779 0.112138 -0.891157
C89   C     C_3   0.322393 0.786449 0.964630 -0.900056
C90   C     C_R   0.869364 0.070164 0.066059 -0.126133
C91   C     C_3   0.683000 0.221328 0.025383 -0.913284
C92   C     C_3   0.952104 0.761351 0.747080 -0.895873
C93   C     C_3   0.056138 0.248754 0.247856 -0.896261
C94   C     C_3   0.664474 0.149056 0.890527 -0.902068
C95   C     C_3   0.238782 0.951012 0.251475 -0.902560
C96   C     C_3   0.163429 0.726651 0.221515 -0.892933
C97   C     C_3   0.779869 0.318210 0.972947 -0.911953
C98   C     C_3   0.273754 0.154481 0.225413 -0.891998
C99   C     C_3   0.731256 0.845599 0.775540 -0.893101
C100  C     C_3   0.850585 0.335990 0.108489 -0.898362
C101  C     C_R   0.945243 0.883951 0.911427 -0.131982
C102  C     C_3   0.148929 0.666623 0.886564 -0.891266
C103  C     C_3   0.678729 0.785419 0.034916 -0.902004
C104  C     C_3   0.267908 0.174496 0.787809 -0.895697
C105  C     C_R   0.383876 0.555033 0.588438 -0.134189
C106  C     C_R   0.056446 0.118718 0.086391 -0.134421
C107  C     C_R   0.869144 0.069813 0.934376 -0.147348
C108  C     C_R   0.120276 0.939906 0.084459 -0.137548
C109  C     C_R   0.055043 0.116009 0.911407 -0.136271
C110  C     C_R   0.930458 0.869768 0.067047 -0.144992
C111  C     C_R   0.119664 0.059963 0.085234 -0.134393
C112  C     C_R   0.883903 0.945114 0.911494 -0.137898
C113  C     C_R   0.930286 0.130729 0.065951 -0.149605
C114  C     C_R   0.069743 0.869472 0.933389 -0.152119
C115  C     C_R   0.869796 0.930815 0.067512 -0.128804
C116  C     C_R   0.430229 0.369291 0.434027 -0.149289
C117  C     C_R   0.116890 0.055335 0.912160 -0.137152
C118  C     C_R   0.057153 0.881027 0.086048 -0.132278
C119  C     C_R   0.929437 0.130811 0.934636 -0.145210
C120  C     C_R   0.618720 0.621385 0.341813 0.111150
C121  C     C_R   0.335678 0.341470 0.585901 0.114071
C122  C     C_R   0.619079 0.377649 0.341636 0.111431
C123  C     C_R   0.386769 0.613566 0.663905 0.109459
C124  C     C_R   0.339855 0.337337 0.414650 0.114109
C125  C     C_R   0.660112 0.661401 0.588685 0.115107
C126  C     C_R   0.338397 0.659201 0.410789 0.114665
C127  C     C_R   0.569711 0.630497 0.566686 -0.150464
C128  C     C_R   0.614796 0.385579 0.663387 0.109653
C129  C     C_R   0.115757 0.113888 0.837342 0.107232
C130  C     C_R   0.840342 0.839150 0.089173 0.115996
C131  C     C_R   0.160160 0.838486 0.911524 0.114833
C132  C     C_R   0.840146 0.162956 0.085232 0.113849
C133  C     C_R   0.886825 0.886721 0.835933 0.109520
C134  C     C_R   0.117998 0.120634 0.159701 0.110673
C135  C     C_R   0.836837 0.160134 0.914831 0.112442
C136  C     C_R   0.119359 0.880574 0.158544 0.108996
C137  C     C_R   0.652236 0.656514 0.249849 -0.015795
C138  C     C_R   0.369763 0.568943 0.432364 -0.133113
C139  C     C_R   0.255354 0.270697 0.606934 -0.011147
C140  C     C_R   0.653241 0.341750 0.249671 -0.015543
C141  C     C_R   0.352304 0.650844 0.755038 -0.017731
C142  C     C_R   0.265834 0.260390 0.393954 -0.011889
C143  C     C_R   0.734484 0.737344 0.611513 -0.001532
C144  C     C_R   0.261875 0.733120 0.388616 -0.000998
C145  C     C_R   0.652765 0.350119 0.754198 -0.016137
C146  C     C_R   0.152519 0.149827 0.746301 -0.018008
C147  C     C_R   0.766423 0.762669 0.110900 -0.000753
C148  C     C_R   0.234586 0.762568 0.888634 -0.001607
C149  C     C_R   0.616360 0.444915 0.588342 -0.134891
C150  C     C_R   0.766586 0.240378 0.105833 -0.011739
C151  C     C_R   0.852318 0.849430 0.744788 -0.017906
C152  C     C_R   0.151698 0.156230 0.252031 -0.018260
C153  C     C_R   0.759918 0.233931 0.892910 -0.013091
C154  C     C_R   0.154269 0.847804 0.250800 -0.018348
C155  C     C_R   0.221868 0.232487 0.632597 0.128467
C156  C     C_R   0.671560 0.680048 0.204549 0.147982
C157  C     C_R   0.331773 0.676514 0.799026 0.148184
C158  C     C_R   0.672641 0.319346 0.203551 0.146047
C159  C     C_R   0.773938 0.769168 0.636185 0.134879
C160  C     C_R   0.556886 0.619172 0.414244 -0.134820
C161  C     C_R   0.226433 0.229993 0.367486 0.140041
C162  C     C_R   0.677225 0.329495 0.798969 0.146202
C163  C     C_R   0.230544 0.772433 0.363294 0.134206
C164  C     C_R   0.727179 0.731582 0.136466 0.133888
C165  C     C_R   0.172786 0.174091 0.701024 0.138198
C166  C     C_R   0.727096 0.270514 0.132454 0.140212
C167  C     C_R   0.274024 0.730821 0.863849 0.134836
C168  C     C_R   0.171479 0.179718 0.297585 0.145301
C169  C     C_R   0.831752 0.823662 0.700848 0.148211
C170  C     C_R   0.178203 0.828586 0.296019 0.148550
C171  C     C_R   0.429037 0.369270 0.565365 -0.140127
C172  C     C_R   0.728951 0.273357 0.867021 0.141143
C173  C     C_R   0.600524 0.397353 0.389186 0.073236
C174  C     C_R   0.403851 0.596375 0.615171 0.075017
C175  C     C_R   0.378713 0.378241 0.422888 0.077212
C176  C     C_R   0.621058 0.621208 0.578475 0.080284
C177  C     C_R   0.378854 0.620383 0.420746 0.076540
C178  C     C_R   0.596799 0.403352 0.614969 0.073577
C179  C     C_R   0.600606 0.602421 0.389492 0.073794
C180  C     C_R   0.377461 0.379201 0.576713 0.082074
C181  C     C_R   0.121088 0.878713 0.921673 0.080302
C182  C     C_R   0.630486 0.569827 0.566594 -0.145612
C183  C     C_R   0.878801 0.121875 0.077021 0.077007
C184  C     C_R   0.903896 0.903813 0.884716 0.075140
C185  C     C_R   0.099902 0.101742 0.111619 0.073597
C186  C     C_R   0.877810 0.121397 0.923579 0.081837
C187  C     C_R   0.100951 0.898179 0.110594 0.074708
C188  C     C_R   0.097182 0.096580 0.885420 0.072880
C189  C     C_R   0.879275 0.879386 0.079278 0.076918
C190  C     C_R   0.584229 0.646816 0.310307 -0.252738
C191  C     C_R   0.340662 0.289307 0.572613 -0.269299
C192  C     C_R   0.669714 0.387639 0.326091 -0.274818
H1    H     H_    0.655843 0.459243 0.407980 0.086210
H2    H     H_    0.331933 0.448557 0.436356 0.086387
H3    H     H_    0.692048 0.241720 0.740247 0.256646
H4    H     H_    0.354896 0.810759 0.430537 0.166811
H5    H     H_    0.292730 0.799492 0.499534 0.246180
H6    H     H_    0.242515 0.816408 0.455934 0.254771
H7    H     H_    0.292281 0.862517 0.470882 0.248481
H8    H     H_    0.811743 0.643405 0.570969 0.166051
H9    H     H_    0.800993 0.704280 0.500963 0.245601
H10   H     H_    0.863890 0.705060 0.529961 0.247913
H11   H     H_    0.817871 0.755297 0.543823 0.255535
H12   H     H_    0.188924 0.353016 0.438111 0.167791
H13   H     H_    0.469716 0.648419 0.598275 0.095572
H14   H     H_    0.203836 0.289149 0.505605 0.257795
H15   H     H_    0.183621 0.240335 0.461768 0.258508
H16   H     H_    0.139298 0.290533 0.480027 0.250120
H17   H     H_    0.471302 0.666429 0.778788 0.167234
H18   H     H_    0.475099 0.736331 0.718659 0.234977
H19   H     H_    0.475219 0.759442 0.781011 0.248263
H20   H     H_    0.416342 0.762013 0.745690 0.262752
H21   H     H_    0.533585 0.326393 0.227339 0.167678
H22   H     H_    0.532607 0.253937 0.284920 0.235747
H23   H     H_    0.590756 0.230256 0.255209 0.262316
H24   H     H_    0.532387 0.348119 0.405267 0.095142
H25   H     H_    0.530727 0.233603 0.221720 0.248380
H26   H     H_    0.207458 0.375801 0.659075 0.166032
H27   H     H_    0.174907 0.385438 0.574069 0.242816
H28   H     H_    0.126294 0.368454 0.618800 0.249458
H29   H     H_    0.152384 0.319115 0.579274 0.259803
H30   H     H_    0.755072 0.587969 0.280632 0.164056
H31   H     H_    0.774946 0.672063 0.319725 0.242818
H32   H     H_    0.758702 0.701848 0.261656 0.256856
H33   H     H_    0.812737 0.658066 0.265654 0.245571
H34   H     H_    0.034314 0.144767 0.714483 0.167950
H35   H     H_    0.331839 0.449173 0.561442 0.089505
H36   H     H_    0.015586 0.218146 0.768356 0.236675
H37   H     H_    0.016834 0.235632 0.704465 0.248720
H38   H     H_    0.071830 0.250123 0.742710 0.261286
H39   H     H_    0.863945 0.714779 0.171571 0.165477
H40   H     H_    0.886601 0.678272 0.091134 0.239174
H41   H     H_    0.819701 0.657485 0.086245 0.258903
H42   H     H_    0.860645 0.631432 0.133617 0.247847
H43   H     H_    0.311794 0.856521 0.929201 0.165838
H44   H     H_    0.301381 0.795466 0.999100 0.246400
H45   H     H_    0.364191 0.794828 0.970019 0.247850
H46   H     H_    0.655935 0.540543 0.408133 0.085731
H47   H     H_    0.318244 0.744572 0.956110 0.255071
H48   H     H_    0.689458 0.149656 0.058765 0.167627
H49   H     H_    0.706595 0.213672 0.992135 0.256899
H50   H     H_    0.686926 0.262694 0.035996 0.257744
H51   H     H_    0.641664 0.213782 0.016709 0.249032
H52   H     H_    0.971292 0.833901 0.721048 0.167508
H53   H     H_    0.975360 0.764058 0.781228 0.234991
H54   H     H_    0.975391 0.740885 0.718897 0.248302
H55   H     H_    0.916596 0.738298 0.754251 0.262782
H56   H     H_    0.032708 0.176827 0.272292 0.167196
H57   H     H_    0.530075 0.352001 0.598431 0.097339
H58   H     H_    0.034143 0.247576 0.212895 0.235314
H59   H     H_    0.092914 0.270262 0.242240 0.262276
H60   H     H_    0.032705 0.269862 0.275504 0.248118
H61   H     H_    0.712902 0.136119 0.831621 0.165992
H62   H     H_    0.675973 0.114529 0.912254 0.239977
H63   H     H_    0.629454 0.139372 0.868759 0.249120
H64   H     H_    0.654618 0.181367 0.915773 0.260101
H65   H     H_    0.164458 0.967185 0.274739 0.170028
H66   H     H_    0.236576 0.973676 0.216989 0.230355
H67   H     H_    0.263750 0.916475 0.245680 0.264241
H68   H     H_    0.448223 0.667864 0.435731 0.089202
H69   H     H_    0.256796 0.975638 0.280158 0.250556
H70   H     H_    0.085488 0.744892 0.220589 0.164938
H71   H     H_    0.169201 0.724516 0.181257 0.243077
H72   H     H_    0.155573 0.687085 0.235565 0.245772
H73   H     H_    0.199457 0.741043 0.239107 0.256619
H74   H     H_    0.850978 0.311406 0.938576 0.168356
H75   H     H_    0.788021 0.294885 0.006240 0.256312
H76   H     H_    0.738357 0.314209 0.962973 0.257754
H77   H     H_    0.787559 0.359630 0.981228 0.249648
H78   H     H_    0.249185 0.078282 0.226088 0.167677
H79   H     H_    0.167969 0.948510 0.936190 0.086796
H80   H     H_    0.277300 0.158730 0.185085 0.242321
H81   H     H_    0.312183 0.143852 0.240672 0.246863
H82   H     H_    0.261941 0.192145 0.241674 0.256298
H83   H     H_    0.752018 0.922844 0.772603 0.164402
H84   H     H_    0.729394 0.842156 0.816041 0.241990
H85   H     H_    0.744300 0.808166 0.759656 0.257017
H86   H     H_    0.691816 0.853974 0.761367 0.246343
H87   H     H_    0.864559 0.287636 0.167217 0.166852
H88   H     H_    0.884851 0.324735 0.086258 0.240759
H89   H     H_    0.860365 0.371041 0.130215 0.249564
H90   H     H_    0.831862 0.051756 0.063408 0.086528
H91   H     H_    0.817861 0.345700 0.083723 0.259296
H92   H     H_    0.137887 0.714829 0.827222 0.166185
H93   H     H_    0.113518 0.678235 0.906951 0.239434
H94   H     H_    0.180238 0.657173 0.913015 0.258497
H95   H     H_    0.140230 0.631337 0.864766 0.247992
H96   H     H_    0.688917 0.856123 0.069568 0.165893
H97   H     H_    0.699893 0.793824 0.000426 0.245772
H98   H     H_    0.636943 0.793671 0.029237 0.247936
H99   H     H_    0.682903 0.743705 0.043997 0.255527
H100  H     H_    0.259630 0.094868 0.786680 0.165871
H101  H     H_    0.969785 0.851694 0.901625 0.095691
H102  H     H_    0.265015 0.179744 0.828099 0.243567
H103  H     H_    0.250853 0.208729 0.769178 0.256649
H104  H     H_    0.309439 0.171954 0.777565 0.246920
H105  H     H_    0.352238 0.529992 0.598680 0.095047
H106  H     H_    0.031870 0.151225 0.095333 0.094312
H107  H     H_    0.831606 0.051768 0.938505 0.089267
H108  H     H_    0.156634 0.958990 0.091066 0.090692
H109  H     H_    0.030394 0.148026 0.901113 0.100545
H110  H     H_    0.948158 0.831981 0.063331 0.093497
H111  H     H_    0.155366 0.040083 0.092565 0.084949
H112  H     H_    0.852304 0.970268 0.901245 0.095423
H113  H     H_    0.948178 0.168331 0.061713 0.092439
H114  H     H_    0.051917 0.831767 0.937023 0.094870
H115  H     H_    0.832480 0.949729 0.065713 0.088009
H116  H     H_    0.448123 0.331671 0.438269 0.091878
H117  H     H_    0.149071 0.030712 0.902309 0.098343
H118  H     H_    0.032287 0.849115 0.095988 0.094724
H119  H     H_    0.947551 0.168415 0.937797 0.088996
H120  H     H_    0.544160 0.652426 0.320686 0.129187
H121  H     H_    0.375403 0.275926 0.554391 0.119524
H122  H     H_    0.696408 0.408229 0.349684 0.120999
H123  H     H_    0.309704 0.582190 0.656290 0.122729
H124  H     H_    0.395189 0.283618 0.384036 0.123335
H125  H     H_    0.604760 0.714874 0.619622 0.123600
H126  H     H_    0.285392 0.603582 0.379587 0.125569
H127  H     H_    0.551865 0.668217 0.563064 0.094442
H128  H     H_    0.650753 0.458319 0.682948 0.128583
H129  H     H_    0.582159 0.309012 0.655986 0.122771
H130  H     H_    0.380444 0.723561 0.442316 0.119970
H131  H     H_    0.724380 0.618641 0.557917 0.119262
H132  H     H_    0.276174 0.379556 0.446958 0.118308
H133  H     H_    0.460311 0.647660 0.683679 0.127764
H134  H     H_    0.545485 0.343901 0.321233 0.127203
H135  H     H_    0.283823 0.399295 0.615108 0.121296
H136  H     H_    0.696751 0.592853 0.350668 0.121349
H137  H     H_    0.040198 0.135851 0.811063 0.131688
H138  H     H_    0.332300 0.550452 0.435150 0.092131
H139  H     H_    0.895923 0.785786 0.119810 0.123808
H140  H     H_    0.224440 0.881260 0.942252 0.119370
H141  H     H_    0.776699 0.121974 0.051171 0.118421
H142  H     H_    0.960396 0.852653 0.816198 0.128001
H143  H     H_    0.045539 0.157907 0.178213 0.126697
H144  H     H_    0.784171 0.104617 0.882950 0.123507
H145  H     H_    0.150397 0.955303 0.179010 0.129655
H146  H     H_    0.090207 0.802829 0.150075 0.123741
H147  H     H_    0.878022 0.224029 0.947986 0.119975
H148  H     H_    0.193883 0.085844 0.154165 0.121416
H149  H     H_    0.648813 0.469243 0.597954 0.096918
H150  H     H_    0.809738 0.918105 0.843500 0.122280
H151  H     H_    0.895525 0.215537 0.117441 0.123422
H152  H     H_    0.104806 0.784977 0.880658 0.123867
H153  H     H_    0.776130 0.881644 0.058101 0.118080
H154  H     H_    0.195311 0.094514 0.852397 0.124945
H155  H     H_    0.532705 0.667854 0.225928 0.168318
H156  H     H_    0.527726 0.740480 0.283332 0.237044
H157  H     H_    0.526404 0.760493 0.220101 0.248683
H158  H     H_    0.585535 0.766207 0.254712 0.261740
H159  H     H_    0.344686 0.189884 0.562386 0.167727
H160  H     H_    0.532518 0.651842 0.405377 0.096280
H161  H     H_    0.283981 0.209742 0.493568 0.256999
H162  H     H_    0.232646 0.191854 0.535566 0.257882
H163  H     H_    0.280478 0.144770 0.517803 0.249133
H164  H     H_    0.754449 0.413201 0.279898 0.164213
H165  H     H_    0.776640 0.329352 0.318236 0.242884
H166  H     H_    0.813637 0.344518 0.264014 0.245994
H167  H     H_    0.760647 0.299516 0.260038 0.256482
H168  H     H_    0.252049 0.577448 0.727115 0.164894
H169  H     H_    0.229286 0.658225 0.683807 0.242459
H170  H     H_    0.244234 0.692103 0.740254 0.256755
H171  H     H_    0.446730 0.331450 0.562125 0.086958
H172  H     H_    0.191796 0.646303 0.738453 0.246513
H173  H     H_    0.364140 0.211069 0.334719 0.166994
H174  H     H_    0.383195 0.175190 0.416429 0.240594
H175  H     H_    0.358717 0.128350 0.372964 0.249745
H176  H     H_    0.315988 0.154982 0.418586 0.259452
H177  H     H_    0.637946 0.784987 0.673115 0.165809
H178  H     H_    0.613107 0.821551 0.593462 0.239447
H179  H     H_    0.679747 0.842700 0.587205 0.258848
H180  H     H_    0.639909 0.868486 0.635568 0.247513
H181  H     H_    0.214754 0.635870 0.327050 0.166271
H182  H     H_    0.667964 0.551388 0.563960 0.088442
H183  H     H_    0.177965 0.612252 0.406974 0.238891
H184  H     H_    0.131207 0.638453 0.364443 0.247813
H185  H     H_    0.156800 0.679032 0.412399 0.258638
H186  H     H_    0.671128 0.469279 0.777048 0.167912
H187  H     H_    0.741189 0.469902 0.716906 0.236609
H188  H     H_    0.765028 0.410879 0.744852 0.261304
H189  H     H_    0.764131 0.470442 0.779302 0.249029
H190  H     H_    0.577683 0.250959 0.726098 0.166074
H191  H     H_    0.658668 0.227138 0.683472 0.242575
H192  H     H_    0.645609 0.189860 0.737996 0.246418
N1    N     N_R   0.586860 0.450690 0.451700 -0.039854
N2    N     N_R   0.413140 0.450690 0.451700 -0.038409
N3    N     N_R   0.450690 0.586860 0.548300 -0.039438
N4    N     N_R   0.549310 0.413140 0.451700 -0.040105
N5    N     N_R   0.413140 0.450690 0.548300 -0.037163
N6    N     N_R   0.586860 0.549310 0.451700 -0.038448
N7    N     N_R   0.549310 0.413140 0.548300 -0.040708
N8    N     N_R   0.450690 0.586860 0.451700 -0.039016
N9    N     N_R   0.086860 0.950690 0.951700 -0.038128
N10   N     N_R   0.913140 0.049310 0.048300 -0.038389
N11   N     N_R   0.950690 0.913140 0.951700 -0.039452
N12   N     N_R   0.413140 0.549310 0.548300 -0.039850
N13   N     N_R   0.049310 0.086860 0.048300 -0.039983
N14   N     N_R   0.913140 0.049310 0.951700 -0.036937
N15   N     N_R   0.086860 0.950690 0.048300 -0.037942
N16   N     N_R   0.049310 0.086860 0.951700 -0.040551
N17   N     N_R   0.950690 0.913140 0.048300 -0.038991
N18   N     N_R   0.086860 0.049310 0.048300 -0.039186
N19   N     N_R   0.913140 0.950690 0.951700 -0.040117
N20   N     N_R   0.950690 0.086860 0.048300 -0.037351
N21   N     N_R   0.049310 0.913140 0.951700 -0.037937
N22   N     N_R   0.913140 0.950690 0.048300 -0.039864
N23   N     N_R   0.450690 0.413140 0.451700 -0.037477
N24   N     N_R   0.086860 0.049310 0.951700 -0.040521
N25   N     N_R   0.049310 0.913140 0.048300 -0.038516
N26   N     N_R   0.950690 0.086860 0.951700 -0.036997
N27   N     N_R   0.217934 0.157809 0.680727 -0.060434
N28   N     N_R   0.690504 0.756446 0.163105 -0.068205
N29   N     N_R   0.268667 0.678698 0.860027 -0.059884
N30   N     N_R   0.733186 0.322073 0.140284 -0.058275
N31   N     N_R   0.796939 0.848102 0.671669 -0.061876
N32   N     N_R   0.204799 0.153394 0.326869 -0.060497
N33   N     N_R   0.753854 0.309806 0.840196 -0.069459
N34   N     N_R   0.549310 0.586860 0.548300 -0.037619
N35   N     N_R   0.152934 0.794001 0.324702 -0.061751
N36   N     N_R   0.229377 0.836841 0.303650 -0.066293
N37   N     N_R   0.677098 0.267557 0.861112 -0.059064
N38   N     N_R   0.163882 0.230932 0.305910 -0.065472
N39   N     N_R   0.839173 0.772044 0.695103 -0.066422
N40   N     N_R   0.691016 0.244588 0.158851 -0.069587
N41   N     N_R   0.310817 0.754783 0.836727 -0.068913
N42   N     N_R   0.733329 0.679778 0.142395 -0.058663
N43   N     N_R   0.150995 0.218262 0.683955 -0.059245
N44   N     N_R   0.705978 0.654411 0.175873 -0.061123
N45   N     N_R   0.413140 0.549310 0.451700 -0.039553
N46   N     N_R   0.174936 0.246694 0.650406 -0.058099
N47   N     N_R   0.664291 0.268554 0.193728 -0.066403
N48   N     N_R   0.339116 0.728123 0.804869 -0.066611
N49   N     N_R   0.190822 0.255599 0.340201 -0.069310
N50   N     N_R   0.810842 0.745291 0.663323 -0.068772
N51   N     N_R   0.255077 0.809289 0.336706 -0.068288
N52   N     N_R   0.651672 0.295183 0.827768 -0.060730
N53   N     N_R   0.728478 0.337321 0.806805 -0.066163
N54   N     N_R   0.178691 0.766387 0.357778 -0.059270
N55   N     N_R   0.768501 0.821296 0.639901 -0.059895
N56   N     N_R   0.586860 0.450690 0.548300 -0.040793
N57   N     N_R   0.231872 0.178128 0.361132 -0.058701
N58   N     N_R   0.297073 0.651985 0.828180 -0.061689
N59   N     N_R   0.706381 0.346096 0.175148 -0.060371
N60   N     N_R   0.242117 0.186562 0.647462 -0.058690
N61   N     N_R   0.663207 0.731138 0.196543 -0.066755
N62   N     N_2   0.564814 0.690314 0.233330 -0.107685
N63   N     N_2   0.306720 0.201324 0.567162 -0.103307
N64   N     N_2   0.739880 0.378403 0.267346 -0.104186
N65   N     N_2   0.265968 0.613145 0.737945 -0.104486
N66   N     N_2   0.335596 0.205083 0.360506 -0.103995
N67   N     N_R   0.549310 0.586860 0.451700 -0.038622
N68   N     N_2   0.664937 0.792045 0.646111 -0.105774
N69   N     N_2   0.207667 0.663230 0.353801 -0.104997
N70   N     N_2   0.691450 0.435913 0.769015 -0.107192
N71   N     N_2   0.613437 0.264479 0.737156 -0.104354
N72   N     N_2   0.316397 0.801248 0.425820 -0.106132
N73   N     N_2   0.802418 0.682052 0.575071 -0.106136
N74   N     N_2   0.198433 0.314606 0.432620 -0.103516
N75   N     N_2   0.438721 0.687769 0.770332 -0.106953
N76   N     N_2   0.566686 0.305221 0.234234 -0.106875
N77   N     N_2   0.201870 0.344721 0.635858 -0.104210
N78   N     N_R   0.450690 0.413140 0.548300 -0.037036
N79   N     N_2   0.739799 0.622464 0.268157 -0.104306
N80   N     N_2   0.062633 0.171486 0.722996 -0.106938
N81   N     N_2   0.836321 0.708001 0.145015 -0.105147
N82   N     N_2   0.302529 0.817875 0.925039 -0.106310
N83   N     N_2   0.699398 0.187842 0.064884 -0.104204
N84   N     N_2   0.938773 0.812537 0.729530 -0.107142
N85   N     N_2   0.066462 0.196777 0.265126 -0.106726
N86   N     N_2   0.705951 0.163991 0.857929 -0.103742
N87   N     N_2   0.187537 0.935548 0.267120 -0.105752
N88   N     N_2   0.120079 0.760130 0.232892 -0.104412
N89   N     N_R   0.586860 0.549310 0.548300 -0.037824
N90   N     N_2   0.812712 0.301449 0.933061 -0.104103
N91   N     N_2   0.236589 0.114422 0.237078 -0.104478
N92   N     N_2   0.765954 0.887127 0.761830 -0.104477
N93   N     N_2   0.836388 0.294343 0.141177 -0.103681
N94   N     N_2   0.165021 0.707811 0.854155 -0.105656
N95   N     N_2   0.698345 0.817580 0.074179 -0.105936
N96   N     N_2   0.241645 0.127491 0.772994 -0.105415
Ni1   Ni    Ni4+2 0.586090 0.500000 0.500000 0.212710
Ni2   Ni    Ni4+2 0.413910 0.500000 0.500000 0.209155
Ni3   Ni    Ni4+2 0.500000 0.413910 0.500000 0.210697
Ni4   Ni    Ni4+2 0.500000 0.586090 0.500000 0.211892
Ni5   Ni    Ni4+2 0.086090 0.000000 0.000000 0.212708
Ni6   Ni    Ni4+2 0.913910 0.000000 0.000000 0.207658
Ni7   Ni    Ni4+2 0.000000 0.913910 0.000000 0.212920
Ni8   Ni    Ni4+2 0.000000 0.086090 0.000000 0.211195

loop_
_geom_bond_atom_site_label_1
_geom_bond_atom_site_label_2
_ccdc_geom_bond_type
C29   C133  A    
C77   H187  S    
C90   H90   S    
C36   C191  A    
C24   N4    A    
C73   H169  S    
C4    H124  S    
C138  N45   A    
C59   C153  A    
C5    H125  S    
C112  C184  A    
C124  C175  S    
C176  C182  A    
C105  H105  S    
N67   Ni4   S    
C35   H35   S    
C89   H44   S    
C119  N26   A    
C147  C164  S    
C94   H62   S    
C57   C178  A    
C99   H86   S    
C78   N71   S    
C159  N50   A    
C33   C129  A    
C154  C170  S    
C7    C42   A    
C168  N38   A    
C70   H156  S    
C91   H49   S    
C52   C146  A    
N20   Ni8   S    
C25   C60   A    
C88   N81   S    
C7    C128  A    
C10   C125  A    
H61   N86   S    
C135  C186  S    
C66   C148  A    
C112  N19   A    
C33   C69   A    
C27   H147  S    
C29   C64   A    
N30   N59   A    
N9    N21   A    
C72   H166  S    
N7    N56   A    
C20   C132  A    
C17   C52   A    
C21   C133  A    
C2    N2    A    
C3    C123  A    
C121  C180  S    
H155  N62   S    
C87   N80   S    
N21   Ni7   S    
C58   N85   S    
C54   N82   S    
C37   N64   S    
N5    Ni2   S    
C164  N28   A    
C53   N81   S    
C68   H68   S    
C92   H54   S    
C75   H180  S    
C71   N63   S    
C87   H37   S    
C104  N96   S    
C116  N23   A    
C79   H79   S    
H30   N79   S    
H17   N75   S    
C114  H114  S    
C1    H1    S    
C43   C145  A    
C73   N65   S    
C21   C56   A    
C95   N87   S    
C133  C184  S    
C103  H99   S    
C65   N93   S    
C59   N86   S    
C10   H131  S    
C56   C151  A    
C106  H106  S    
C101  C184  A    
C20   H141  S    
C76   H185  S    
C141  C157  S    
C88   H40   S    
C22   H143  S    
C155  N60   A    
C67   C147  A    
C18   C130  A    
C57   H57   S    
C123  C174  S    
C102  H93   S    
N24   Ni5   S    
C127  C176  A    
C9    H130  S    
C161  N57   A    
C46   C179  A    
C26   C61   A    
H8    N73   S    
C21   H142  S    
C22   C58   A    
C99   H84   S    
C81   H10   S    
C23   H144  S    
C114  C181  A    
N5    N78   A    
C119  C186  A    
C98   N91   S    
C75   N68   S    
C163  N54   A    
C101  H101  S    
C14   H134  S    
C111  N18   A    
C95   H69   S    
C80   H5    S    
C112  H112  S    
H12   N74   S    
C63   C152  A    
C76   H183  S    
C26   C136  A    
C115  C189  A    
C28   C63   A    
C68   N8    A    
C157  N58   A    
C83   N75   S    
C87   H36   S    
C74   H175  S    
C148  C167  S    
C81   N73   S    
N31   N55   A    
C42   C145  A    
H190  N71   S    
N40   N47   A    
N23   Ni3   S    
C32   H153  S    
C16   C51   A    
C142  C161  S    
C82   H16   S    
C13   N3    A    
C75   H178  S    
C104  H103  S    
C23   C59   A    
C88   H41   S    
C1    C173  A    
C160  N67   A    
C120  C179  S    
N45   Ni2   S    
C16   C120  A    
C132  C183  S    
N19   Ni6   S    
C45   C143  A    
C103  H97   S    
C150  C166  S    
C68   C177  A    
C4    C124  A    
C106  N13   A    
C170  N35   A    
C31   C131  A    
C31   H152  S    
C98   H82   S    
C140  C158  S    
C52   N80   S    
C8    C128  A    
H65   N87   S    
H168  N65   S    
C15   H135  S    
H159  N63   S    
C69   N96   S    
C6    H126  S    
N8    Ni4   S    
N34   N89   A    
C96   H72   S    
C33   H154  S    
N35   N54   A    
C35   N5    A    
C117  N24   A    
C36   C139  A    
C117  H117  S    
C97   H75   S    
C50   N77   S    
C34   C190  A    
N29   N58   A    
C45   N73   S    
C43   N71   S    
C114  N21   A    
C80   H7    S    
C168  N32   A    
C108  N15   A    
C3    H123  S    
C100  H89   S    
C27   C62   A    
C2    C175  A    
C36   N63   S    
C139  C155  S    
H4    N72   S    
C158  N59   A    
C10   C45   A    
H173  N66   S    
H52   N84   S    
C90   C183  A    
C32   C67   A    
C62   N90   S    
C19   C54   A    
C60   N87   S    
C56   N84   S    
C1    N1    A    
C38   C141  A    
C149  H149  S    
C129  C188  S    
C86   H31   S    
C80   N72   S    
C82   H14   S    
H181  N69   S    
C93   H58   S    
H74   N90   S    
C118  N25   A    
C54   C148  A    
N6    N67   A    
C116  C175  A    
C103  N95   S    
C146  C165  S    
C115  H115  S    
N17   N22   A    
C117  C188  A    
C121  C191  A    
N34   Ni4   S    
C118  C187  A    
C93   H60   S    
C122  C192  A    
C61   N88   S    
N2    N23   A    
C110  N17   A    
C151  C169  S    
C62   C153  A    
C172  N37   A    
C27   C135  A    
C84   N76   S    
C107  H107  S    
C94   H63   S    
C25   H145  S    
C24   H24   S    
C97   H77   S    
C113  C183  A    
C12   C123  A    
C30   C132  A    
C78   H191  S    
C153  C172  S    
C149  C178  A    
N41   N48   A    
C48   C141  A    
C171  C180  A    
C71   H162  S    
C60   C154  A    
C94   N86   S    
C30   C65   A    
C64   N92   S    
C190  H120  S    
C42   N70   S    
C37   C192  A    
C40   C143  A    
C5    C125  A    
N37   N52   A    
C169  N31   A    
C138  C177  A    
C85   H29   S    
C95   H66   S    
C14   C122  A    
C11   C47   A    
C8    C43   A    
C12   C48   A    
C61   C154  A    
N13   Ni8   S    
C167  N29   A    
C107  N14   A    
C67   N95   S    
C107  C186  A    
C29   H150  S    
N7    Ni3   S    
C28   C134  A    
N32   N57   A    
C85   H28   S    
N14   Ni6   S    
C75   H179  S    
C104  H102  S    
H48   N83   S    
C77   H189  S    
C102  N94   S    
C40   N68   S    
N3    N12   A    
C18   C53   A    
C127  H127  S    
C11   C124  A    
C58   C152  A    
C191  H121  S    
C37   C140  A    
C86   N79   S    
C89   N82   S    
C70   N62   S    
H100  N96   S    
C83   H20   S    
C84   H23   S    
C77   H188  S    
C119  H119  S    
C69   C146  A    
C73   H170  S    
C100  N93   S    
C24   C173  A    
C115  N22   A    
C152  C168  S    
C109  N16   A    
C116  H116  S    
C13   C174  A    
C109  H109  S    
C7    H128  S    
C172  N33   A    
C64   C151  A    
C55   N83   S    
N6    Ni1   S    
C89   H45   S    
N11   N19   A    
C6    C126  A    
C41   C144  A    
N4    Ni3   S    
C50   C139  A    
C81   H9    S    
C159  N55   A    
C79   C181  A    
C2    H2    S    
C165  N43   A    
C12   H133  S    
C74   N66   S    
C18   H139  S    
C120  C190  A    
C164  N42   A    
C39   C142  A    
C66   N94   S    
C80   H6    S    
C101  N11   A    
C85   N77   S    
N38   N49   A    
N14   N26   A    
C48   N75   S    
C76   H184  S    
N36   N51   A    
C169  N39   A    
C76   N69   S    
C118  H118  S    
C144  C163  S    
C74   H176  S    
H177  N68   S    
C13   H13   S    
C72   H165  S    
C63   N91   S    
C96   H73   S    
C106  C185  A    
N22   Ni6   S    
C149  N56   A    
C92   H53   S    
C143  C159  S    
C104  H104  S    
C87   H38   S    
C88   H42   S    
C77   N70   S    
C110  C189  A    
N12   Ni2   S    
C23   C135  A    
N27   N60   A    
C98   H80   S    
C156  N61   A    
C49   N76   S    
C8    H129  S    
N16   N24   A    
C171  H171  S    
C166  N40   A    
C131  C181  S    
C102  H94   S    
C100  H91   S    
C72   N64   S    
C182  H182  S    
N33   N53   A    
C170  N36   A    
C83   H18   S    
N15   N25   A    
C84   H25   S    
C34   N62   S    
H70   N88   S    
N2    Ni2   S    
H92   N94   S    
C5    C40   A    
N1    Ni1   S    
C82   N74   S    
N25   Ni7   S    
C73   H172  S    
N11   Ni7   S    
H21   N76   S    
C71   H163  S    
C156  N44   A    
N18   Ni5   S    
C31   C66   A    
C46   N6    A    
C99   H85   S    
C89   H47   S    
C108  C187  A    
C32   C130  A    
C81   H11   S    
C171  N78   A    
C95   H67   S    
C138  H138  S    
C47   C142  A    
H34   N80   S    
C22   C134  A    
C155  N46   A    
C79   N9    A    
C44   N72   S    
C127  N34   A    
C163  N51   A    
C92   N84   S    
C14   C49   A    
C145  C162  S    
C161  N49   A    
C53   C147  A    
C11   H132  S    
C166  N30   A    
C126  C177  S    
C15   C50   A    
C65   C150  A    
C25   C136  A    
C90   N10   A    
H56   N85   S    
N3    Ni4   S    
H87   N93   S    
C3    C38   A    
N10   N20   A    
C6    C41   A    
C74   H174  S    
C113  H113  S    
C91   H50   S    
C72   H167  S    
H26   N77   S    
C96   N88   S    
C38   N65   S    
N1    N4    A    
N28   N61   A    
N17   Ni7   S    
C100  H88   S    
C105  N12   A    
C134  C185  S    
H164  N64   S    
C86   H32   S    
N56   Ni1   S    
C20   C55   A    
C82   H15   S    
C39   N66   S    
C92   H55   S    
C84   H22   S    
C108  H108  S    
C109  C188  A    
C19   C131  A    
N43   N46   A    
C111  C185  A    
C157  N48   A    
C17   C129  A    
C158  N47   A    
N10   Ni6   S    
C99   N92   S    
C182  N89   A    
N9    Ni5   S    
C97   N90   S    
C57   N7    A    
C103  H98   S    
C30   H151  S    
H186  N70   S    
C137  C156  S    
C102  H95   S    
C160  C179  A    
C98   H81   S    
C94   H64   S    
C28   H148  S    
C97   H76   S    
C16   H136  S    
C4    C39   A    
C44   C144  A    
C78   H192  S    
N39   N50   A    
C167  N41   A    
N15   Ni5   S    
C71   H161  S    
C70   H157  S    
N13   N18   A    
C113  N20   A    
C41   N69   S    
C19   H140  S    
C70   H158  S    
C91   H51   S    
C96   H71   S    
C105  C174  A    
C110  H110  S    
C136  C187  S    
H78   N91   S    
C128  C178  S    
C51   C137  A    
H96   N95   S    
C55   C150  A    
C35   C180  A    
C86   H33   S    
N8    N45   A    
C9    C44   A    
C15   C121  A    
N26   Ni8   S    
N16   Ni8   S    
C130  C189  S    
C122  C173  S    
C165  N27   A    
C34   C137  A    
C162  N52   A    
C9    C126  A    
H39   N81   S    
C85   H27   S    
C26   H146  S    
H43   N82   S    
C125  C176  S    
N42   N44   A    
C111  H111  S    
C160  H160  S    
C192  H122  S    
C51   N79   S    
C78   H3    S    
C46   H46   S    
C93   N85   S    
C162  N53   A    
C91   N83   S    
C49   C140  A    
N78   Ni3   S    
H83   N92   S    
C83   H19   S    
C93   H59   S    
C47   N74   S    
N89   Ni1   S    
C17   H137  S    
