data_mof_unit_38830.cif
_audit_creation_date              2012-12-11T17:43:57-0500
_audit_creation_method            fapswitch 2.2
_symmetry_space_group_name_H-M    P1
_symmetry_Int_Tables_number       1
_space_group_crystal_system       triclinic
_cell_length_a                    20.172631
_cell_length_b                    22.772295
_cell_length_c                    6.947519
_cell_angle_alpha                 90.00012
_cell_angle_beta                  87.67592
_cell_angle_gamma                 90.000351
_cell_volume                      3188.90593417

loop_
_atom_site_label
_atom_site_type_symbol
_atom_type_description
_atom_site_fract_x
_atom_site_fract_y
_atom_site_fract_z
_atom_type_partial_charge
O1    O     O_R   0.751270 0.447300 0.600030 -0.545119
O2    O     O_R   0.248730 0.947300 0.399970 -0.545113
O3    O     O_R   0.613530 0.440160 0.952150 -0.529466
O4    O     O_R   0.386470 0.940160 0.047850 -0.529378
O5    O     O_R   0.613050 0.552700 0.122560 -0.525171
O6    O     O_R   0.386950 0.052700 0.877440 -0.525116
C1    C     C_R   0.591458 0.425610 0.785834 0.841202
C2    C     C_R   0.408540 0.925608 0.214166 0.841077
O7    O     O_R   0.750780 0.440350 0.929820 -0.541880
O8    O     O_R   0.249220 0.940350 0.070180 -0.541866
O9    O     O_R   0.751280 0.552900 0.100070 -0.546199
O10   O     O_R   0.248720 0.052900 0.899930 -0.546220
C3    C     C_R   0.773835 0.426070 0.758776 0.748133
C4    C     C_R   0.226164 0.926071 0.241224 0.748138
O11   O     O_R   0.613040 0.447100 0.622520 -0.533493
O12   O     O_R   0.386960 0.947100 0.377480 -0.533586
O13   O     O_3   0.682160 0.536920 0.777780 -0.372043
O14   O     O_3   0.317840 0.036920 0.222220 -0.372076
V1    V     V_3+5 0.682160 0.493150 0.052630 1.488554
V2    V     V_3+5 0.317840 0.993150 0.947370 1.488646
O15   O     O_R   0.750790 0.559840 0.429870 -0.549469
O16   O     O_R   0.249210 0.059840 0.570130 -0.549480
C5    C     C_R   0.773561 0.574363 0.258714 0.676425
C6    C     C_R   0.226439 0.074366 0.741287 0.676448
O17   O     O_R   0.613540 0.559650 0.452200 -0.530805
O18   O     O_R   0.386460 0.059650 0.547800 -0.530890
C7    C     C_R   0.591380 0.574048 0.286137 0.701048
C8    C     C_R   0.408618 0.074049 0.713864 0.701060
V3    V     V_3+5 0.682160 0.506850 0.552630 1.476707
V4    V     V_3+5 0.317840 0.006850 0.447370 1.476542
O19   O     O_3   0.682150 0.463080 0.277610 -0.371069
O20   O     O_3   0.317850 0.963080 0.722390 -0.371050
C9    C     C_R   0.580408 0.860810 0.244987 -0.183951
C10   C     C_R   0.419584 0.360809 0.755171 -0.184023
H1    H     H_    0.671729 0.777567 0.235746 0.130487
H2    H     H_    0.328269 0.277560 0.764469 0.130497
H3    H     H_    0.631300 0.875757 0.252204 0.160424
H4    H     H_    0.368688 0.375746 0.748024 0.160556
C11   C     C_R   0.463347 0.882400 0.218953 -0.199411
C12   C     C_R   0.536647 0.382406 0.781047 -0.199451
C13   C     C_R   0.472186 0.595065 0.322314 -0.117533
C14   C     C_R   0.527810 0.095071 0.677642 -0.117603
C15   C     C_R   0.418781 0.633360 0.342712 -0.111316
C16   C     C_R   0.581211 0.133369 0.657210 -0.111315
C17   C     C_R   0.428015 0.693616 0.319541 -0.106599
C18   C     C_R   0.571977 0.193624 0.680388 -0.106580
C19   C     C_R   0.490969 0.717306 0.266413 0.097116
C20   C     C_R   0.509028 0.217311 0.733578 0.097093
C21   C     C_R   0.546424 0.678033 0.261130 0.064277
C22   C     C_R   0.453575 0.178034 0.738905 0.064278
C23   C     C_R   0.501580 0.779261 0.236405 0.032766
C24   C     C_R   0.498417 0.279264 0.763609 0.032783
C25   C     C_R   0.567598 0.800486 0.240375 0.105206
C26   C     C_R   0.432398 0.300486 0.759732 0.105177
C27   C     C_R   0.621151 0.761377 0.239445 -0.168428
C28   C     C_R   0.378848 0.261373 0.760707 -0.168443
C29   C     C_R   0.610840 0.701121 0.242140 -0.183292
C30   C     C_R   0.389161 0.201118 0.757973 -0.183286
C31   C     C_R   0.450022 0.821119 0.203977 -0.081872
C32   C     C_R   0.549977 0.321125 0.795989 -0.081852
C33   C     C_R   0.529176 0.902150 0.242219 -0.042533
C34   C     C_R   0.470812 0.402156 0.757873 -0.042658
C35   C     C_R   0.536262 0.616623 0.285097 -0.078280
C36   C     C_R   0.463736 0.116626 0.714904 -0.078271
H5    H     H_    0.463897 0.548429 0.343031 0.129918
H6    H     H_    0.536097 0.048436 0.656916 0.130051
H7    H     H_    0.385649 0.721007 0.354135 0.131738
H8    H     H_    0.614336 0.221017 0.645749 0.131762
H9    H     H_    0.369926 0.616329 0.381286 0.132224
H10   H     H_    0.630062 0.116340 0.618600 0.132230
H11   H     H_    0.654021 0.672831 0.238984 0.103256
H12   H     H_    0.345983 0.172825 0.761165 0.103269
C37   C     C_R   0.172881 0.880749 0.253546 -0.048842
C38   C     C_R   0.827118 0.380750 0.746457 -0.048853
C39   C     C_R   0.133264 0.869994 0.095156 -0.252082
C40   C     C_R   0.866734 0.369997 0.904852 -0.252112
C41   C     C_R   0.084845 0.825209 0.099464 -0.014608
C42   C     C_R   0.915153 0.325213 0.900549 -0.014592
C43   C     C_R   0.074515 0.791032 0.270278 0.364368
C44   C     C_R   0.925489 0.291037 0.729730 0.364346
C45   C     C_R   0.115969 0.800982 0.424412 -0.155050
C46   C     C_R   0.884034 0.300984 0.575595 -0.155047
C47   C     C_R   0.163564 0.845716 0.418252 -0.141820
C48   C     C_R   0.836436 0.345716 0.581752 -0.141794
C49   C     C_R   0.917454 0.673101 0.389445 -0.149684
C50   C     C_R   0.082669 0.173227 0.610363 -0.149715
C51   C     C_R   0.868136 0.629625 0.400453 -0.199633
C52   C     C_R   0.131989 0.129754 0.599324 -0.199650
C53   C     C_R   0.925567 0.708404 0.223607 0.441283
C54   C     C_R   0.074422 0.208398 0.776474 0.441362
N1    N     N_2   0.025634 0.745516 0.293017 -0.284361
N2    N     N_2   0.974376 0.245526 0.706976 -0.284327
N3    N     N_2   0.973269 0.754682 0.207514 -0.268829
N4    N     N_2   0.026721 0.254674 0.792597 -0.268842
C55   C     C_R   0.826675 0.619745 0.245222 -0.041777
C56   C     C_R   0.173323 0.119747 0.754786 -0.041793
H13   H     H_    0.862617 0.603526 0.530434 0.136208
H14   H     H_    0.137611 0.103760 0.469127 0.136189
H15   H     H_    0.948286 0.679813 0.511490 0.137408
H16   H     H_    0.051940 0.180043 0.488137 0.137260
H17   H     H_    0.111382 0.773674 0.551334 0.151070
H18   H     H_    0.888619 0.273674 0.448675 0.151096
H19   H     H_    0.194228 0.851902 0.541066 0.138848
H20   H     H_    0.805771 0.351899 0.458937 0.138855
C57   C     C_R   0.835330 0.654796 0.079592 -0.215609
C58   C     C_R   0.164532 0.154671 0.920685 -0.215582
C59   C     C_R   0.883545 0.699130 0.070526 -0.159699
C60   C     C_R   0.116314 0.199001 0.929796 -0.159624
H21   H     H_    0.803885 0.648782 0.958433 0.136596
H22   H     H_    0.195870 0.148559 0.042045 0.136583
H23   H     H_    0.888616 0.726141 0.942471 0.135611
H24   H     H_    0.111139 0.225912 0.058069 0.135547
H25   H     H_    0.141238 0.895746 0.965025 0.155405
H26   H     H_    0.858759 0.395749 0.034985 0.155401
C61   C     C_2   0.547411 0.965591 0.255853 0.728447
O21   O     O_2   0.511072 0.003920 0.196254 -0.565249
O22   O     O_R   0.607582 0.981486 0.334642 -0.664232
H27   H     H_    0.614870 0.025544 0.335068 0.298245
C62   C     C_2   0.452563 0.465601 0.744275 0.728491
O23   O     O_2   0.489007 0.503950 0.803120 -0.565305
O24   O     O_R   0.392263 0.481480 0.666365 -0.664235
H28   H     H_    0.384986 0.525540 0.665847 0.298323
C63   C     C_2   0.049839 0.813350 0.919665 0.780813
O25   O     O_2   0.033721 0.854184 0.817171 -0.557980
O26   O     O_R   0.037059 0.755553 0.863881 -0.652137
H29   H     H_    0.010809 0.753370 0.742695 0.290920
C64   C     C_2   0.950151 0.313354 0.080361 0.780823
O27   O     O_2   0.966273 0.354188 0.182849 -0.557988
O28   O     O_R   0.962916 0.255556 0.136168 -0.652154
H30   H     H_    0.989168 0.253373 0.257348 0.290872
C65   C     C_2   0.385998 0.802339 0.124633 0.709664
O29   O     O_2   0.333388 0.821178 0.193039 -0.584119
O30   O     O_R   0.386272 0.762340 0.971880 -0.651296
H31   H     H_    0.339935 0.752544 0.930513 0.300733
C66   C     C_2   0.614013 0.302345 0.875244 0.709622
O31   O     O_2   0.666612 0.321179 0.806754 -0.584128
O32   O     O_R   0.613763 0.262352 0.028008 -0.651295
H32   H     H_    0.660106 0.252557 0.069309 0.300750

loop_
_geom_bond_atom_site_label_1
_geom_bond_atom_site_label_2
_ccdc_geom_bond_type
C52   C56   A    
C21   C35   A    
C54   N4    S    
C22   C36   A    
O4    C2    A    
V1    O19   S    
C21   C29   A    
C63   O25   D    
C19   C21   A    
C45   H17   S    
C57   C59   A    
C31   C65   S    
C47   H19   S    
C12   C32   A    
C40   C42   A    
O3    C1    A    
C6    C56   S    
C58   H22   S    
C42   C44   A    
C63   O26   S    
O12   V4    S    
C61   O21   D    
C10   C34   A    
C12   C34   A    
C17   C19   A    
O7    C3    A    
C56   C58   A    
C24   C32   A    
O5    C7    A    
O7    V1    S    
O6    C8    A    
O8    V2    S    
C61   O22   S    
C51   C55   A    
C17   H7    S    
C40   H26   S    
C1    C12   S    
O3    V1    S    
C39   H25   S    
C2    C11   S    
C28   C30   A    
C50   H16   S    
C43   N1    S    
C49   C51   A    
C11   C31   A    
C2    O12   A    
O17   V3    S    
C13   C15   A    
C53   C59   A    
C14   C16   A    
C42   C64   S    
O1    V3    S    
C45   C47   A    
C24   C26   A    
O11   V3    S    
C18   C20   A    
C25   C27   A    
C9    C25   A    
C11   C33   A    
C26   C28   A    
O24   H28   S    
C50   C52   A    
H1    C27   S    
C22   C30   A    
C4    C37   S    
C66   O31   D    
C44   C46   A    
C50   C54   A    
C43   C45   A    
C49   C53   A    
C33   C61   S    
C13   H5    S    
C1    O11   A    
C16   C18   A    
O15   V3    S    
C9    H3    S    
C60   H24   S    
C23   C25   A    
C44   N2    S    
C64   O28   S    
C18   H8    S    
C41   C63   S    
N1    N3    D    
C39   C41   A    
O9    V1    S    
O10   V2    S    
N2    N4    D    
C46   H18   S    
C41   C43   A    
C29   H11   S    
C16   H10   S    
C20   C22   A    
C15   C17   A    
C32   C66   S    
C34   C62   S    
C62   O24   S    
C38   C40   A    
O14   V4    S    
C8    C36   S    
C9    C33   A    
C10   C26   A    
C46   C48   A    
O15   C5    A    
O8    C4    A    
O30   H31   S    
C48   H20   S    
O16   C6    A    
C23   C31   A    
C37   C39   A    
C65   O29   D    
C14   C36   A    
O28   H30   S    
V2    O20   S    
C66   O32   S    
C57   H21   S    
O16   V4    S    
C10   H4    S    
C59   H23   S    
C38   C48   A    
C65   O30   S    
C19   C23   A    
C62   O23   D    
O18   V4    S    
O5    V1    S    
O17   C7    A    
O6    V2    S    
O32   H32   S    
O10   C6    A    
O18   C8    A    
O2    V4    S    
C27   C29   A    
C54   C60   A    
V3    O19   S    
O13   V3    S    
V4    O20   S    
C49   H15   S    
C30   H12   S    
O26   H29   S    
C58   C60   A    
O9    C5    A    
H2    C28   S    
O13   V1    S    
C5    C55   S    
O14   V2    S    
C53   N3    S    
O2    C4    A    
O4    V2    S    
C20   C24   A    
O1    C3    A    
C3    C38   S    
C15   H9    S    
C55   C57   A    
C14   H6    S    
C13   C35   A    
C7    C35   S    
O22   H27   S    
C37   C47   A    
C52   H14   S    
C64   O27   D    
C51   H13   S    
