data_mof_unit_18056.cif
_audit_creation_date              2012-12-11T15:14:39-0500
_audit_creation_method            fapswitch 2.2
_symmetry_space_group_name_H-M    P1
_symmetry_Int_Tables_number       1
_space_group_crystal_system       triclinic
_cell_length_a                    22.251526
_cell_length_b                    7.211988
_cell_length_c                    19.332907
_cell_angle_alpha                 89.699865
_cell_angle_beta                  98.83191
_cell_angle_gamma                 89.644792
_cell_volume                      3065.59584465

loop_
_atom_site_label
_atom_site_type_symbol
_atom_type_description
_atom_site_fract_x
_atom_site_fract_y
_atom_site_fract_z
_atom_type_partial_charge
O1    O     O_R   0.448470 0.506130 0.415700 -0.535880
O2    O     O_R   0.551530 0.006130 0.584300 -0.535376
O3    O     O_R   0.436320 0.174490 0.555800 -0.535052
O4    O     O_R   0.563680 0.674490 0.444200 -0.535902
C1    C     C_R   0.421079 0.344478 0.575076 0.708380
C2    C     C_R   0.578777 0.844197 0.424685 0.706898
O5    O     O_R   0.441350 0.176340 0.414480 -0.535456
O6    O     O_R   0.558650 0.676340 0.585520 -0.535376
O7    O     O_R   0.556600 0.007100 0.441970 -0.534004
O8    O     O_R   0.443400 0.507100 0.558030 -0.532766
C3    C     C_R   0.427155 0.345479 0.389384 0.723066
C4    C     C_R   0.573024 0.843520 0.610735 0.718428
O9    O     O_3   0.537810 0.339550 0.509190 -0.375139
O10   O     O_3   0.462190 0.839550 0.490810 -0.374765
V1    V     V_3+5 0.492990 0.064280 0.498300 1.426235
V2    V     V_3+5 0.507010 0.564280 0.501700 1.427339
C5    C     C_R   0.865569 0.015072 0.697831 0.356773
C6    C     C_R   0.128813 0.378636 0.303234 0.339015
C7    C     C_R   0.882741 0.943923 0.822935 -0.317866
C8    C     C_R   0.116601 0.432818 0.177104 -0.316428
C9    C     C_R   0.596376 0.731753 0.731180 -0.294872
C10   C     C_R   0.411160 0.320513 0.261537 -0.312547
C11   C     C_R   0.638255 0.657511 0.785093 0.360943
C12   C     C_R   0.374463 0.293300 0.197407 0.360939
C13   C     C_R   0.700454 0.690427 0.786325 0.430786
C14   C     C_R   0.310875 0.295824 0.193257 0.422304
C15   C     C_R   0.719851 0.831248 0.743217 -0.011348
C16   C     C_R   0.283517 0.359685 0.250722 -0.020576
C17   C     C_R   0.677465 0.892703 0.684488 -0.053583
C18   C     C_R   0.321370 0.371895 0.317124 -0.060210
C19   C     C_R   0.781347 0.896569 0.752476 -0.081244
C20   C     C_R   0.219182 0.391829 0.245556 -0.076014
C21   C     C_R   0.802679 0.981860 0.694569 -0.182190
C22   C     C_R   0.192783 0.388260 0.307882 -0.210674
C23   C     C_R   0.760735 0.036421 0.635116 0.456704
C24   C     C_R   0.230948 0.398370 0.373544 0.455417
C25   C     C_R   0.698616 0.998702 0.632454 -0.275059
C26   C     C_R   0.294160 0.394427 0.377308 -0.246161
C27   C     C_R   0.820397 0.890516 0.818748 0.375802
C28   C     C_R   0.181428 0.435718 0.180730 0.401912
C29   C     C_R   0.904582 0.005021 0.762367 0.273427
C30   C     C_R   0.091283 0.402228 0.238463 0.296534
C31   C     C_R   0.615372 0.838423 0.677906 -0.121347
C32   C     C_R   0.385572 0.352541 0.322008 -0.121414
H1    H     H_    0.549295 0.689163 0.726891 0.159067
H2    H     H_    0.460039 0.305722 0.264815 0.158705
H3    H     H_    0.666828 0.054036 0.589253 0.133844
H4    H     H_    0.321684 0.403275 0.428490 0.112867
C33   C     C_3   0.777723 0.857956 0.314902 -0.225240
C34   C     C_3   0.222619 0.326011 0.687106 -0.223810
C35   C     C_3   0.789252 0.035862 0.272785 -0.223052
C36   C     C_3   0.202648 0.510202 0.719165 -0.226613
H5    H     H_    0.821616 0.148098 0.291213 0.117883
H6    H     H_    0.164673 0.601807 0.695413 0.119917
H7    H     H_    0.800457 0.822290 0.368559 0.126075
H8    H     H_    0.201405 0.264734 0.636734 0.136853
C37   C     C_1   0.875822 0.941171 0.121864 -0.173955
C38   C     C_1   0.123893 0.439989 0.877826 -0.187955
C39   C     C_1   0.624492 0.853178 0.378753 -0.189571
C40   C     C_1   0.374798 0.354357 0.620257 -0.169472
C41   C     C_3   0.780735 0.738241 0.248986 -0.104177
C42   C     C_3   0.226431 0.229224 0.759604 -0.088493
C43   C     C_3   0.791293 0.915259 0.207528 0.110623
C44   C     C_3   0.207534 0.412819 0.791058 0.104270
C45   C     C_3   0.711018 0.762547 0.226774 -0.194325
C46   C     C_3   0.294256 0.285639 0.777687 -0.177466
C47   C     C_3   0.708331 0.881673 0.292252 0.080743
C48   C     C_3   0.290130 0.382158 0.705740 0.077689
C49   C     C_3   0.722170 0.939713 0.184646 -0.168346
C50   C     C_3   0.274789 0.469353 0.809836 -0.180066
C51   C     C_3   0.719863 0.056149 0.250857 0.535095
C52   C     C_3   0.270343 0.562708 0.737301 0.530284
C53   C     C_1   0.837600 0.930645 0.160303 -0.032936
C54   C     C_1   0.161717 0.428581 0.838902 -0.031119
C55   C     C_1   0.662323 0.864100 0.339830 -0.050034
C56   C     C_1   0.336482 0.365698 0.658557 -0.028976
H9    H     H_    0.699285 0.975779 0.131094 0.125440
H10   H     H_    0.296178 0.530490 0.860168 0.123581
H11   H     H_    0.678961 0.650479 0.207318 0.158135
H12   H     H_    0.331750 0.192645 0.801705 0.149437
H13   H     H_    0.806395 0.605966 0.248124 0.120304
H14   H     H_    0.207907 0.090278 0.768936 0.138963
O11   O     O_R   0.056650 0.288730 0.942060 -0.530151
O12   O     O_R   0.943350 0.788730 0.057940 -0.544255
O13   O     O_R   0.058660 0.616870 0.085540 -0.541555
O14   O     O_R   0.941340 0.116870 0.914460 -0.535403
C57   C     C_R   0.073473 0.447561 0.110462 0.788318
C58   C     C_R   0.925873 0.949171 0.889900 0.810501
O15   O     O_R   0.063700 0.618520 0.944220 -0.535100
O16   O     O_R   0.936300 0.118520 0.055780 -0.525063
O17   O     O_R   0.948460 0.787610 0.915680 -0.550362
O18   O     O_R   0.051540 0.287610 0.084320 -0.531153
C59   C     C_R   0.078191 0.450023 0.923755 0.679224
C60   C     C_R   0.921824 0.950374 0.076313 0.702755
O19   O     O_3   0.962230 0.453430 0.990860 -0.384215
O20   O     O_3   0.037770 0.953430 0.009140 -0.375032
V3    V     V_3+5 0.007010 0.728750 0.001700 1.409803
V4    V     V_3+5 0.992990 0.228750 0.998300 1.445922
O21   O     O_3   0.965610 0.048596 0.766160 -0.550038
C61   C     C_3   0.971649 0.242968 0.761803 -0.160650
H15   H     H_    0.020570 0.277529 0.774601 0.143329
H16   H     H_    0.947404 0.316996 0.799884 0.116731
H17   H     H_    0.955553 0.294939 0.707933 0.162721
O22   O     O_3   0.028789 0.390580 0.235000 -0.543533
C62   C     C_3   0.006014 0.566366 0.250153 -0.190616
H18   H     H_    0.955752 0.558370 0.245088 0.150050
H19   H     H_    0.016849 0.674028 0.212573 0.120192
H20   H     H_    0.023523 0.608751 0.304749 0.153358
O23   O     O_3   0.685043 0.221280 0.247081 -0.554062
C63   C     C_3   0.697733 0.317765 0.310737 -0.268845
H21   H     H_    0.744862 0.372277 0.318560 0.135839
H22   H     H_    0.689936 0.230792 0.356057 0.146199
H23   H     H_    0.666287 0.438181 0.308737 0.174928
O24   O     O_3   0.296440 0.738432 0.730134 -0.554519
C64   C     C_3   0.275384 0.812148 0.663130 -0.262156
H24   H     H_    0.226299 0.848852 0.657642 0.131456
H25   H     H_    0.284003 0.716024 0.620897 0.141161
H26   H     H_    0.300466 0.941882 0.656531 0.178874
O25   O     O_3   0.778694 0.160328 0.587356 -0.530378
C65   C     C_3   0.770695 0.082383 0.519792 0.161038
H27   H     H_    0.721744 0.062899 0.498920 0.087681
H28   H     H_    0.794918 0.946757 0.519927 0.110374
C66   C     C_3   0.796978 0.214872 0.470972 -0.722668
H29   H     H_    0.844605 0.249883 0.492787 0.245007
H30   H     H_    0.796390 0.149700 0.419143 0.164431
H31   H     H_    0.769611 0.344861 0.464474 0.207418
O26   O     O_3   0.206869 0.414376 0.435084 -0.536717
C67   C     C_3   0.203157 0.604511 0.451330 0.158575
H32   H     H_    0.179461 0.686489 0.405957 0.106961
H33   H     H_    0.249484 0.661802 0.467723 0.095708
C68   C     C_3   0.167048 0.626649 0.511495 -0.725011
H34   H     H_    0.189514 0.548163 0.557927 0.214327
H35   H     H_    0.164521 0.775447 0.525349 0.166237
H36   H     H_    0.120181 0.573545 0.496087 0.242758
O27   O     O_3   0.889503 0.058360 0.637748 -0.523933
C69   C     C_3   0.915989 0.896067 0.614321 0.145165
H37   H     H_    0.880693 0.788776 0.599070 0.094330
H38   H     H_    0.951732 0.837185 0.655362 0.140652
C70   C     C_3   0.946068 0.942227 0.550839 -0.726017
H39   H     H_    0.979582 0.055153 0.563686 0.229898
H40   H     H_    0.970074 0.817724 0.534942 0.175020
H41   H     H_    0.911372 0.986359 0.506282 0.214475
O28   O     O_3   0.101849 0.348715 0.362183 -0.522940
C71   C     C_3   0.096801 0.155529 0.372085 0.196925
H42   H     H_    0.142060 0.085339 0.376899 0.100036
H43   H     H_    0.065557 0.093404 0.327830 0.115738
C72   C     C_3   0.070975 0.119922 0.439329 -0.717608
H44   H     H_    0.025404 0.186042 0.436088 0.221622
H45   H     H_    0.066534 0.968357 0.447474 0.168627
H46   H     H_    0.101747 0.177922 0.484634 0.234273
O29   O     O_3   0.792461 0.882916 0.878432 -0.554925
C73   C     C_3   0.818456 0.747061 0.926948 -0.093274
H47   H     H_    0.847769 0.815145 0.970226 0.100107
H48   H     H_    0.843570 0.635173 0.903607 0.145780
H49   H     H_    0.781545 0.680353 0.950466 0.154199
O30   O     O_3   0.209703 0.525134 0.130359 -0.553369
C74   C     C_3   0.190697 0.462369 0.061637 -0.150808
H50   H     H_    0.158773 0.565064 0.033601 0.122551
H51   H     H_    0.171199 0.320212 0.058851 0.127009
H52   H     H_    0.230760 0.458732 0.033857 0.160750
O31   O     O_3   0.741332 0.568465 0.823781 -0.551475
C75   C     C_3   0.757419 0.431357 0.777970 -0.214444
H53   H     H_    0.781489 0.492345 0.736971 0.125702
H54   H     H_    0.716903 0.352415 0.753402 0.166257
H55   H     H_    0.789116 0.331284 0.808653 0.163980
O32   O     O_3   0.276779 0.217891 0.135049 -0.549157
C76   C     C_3   0.264494 0.031807 0.150552 -0.200723
H56   H     H_    0.236217 0.022207 0.193161 0.119576
H57   H     H_    0.307237 0.949778 0.164514 0.152944
H58   H     H_    0.238263 0.968507 0.103202 0.171486
O33   O     O_3   0.618943 0.526470 0.829027 -0.537688
C77   C     C_3   0.618793 0.607368 0.895313 0.136755
H59   H     H_    0.588233 0.731351 0.891219 0.108507
H60   H     H_    0.665517 0.648419 0.919265 0.141521
C78   C     C_3   0.595477 0.466845 0.943633 -0.696947
H61   H     H_    0.625413 0.342129 0.949428 0.231457
H62   H     H_    0.595185 0.528977 0.996023 0.174346
H63   H     H_    0.548449 0.424994 0.921793 0.222708
O34   O     O_3   0.401140 0.239036 0.140711 -0.538655
C79   C     C_3   0.400604 0.391731 0.094614 0.137048
H64   H     H_    0.426179 0.510459 0.121272 0.112122
H65   H     H_    0.353201 0.437035 0.074221 0.140702
C80   C     C_3   0.431136 0.335731 0.032590 -0.701933
H66   H     H_    0.406189 0.218947 0.004312 0.227321
H67   H     H_    0.431040 0.455014 0.996002 0.172260
H68   H     H_    0.478922 0.292238 0.050957 0.227833

loop_
_geom_bond_atom_site_label_1
_geom_bond_atom_site_label_2
_ccdc_geom_bond_type
C46   C48   S    
O33   C77   S    
C74   H50   S    
C45   H11   S    
C27   O29   S    
C50   H10   S    
C23   O25   S    
C72   H44   S    
O1    C3    A    
C68   H36   S    
O2    C4    A    
C67   H32   S    
C2    O7    A    
O31   C75   S    
O19   V4    S    
O18   V4    S    
C66   H29   S    
C78   H62   S    
C77   H59   S    
O5    C3    A    
C62   H19   S    
C7    C29   A    
C5    C21   A    
O12   V3    S    
C6    O28   S    
C23   C25   A    
C38   C59   S    
C12   C14   A    
C4    C31   S    
C6    C30   A    
C8    C28   A    
C70   H41   S    
O14   C58   A    
C66   H30   S    
C15   C17   A    
C67   H33   S    
O28   C71   S    
O11   C59   A    
C8    C57   S    
C52   O24   S    
C18   C26   A    
C41   C43   S    
C37   C53   T    
C49   C51   S    
C63   H21   S    
C42   C44   S    
C63   H22   S    
C21   C23   A    
C9    C31   A    
C49   H9    S    
C41   H13   S    
C10   C32   A    
C43   C49   S    
C65   H28   S    
C64   H25   S    
O11   V4    S    
C5    O27   S    
C34   C36   S    
O29   C73   S    
C19   C21   A    
C44   C50   S    
C76   H58   S    
C26   H4    S    
C79   C80   S    
C48   C52   S    
O3    C1    A    
O5    V1    S    
C42   H14   S    
C74   H51   S    
C57   O18   A    
C17   C31   A    
C18   C32   A    
C35   C51   S    
C71   C72   S    
O22   C62   S    
C36   H6    S    
O16   C60   A    
C78   H63   S    
C75   H54   S    
O13   C57   A    
C62   H20   S    
C33   C41   S    
C42   C46   S    
C15   C19   A    
O27   C69   S    
C72   H46   S    
C35   C43   S    
C76   H57   S    
C7    C58   S    
C36   C44   S    
C80   H68   S    
C13   O31   S    
C76   H56   S    
C71   H42   S    
C66   H31   S    
C43   C53   S    
C33   C35   S    
C33   H7    S    
C40   C56   T    
C61   H17   S    
C34   H8    S    
O15   V3    S    
C9    H1    S    
C65   C66   S    
C69   C70   S    
O4    V2    S    
C73   H49   S    
C80   H66   S    
C36   C52   S    
C75   H55   S    
C14   O32   S    
C78   H61   S    
C58   O17   A    
C16   C20   A    
O6    C4    A    
C64   H26   S    
O20   V3    S    
C12   O34   S    
C61   H16   S    
C11   O33   S    
C3    C32   S    
O1    V2    S    
O12   C60   A    
C48   C56   S    
O17   V3    S    
O25   C65   S    
O2    V1    S    
C6    C22   A    
C63   H23   S    
C7    C27   A    
C71   H43   S    
C10   H2    S    
C73   H48   S    
C74   H52   S    
C37   C60   S    
C9    C11   A    
O32   C76   S    
C34   C42   S    
C10   C12   A    
O4    C2    A    
C25   H3    S    
C68   H34   S    
C67   C68   S    
C39   C55   T    
O3    V1    S    
C65   H27   S    
C38   C54   T    
C69   H38   S    
C75   H53   S    
O30   C74   S    
C33   C47   S    
C1    C40   S    
C72   H45   S    
C2    C39   S    
C69   H37   S    
C68   H35   S    
C30   O22   S    
C29   O21   S    
C8    C30   A    
C70   H39   S    
C77   C78   S    
O24   C64   S    
C13   C15   A    
C46   H12   S    
C62   H18   S    
C14   C16   A    
C45   C47   S    
O21   C61   S    
C80   H67   S    
O7    V1    S    
C1    O8    A    
O8    V2    S    
O23   C63   S    
C79   H65   S    
C70   H40   S    
C64   H24   S    
C46   C50   S    
C45   C49   S    
C51   O23   S    
C16   C18   A    
C61   H15   S    
C77   H60   S    
C22   C24   A    
C19   C27   A    
C47   C51   S    
C20   C28   A    
O15   C59   A    
O14   V4    S    
C5    C29   A    
O13   V3    S    
C24   C26   A    
O34   C79   S    
C24   O26   S    
C41   C45   S    
C11   C13   A    
C47   C55   S    
C73   H47   S    
O6    V2    S    
O9    V2    S    
C17   C25   A    
C44   C54   S    
O10   V1    S    
C28   O30   S    
C50   C52   S    
C35   H5    S    
C34   C48   S    
O16   V4    S    
C79   H64   S    
O26   C67   S    
C20   C22   A    
