data_mof_unit_41220.cif
_audit_creation_date              2013-03-05T15:42:19-0500
_audit_creation_method            fapswitch 2.2
_symmetry_space_group_name_H-M    P1
_symmetry_Int_Tables_number       1
_space_group_crystal_system       triclinic
_cell_length_a                    7.808655
_cell_length_b                    8.5986
_cell_length_c                    19.102436
_cell_angle_alpha                 91.606274
_cell_angle_beta                  85.670426
_cell_angle_gamma                 93.020007
_cell_volume                      1276.79537974

loop_
_atom_site_label
_atom_site_type_symbol
_atom_site_description
_atom_site_fract_x
_atom_site_fract_y
_atom_site_fract_z
_atom_type_partial_charge
O1    O     O_R   0.389250 0.738570 0.504600 -0.592789
O2    O     O_R   0.610750 0.261430 0.495400 -0.595588
O3    O     O_R   0.678400 0.711620 0.492580 -0.608448
O4    O     O_R   0.321600 0.288380 0.507420 -0.614641
C1    C     C_R   0.544574 0.793918 0.497753 0.896214
C2    C     C_R   0.455427 0.206084 0.502277 0.885980
O5    O     O_R   0.355380 0.513500 0.607880 -0.591223
O6    O     O_R   0.644620 0.486500 0.392120 -0.588812
O7    O     O_R   0.644530 0.486550 0.595850 -0.593349
O8    O     O_R   0.355470 0.513450 0.404150 -0.586473
C3    C     C_R   0.501238 0.498347 0.634354 0.876858
C4    C     C_R   0.498664 0.499133 0.365680 0.870350
Zn1   Zn    Zn3+2 0.306930 0.517990 0.508030 1.087683
Zn2   Zn    Zn3+2 0.693070 0.482010 0.491970 1.088128
C5    C     C_R   0.365846 0.544749 0.752921 -0.255169
C6    C     C_R   0.644659 0.538595 0.248712 -0.242196
H1    H     H_    0.263604 0.601628 0.730015 0.227223
H2    H     H_    0.754185 0.592379 0.273362 0.223495
C7    C     C_R   0.358364 0.527342 0.825154 0.283113
C8    C     C_R   0.653163 0.517229 0.176069 0.268558
C9    C     C_R   0.493492 0.454341 0.854362 -0.107500
C10   C     C_R   0.509206 0.446352 0.144990 -0.081197
C11   C     C_R   0.632778 0.395718 0.811606 0.204681
C12   C     C_R   0.362061 0.393704 0.186480 0.175557
C13   C     C_R   0.632240 0.410365 0.738817 -0.159878
C14   C     C_R   0.357307 0.416038 0.258943 -0.198614
H3    H     H_    0.732486 0.362574 0.703952 0.198862
H4    H     H_    0.246130 0.372329 0.290829 0.227159
C15   C     C_R   0.501526 0.486630 0.709961 -0.132454
C16   C     C_R   0.497530 0.488624 0.289937 -0.121416
N1    N     N_R   0.485823 0.312812 0.962925 -0.127441
N2    N     N_R   0.512946 0.583733 0.036409 -0.105369
N3    N     N_R   0.489090 0.310835 0.032262 -0.132130
N4    N     N_R   0.509068 0.585789 0.967228 -0.096278
C17   C     C_R   0.502969 0.446364 0.069697 0.410251
C18   C     C_R   0.495700 0.450465 0.929741 0.350195
C19   C     C_2   0.563190 0.954741 0.486221 -0.020231
C20   C     C_2   0.436841 0.045276 0.513859 -0.016318
N5    N     N_2   0.950330 0.457950 0.481240 0.045714
N6    N     N_2   0.049670 0.542050 0.518760 0.043345
N7    N     N_R   0.212414 0.582387 0.867783 0.211993
O9    O     O_R   0.149115 0.506085 0.922511 -0.349245
O10   O     O_R   0.129030 0.697843 0.847118 -0.361710
N8    N     N_R   0.808355 0.565916 0.135021 0.208867
O11   O     O_R   0.910021 0.677233 0.158344 -0.374697
O12   O     O_R   0.859084 0.488197 0.078448 -0.353616
N9    N     N_2   0.770632 0.325084 0.842831 -0.287446
H5    H     H_    0.799928 0.370275 0.891291 0.278914
C21   C     C_3   0.920037 0.277319 0.799550 -0.625181
H6    H     H_    0.011201 0.225148 0.832968 0.255787
H7    H     H_    0.986782 0.379579 0.773292 0.264325
H8    H     H_    0.881950 0.187146 0.760144 0.231906
N10   N     N_2   0.215734 0.324813 0.155241 -0.275141
H9    H     H_    0.101693 0.368360 0.176059 0.278230
C22   C     C_3   0.207908 0.156337 0.153932 -0.641931
H10   H     H_    0.098054 0.111899 0.124102 0.269834
H11   H     H_    0.189146 0.112219 0.208291 0.228957
H12   H     H_    0.327936 0.111324 0.127773 0.256499
N11   N     N_2   0.699215 0.009693 0.437026 -0.275682
H13   H     H_    0.813906 0.957056 0.440427 0.268940
C23   C     C_3   0.651825 0.015019 0.365353 -0.679613
H14   H     H_    0.761275 0.066850 0.331795 0.265124
H15   H     H_    0.539824 0.088388 0.362173 0.227629
H16   H     H_    0.619638 0.895427 0.345029 0.215758
N12   N     N_2   0.300857 0.990359 0.563083 -0.276989
H17   H     H_    0.186176 0.043008 0.559694 0.266700
C24   C     C_3   0.348309 0.985145 0.634750 -0.692771
H18   H     H_    0.238824 0.933519 0.668359 0.268281
H19   H     H_    0.380768 0.104735 0.655010 0.214677
H20   H     H_    0.460161 0.911629 0.637933 0.233963
N13   N     N_R   0.022544 0.417861 0.415378 0.302031
O13   O     O_R   0.008088 0.509955 0.363526 -0.411664
O14   O     O_R   0.058698 0.273738 0.401810 -0.428200
N14   N     N_R   0.976047 0.586288 0.583951 0.309521
O15   O     O_R   0.999121 0.503858 0.638130 -0.427377
O16   O     O_R   0.927433 0.727990 0.594029 -0.392526

loop_
_geom_bond_atom_site_label_1
_geom_bond_atom_site_label_2
_geom_bond_distance
_ccdc_geom_bond_type
C23   H16   1.111965 S    
O5    C3    1.294698 A    
O7    Zn2   1.991613 S    
N1    N3    1.327262 A    
C5    C15   1.395420 A    
C19   C20   1.355508 D    
C1    C19   1.404638 S    
C13   H3    1.079363 S    
N7    O10   1.301633 A    
N7    O9    1.301533 A    
C14   H4    1.079138 S    
N9    H5    1.030873 S    
C20   N12   1.433870 S    
O6    C4    1.291862 A    
C6    C8    1.391706 A    
C24   H20   1.111079 S    
C4    C16   1.447827 S    
C21   H8    1.110437 S    
C22   H10   1.110684 S    
N10   C22   1.446317 S    
Zn2   N5    2.024736 S    
N13   O13   1.300442 A    
N9    C21   1.448826 S    
C22   H11   1.112155 S    
C19   N11   1.433840 S    
N10   H9    1.031832 S    
C5    C7    1.388607 A    
C10   C17   1.442782 S    
O7    C3    1.298762 A    
C12   C14   1.390125 A    
O2    C2    1.278043 A    
O3    Zn2   1.983319 S    
N14   O16   1.300122 A    
C23   H15   1.111246 S    
O1    C1    1.278039 A    
O8    C4    1.300316 A    
O4    C2    1.288781 A    
C8    N8    1.442267 S    
C8    C10   1.412717 A    
C14   C16   1.394328 A    
N4    C18   1.352553 A    
C9    C11   1.415872 A    
C13   C15   1.396946 A    
C23   H14   1.110476 S    
O2    Zn2   1.971554 S    
C21   H6    1.110774 S    
C10   C12   1.407515 A    
N11   C23   1.447544 S    
O1    Zn1   1.971554 S    
N14   O15   1.299498 A    
C6    C16   1.398232 A    
C24   H18   1.110516 S    
N2    C17   1.352971 A    
O3    C1    1.288783 A    
N13   O14   1.300174 A    
N11   H13   1.031638 S    
C11   C13   1.399985 A    
C11   N9    1.438588 S    
N8    O11   1.301670 A    
C3    C15   1.450783 S    
C5    H1    1.083483 S    
N12   H17   1.031590 S    
C22   H12   1.111139 S    
C24   H19   1.111970 S    
N5    N6    1.278335 D    
C9    C18   1.442666 S    
C21   H7    1.110567 S    
N5    N13   1.381572 S    
N1    C18   1.354183 A    
Zn1   N6    2.024736 S    
O6    Zn2   1.974167 S    
O5    Zn1   1.974166 S    
N8    O12   1.301588 A    
N3    C17   1.353835 A    
C12   N10   1.422806 S    
C7    C9    1.413155 A    
C2    C20   1.404673 S    
C6    H2    1.083499 S    
C7    N7    1.442600 S    
O4    Zn1   1.983319 S    
N6    N14   1.383613 S    
N12   C24   1.447512 S    
O8    Zn1   1.991617 S    
N2    N4    1.324800 A    
