data_mof_unit_15212.cif
_audit_creation_date              2012-12-11T16:35:13-0500
_audit_creation_method            fapswitch 2.2
_symmetry_space_group_name_H-M    P1
_symmetry_Int_Tables_number       1
_space_group_crystal_system       triclinic
_cell_length_a                    6.921928
_cell_length_b                    17.810315
_cell_length_c                    19.443146
_cell_angle_alpha                 109.088615
_cell_angle_beta                  90.706687
_cell_angle_gamma                 90.213884
_cell_volume                      2264.93484948

loop_
_atom_site_label
_atom_site_type_symbol
_atom_type_description
_atom_site_fract_x
_atom_site_fract_y
_atom_site_fract_z
_atom_type_partial_charge
O1    O     O_R   0.505700 0.440210 0.561730 -0.544075
O2    O     O_R   0.169350 0.406300 0.412660 -0.525274
O3    O     O_R   0.005650 0.559790 0.438270 -0.518852
C1    C     C_R   0.337672 0.383536 0.384405 0.812801
O4    O     O_R   0.175560 0.430650 0.559600 -0.549492
O5    O     O_R   0.011900 0.584320 0.586250 -0.540214
C2    C     C_R   0.346654 0.414698 0.580709 0.664593
O6    O     O_R   0.499450 0.415680 0.413750 -0.526519
O7    O     O_3   0.341370 0.550390 0.508570 -0.358640
V1    V     V_3+5 0.063940 0.490650 0.498410 1.461678
O8    O     O_R   0.682570 0.593700 0.587340 -0.547632
C3    C     C_R   0.851695 0.616416 0.615524 0.677195
O9    O     O_R   0.676370 0.569350 0.440400 -0.529559
C4    C     C_R   0.844840 0.585627 0.419817 0.732081
V2    V     V_3+5 0.564750 0.509350 0.501590 1.460995
O10   O     O_3   0.837190 0.449610 0.491430 -0.375268
C5    C     C_R   0.044174 0.712132 0.312139 -0.138885
H1    H     H_    0.184127 0.734485 0.303340 0.098109
C6    C     C_R   0.033133 0.666623 0.358634 -0.106490
H2    H     H_    0.164972 0.655064 0.383844 0.152451
C7    C     C_R   0.854720 0.636836 0.372663 -0.058416
C8    C     C_R   0.686841 0.656104 0.340670 -0.152268
H3    H     H_    0.546621 0.635725 0.351284 0.174114
C9    C     C_R   0.697872 0.701117 0.293635 -0.144495
H4    H     H_    0.566030 0.712532 0.268331 0.106604
C10   C     C_R   0.877052 0.729218 0.278133 0.094823
C11   C     C_R   0.746195 0.829592 0.223300 -0.150391
H5    H     H_    0.623280 0.839510 0.258985 0.112623
C12   C     C_R   0.760373 0.873168 0.175322 -0.197683
H6    H     H_    0.647013 0.914998 0.175472 0.124923
C13   C     C_R   0.919627 0.864684 0.129050 -0.066203
C14   C     C_R   0.065538 0.809264 0.131165 0.147672
C15   C     C_R   0.048433 0.765613 0.179607 -0.136841
H7    H     H_    0.158369 0.722644 0.180044 0.113540
C16   C     C_R   0.890470 0.775533 0.226455 0.048858
H8    H     H_    0.503578 0.678992 0.922502 0.115641
C17   C     C_R   0.112711 0.884591 0.752934 -0.142580
C18   C     C_R   0.205154 0.886992 0.690505 -0.124246
C19   C     C_R   0.185281 0.823985 0.626011 -0.124415
C20   C     C_R   0.072767 0.758147 0.623482 -0.130956
C21   C     C_R   0.980673 0.752865 0.686515 0.071365
C22   C     C_R   0.001108 0.817574 0.752706 0.068817
C23   C     C_R   0.862179 0.686458 0.683516 -0.190009
C24   C     C_R   0.756959 0.686991 0.746288 0.071482
C25   C     C_R   0.787538 0.749222 0.813418 0.067533
C26   C     C_R   0.906136 0.815232 0.816312 -0.191597
C27   C     C_R   0.622066 0.626299 0.744515 -0.155125
C28   C     C_R   0.530826 0.624027 0.807231 -0.125190
C29   C     C_R   0.571731 0.681723 0.873537 -0.118274
C30   C     C_R   0.698869 0.743528 0.876969 -0.123503
H9    H     H_    0.128297 0.936578 0.800707 0.116773
H10   H     H_    0.290302 0.938633 0.691968 0.118929
H11   H     H_    0.254648 0.826691 0.577262 0.111061
H12   H     H_    0.055635 0.712772 0.570951 0.108098
H13   H     H_    0.580882 0.580521 0.695072 0.124178
H14   H     H_    0.428990 0.576753 0.804341 0.118764
H15   H     H_    0.727501 0.786159 0.930250 0.111367
H16   H     H_    0.494655 0.477820 0.173987 0.151998
C31   C     C_R   0.266646 0.221480 0.377218 -0.146442
C32   C     C_R   0.241127 0.143833 0.377184 -0.110897
C33   C     C_R   0.273146 0.080200 0.314332 -0.122336
C34   C     C_R   0.331683 0.093703 0.251084 -0.140818
C35   C     C_R   0.358139 0.171898 0.249225 0.080503
C36   C     C_R   0.324015 0.237346 0.313597 0.052113
C37   C     C_R   0.421627 0.184998 0.185000 -0.164699
C38   C     C_R   0.449445 0.263995 0.185178 0.032072
C39   C     C_R   0.404595 0.330468 0.248170 0.005092
C40   C     C_R   0.348475 0.316699 0.313787 -0.182184
C41   C     C_R   0.517141 0.277850 0.122027 -0.145348
C42   C     C_R   0.538525 0.354360 0.119543 -0.187519
C43   C     C_R   0.485518 0.418820 0.178382 -0.116454
C44   C     C_R   0.414772 0.408197 0.241550 0.353769
H17   H     H_    0.240086 0.268673 0.427700 0.090707
H18   H     H_    0.196577 0.133018 0.426320 0.114123
H19   H     H_    0.253762 0.019967 0.314663 0.114583
H20   H     H_    0.357978 0.042074 0.204009 0.095515
H21   H     H_    0.554617 0.229746 0.073567 0.120648
H22   H     H_    0.591157 0.363601 0.070693 0.136690
C45   C     C_R   0.537918 0.311208 0.713255 -0.137808
H23   H     H_    0.667118 0.310594 0.745038 0.105636
C46   C     C_R   0.536048 0.357817 0.667301 0.150881
C47   C     C_R   0.363264 0.363035 0.628087 -0.059847
C48   C     C_R   0.203302 0.316527 0.633894 -0.213483
H24   H     H_    0.073511 0.315448 0.602165 0.132233
C49   C     C_R   0.209375 0.269056 0.678896 -0.152258
H25   H     H_    0.083395 0.233679 0.680935 0.111211
C50   C     C_R   0.376748 0.266220 0.719561 0.051869
C51   C     C_R   0.224590 0.207843 0.808428 -0.143277
H26   H     H_    0.088594 0.235479 0.803248 0.102941
C52   C     C_R   0.237663 0.164740 0.857012 -0.166178
H27   H     H_    0.110336 0.159293 0.886917 0.124954
C53   C     C_R   0.413467 0.130339 0.867776 -0.055103
C54   C     C_R   0.574620 0.138600 0.827653 -0.166902
H28   H     H_    0.711116 0.111620 0.833555 0.119024
C55   C     C_R   0.560834 0.180532 0.778292 -0.146776
H29   H     H_    0.687453 0.183963 0.747303 0.100093
C56   C     C_R   0.386439 0.216851 0.768683 0.099374
O11   O     O_R   0.273230 0.084330 0.086440 -0.532483
O12   O     O_R   0.596660 0.069390 0.940470 -0.544393
O13   O     O_R   0.760270 0.915710 0.913690 -0.536291
C57   C     C_R   0.426663 0.083755 0.918547 0.682494
O14   O     O_R   0.603330 0.093680 0.087390 -0.538248
O15   O     O_R   0.766990 0.940160 0.061660 -0.544296
C58   C     C_R   0.434932 0.116456 0.115602 0.695524
O16   O     O_R   0.266510 0.059870 0.938470 -0.543325
O17   O     O_3   0.431050 0.949630 0.991510 -0.368400
V3    V     V_3+5 0.708490 0.009340 0.001580 1.409526
O18   O     O_R   0.096270 0.930570 0.059390 -0.539050
C59   C     C_R   0.928312 0.914346 0.080170 0.694599
O19   O     O_R   0.089600 0.906290 0.912460 -0.540384
C60   C     C_R   0.919828 0.883860 0.884623 0.693591
V4    V     V_3+5 0.207670 0.990600 0.998190 1.410627
O20   O     O_3   0.935250 0.050360 0.008480 -0.366275
Cl1   Cl    Cl    0.320103 0.494880 0.304461 -0.724698
C61   C     C_3   0.722505 0.399173 0.661371 -0.748183
H30   H     H_    0.702076 0.463844 0.678508 0.196925
H31   H     H_    0.838679 0.388557 0.696912 0.190693
H32   H     H_    0.774246 0.376939 0.604581 0.217399
C62   C     C_3   0.237626 0.793609 0.081647 -0.761774
H33   H     H_    0.188588 0.778603 0.024084 0.202454
H34   H     H_    0.334019 0.846603 0.096712 0.218305
H35   H     H_    0.324906 0.743049 0.085894 0.193984

loop_
_geom_bond_atom_site_label_1
_geom_bond_atom_site_label_2
_ccdc_geom_bond_type
C35   C37   A    
C54   H28   S    
C11   C12   A    
C21   C22   A    
C41   H21   S    
C55   H29   S    
C1    O6    A    
C45   C50   A    
C46   C47   A    
O17   V4    S    
C49   H25   S    
C33   H19   S    
C31   C36   A    
C17   C18   A    
C48   H24   S    
C5    C10   A    
C36   C40   A    
C4    C7    S    
C27   H13   S    
C6    C7    A    
C9    C10   A    
C3    C23   S    
O5    C3    A    
C18   C19   A    
C17   H9    S    
H16   C43   S    
C38   C41   A    
C42   H22   S    
O17   V3    S    
C61   H30   S    
C44   Cl1   S    
O18   C59   A    
C39   C44   A    
C22   C26   A    
C17   C22   A    
O19   C60   A    
V3    O20   S    
C5    C6    A    
C7    C8    A    
O8    V2    S    
C13   C14   A    
C61   H31   S    
C42   C43   A    
O1    V2    S    
O7    V1    S    
C31   H17   S    
C51   C56   A    
C24   C27   A    
C49   C50   A    
C38   C39   A    
C31   C32   A    
C54   C55   A    
C26   C60   S    
C21   C23   A    
C34   H20   S    
C41   C42   A    
V4    O20   S    
C5    H1    S    
C62   H34   S    
C57   O16   A    
O11   V4    S    
C39   C40   A    
C9    H4    S    
C19   C20   A    
O4    C2    A    
C11   C16   A    
C25   C26   A    
C47   C48   A    
O18   V4    S    
C32   C33   A    
O2    C1    A    
C23   C24   A    
C12   H6    S    
C52   C53   A    
C27   C28   A    
C62   H33   S    
C61   H32   S    
C46   C61   S    
C34   C35   A    
C15   H7    S    
C13   C59   S    
O14   V3    S    
O14   C58   A    
O3    C4    A    
C53   C57   S    
C28   C29   A    
C48   C49   A    
O16   V4    S    
C51   C52   A    
C37   C38   A    
O6    V2    S    
C20   H12   S    
O9    V2    S    
C8    C9    A    
C14   C62   S    
O2    V1    S    
C24   C25   A    
C1    C40   S    
C62   H35   S    
C28   H14   S    
C20   C21   A    
O13   V3    S    
O12   C57   A    
O1    C2    A    
C30   H15   S    
C35   C36   A    
O5    V1    S    
O8    C3    A    
C55   C56   A    
O12   V3    S    
C45   C46   A    
O15   C59   A    
C14   C15   A    
C6    H2    S    
O7    V2    S    
O4    V1    S    
C12   C13   A    
O3    V1    S    
V1    O10   S    
C52   H27   S    
C19   H11   S    
C25   C30   A    
O11   C58   A    
C32   H18   S    
C53   C54   A    
C15   C16   A    
C33   C34   A    
O19   V4    S    
C45   H23   S    
C10   C16   S    
C43   C44   A    
C2    C47   S    
C18   H10   S    
C51   H26   S    
O13   C60   A    
C29   C30   A    
C11   H5    S    
C8    H3    S    
O15   V3    S    
C37   C58   S    
O9    C4    A    
H8    C29   S    
V2    O10   S    
C50   C56   S    
