data_mof_unit_62180.cif
_audit_creation_date              2013-03-05T16:15:19-0500
_audit_creation_method            fapswitch 2.2
_symmetry_space_group_name_H-M    P1
_symmetry_Int_Tables_number       1
_space_group_crystal_system       triclinic
_cell_length_a                    23.440247
_cell_length_b                    14.253341
_cell_length_c                    13.374982
_cell_angle_alpha                 90.022305
_cell_angle_beta                  87.944901
_cell_angle_gamma                 89.929154
_cell_volume                      4465.72798473

loop_
_atom_site_label
_atom_site_type_symbol
_atom_site_description
_atom_site_fract_x
_atom_site_fract_y
_atom_site_fract_z
_atom_type_partial_charge
O1    O     O_R   0.500000 0.373710 0.576470 -0.593653
O2    O     O_R   0.500000 0.626290 0.423530 -0.593724
O3    O     O_R   0.500000 0.626290 0.576470 -0.598878
O4    O     O_R   0.500000 0.373710 0.423530 -0.598871
C1    C     C_R   0.499832 0.326564 0.499999 1.005014
C2    C     C_R   0.500165 0.673436 0.500001 1.004228
O5    O     O_R   0.416150 0.500000 0.576470 -0.568037
O6    O     O_R   0.583850 0.500000 0.423530 -0.568014
O7    O     O_R   0.583850 0.500000 0.576470 -0.618534
O8    O     O_R   0.416150 0.500000 0.423530 -0.618563
C3    C     C_R   0.387893 0.499064 0.502128 1.055395
C4    C     C_R   0.612107 0.501038 0.497872 1.055273
Zn1   Zn    Zn3+2 0.500000 0.500000 0.602090 1.069880
Zn2   Zn    Zn3+2 0.500000 0.500000 0.397910 1.069865
C5    C     C_R   0.880433 0.581419 0.526877 0.591662
C6    C     C_R   0.119564 0.418059 0.473098 0.591667
C7    C     C_R   0.880875 0.418367 0.532945 0.591699
C8    C     C_R   0.119126 0.581113 0.467087 0.591688
N1    N     N_R   0.852236 0.499020 0.510300 -0.328112
N2    N     N_R   0.147762 0.500450 0.489708 -0.328117
C9    C     C_R   0.940436 0.414122 0.518019 -0.166170
C10   C     C_R   0.059564 0.585356 0.481983 -0.166274
C11   C     C_R   0.940005 0.585517 0.511977 -0.167425
C12   C     C_R   0.059993 0.413960 0.488017 -0.167330
C13   C     C_R   0.970130 0.499735 0.506085 -0.060079
C14   C     C_R   0.029869 0.499742 0.493914 -0.060075
C15   C     C_R   0.970647 0.328093 0.514075 0.223283
C16   C     C_R   0.029352 0.671383 0.485923 0.223294
C17   C     C_R   0.969813 0.671499 0.502037 0.223365
C18   C     C_R   0.030186 0.327977 0.497952 0.223344
O9    O     O_2   0.851657 0.656385 0.563784 -0.468183
O10   O     O_2   0.148327 0.343123 0.436092 -0.468283
O11   O     O_2   0.852676 0.345936 0.576285 -0.470318
O12   O     O_2   0.147343 0.653579 0.423845 -0.470191
C19   C     C_R   0.237734 0.586559 0.534131 0.078193
C20   C     C_R   0.762165 0.412988 0.466221 0.078040
C21   C     C_R   0.237118 0.418134 0.543852 0.081155
C22   C     C_R   0.762978 0.581376 0.455822 0.081252
C23   C     C_R   0.297251 0.586368 0.518429 0.245173
C24   C     C_R   0.702648 0.413416 0.481936 0.245396
C25   C     C_R   0.296632 0.415702 0.528593 0.241549
C26   C     C_R   0.703465 0.584039 0.471051 0.241397
C27   C     C_R   0.326111 0.500054 0.509536 -0.353025
C28   C     C_R   0.673888 0.499845 0.490463 -0.353004
C29   C     C_R   0.207229 0.501677 0.520581 0.110538
C30   C     C_R   0.792769 0.497824 0.479428 0.110542
C31   C     C_1   0.499868 0.225922 0.499982 -0.089613
C32   C     C_1   0.500127 0.774078 0.500018 -0.090073
C33   C     C_1   0.499912 0.141350 0.499985 0.067885
C34   C     C_1   0.500083 0.858650 0.500016 0.067778
C35   C     C_1   0.499971 0.042288 0.499995 0.074661
C36   C     C_1   0.500023 0.957712 0.500005 0.074666
N3    N     N_1   0.500000 0.500000 0.261870 -0.053293
N4    N     N_1   0.500000 0.500000 0.738130 -0.053298
C37   C     C_1   0.500002 0.500001 0.169435 0.137735
C38   C     C_1   0.499998 0.499999 0.830565 0.137724
C39   C     C_1   0.500001 0.500000 0.049523 -0.006037
C40   C     C_1   0.499999 0.500000 0.950476 -0.006037
N5    N     N_R   0.941269 0.240031 0.522085 0.274302
O13   O     O_R   0.908773 0.212868 0.450786 -0.309485
O14   O     O_R   0.952490 0.182130 0.593955 -0.235928
N6    N     N_R   0.058727 0.759446 0.477916 0.274317
O15   O     O_R   0.091172 0.786654 0.549268 -0.309415
O16   O     O_R   0.047535 0.817315 0.406001 -0.235928
N7    N     N_R   0.940041 0.759500 0.504038 0.274431
O17   O     O_R   0.950662 0.821465 0.572328 -0.233464
O18   O     O_R   0.908001 0.782350 0.430432 -0.310719
N8    N     N_R   0.059961 0.239977 0.495933 0.274421
O19   O     O_R   0.049314 0.177996 0.427673 -0.233462
O20   O     O_R   0.092049 0.217155 0.569483 -0.310776
C41   C     C_3   0.211283 0.668316 0.591460 -0.583692
H1    H     H_    0.210005 0.732025 0.543995 0.314462
H2    H     H_    0.167845 0.651703 0.621994 0.219625
H3    H     H_    0.237268 0.684485 0.657133 0.225390
C42   C     C_3   0.788489 0.331003 0.409097 -0.583304
H4    H     H_    0.831931 0.347406 0.378442 0.219843
H5    H     H_    0.789710 0.267410 0.456749 0.314354
H6    H     H_    0.762452 0.314745 0.343512 0.225357
C43   C     C_3   0.209729 0.342190 0.608472 -0.588567
H7    H     H_    0.166198 0.362001 0.636194 0.217324
H8    H     H_    0.208345 0.274622 0.567482 0.315168
H9    H     H_    0.235153 0.331511 0.676064 0.225850
C44   C     C_3   0.790487 0.657083 0.391032 -0.588937
H10   H     H_    0.791927 0.724743 0.431837 0.315247
H11   H     H_    0.834012 0.637082 0.363445 0.217136
H12   H     H_    0.765112 0.667669 0.323366 0.225915
N9    N     N_R   0.328267 0.673337 0.518179 0.199808
O21   O     O_R   0.367892 0.687477 0.582116 -0.406251
O22   O     O_R   0.313039 0.741931 0.460769 -0.324935
N10   N     N_R   0.671525 0.326550 0.482474 0.199804
O23   O     O_R   0.631971 0.312288 0.418433 -0.406521
O24   O     O_R   0.686640 0.258100 0.540171 -0.325151
N11   N     N_R   0.326933 0.328479 0.537475 0.197056
O25   O     O_R   0.311336 0.255418 0.486980 -0.325539
O26   O     O_R   0.366503 0.319392 0.602537 -0.399945
N12   N     N_R   0.673269 0.671329 0.461859 0.197071
O27   O     O_R   0.688959 0.744501 0.512081 -0.325361
O28   O     O_R   0.633663 0.680314 0.396848 -0.399624

loop_
_geom_bond_atom_site_label_1
_geom_bond_atom_site_label_2
_geom_bond_distance
_ccdc_geom_bond_type
N9    O21   1.300722 A    
N11   O25   1.300892 A    
C22   C44   1.514440 S    
C19   C23   1.403349 A    
C23   N9    1.437797 S    
O3    C2    1.223889 A    
C39   C40   1.324754 T    
N1    C30   1.468047 S    
C31   C33   1.205428 T    
O5    C3    1.214418 A    
C21   C43   1.514446 S    
C2    C32   1.434478 S    
O1    C1    1.223709 A    
C11   C17   1.415408 A    
C16   C17   1.404485 A    
C12   C14   1.411932 A    
C22   C26   1.403004 A    
C42   H5    1.109188 S    
O7    Zn1   1.982970 S    
N6    O16   1.300972 A    
C25   N11   1.438107 S    
N8    O19   1.300972 A    
N7    O18   1.300755 A    
N12   O28   1.300789 A    
C34   C36   1.411972 S    
C20   C30   1.420936 A    
N2    C29   1.468040 S    
O3    Zn1   1.832510 S    
C6    N2    1.370240 A    
C32   C34   1.205430 T    
C9    C15   1.415257 A    
C19   C41   1.514509 S    
N5    O13   1.300777 A    
C6    C12   1.404733 A    
C10   C16   1.415246 A    
C15   C18   1.404516 A    
O4    Zn2   1.832511 S    
C25   C27   1.406279 A    
O2    C2    1.223711 A    
C26   C28   1.406263 A    
C42   H6    1.110961 S    
N3    C37   1.236311 T    
N4    C38   1.236310 T    
N5    O14   1.300974 A    
C35   C36   1.205478 T    
C20   C24   1.403354 A    
O8    Zn2   1.982972 S    
C43   H8    1.109081 S    
C23   C27   1.406202 A    
C33   C35   1.411971 S    
C13   C14   1.403921 A    
C7    C9    1.404440 A    
C5    N1    1.370254 A    
C42   H4    1.109241 S    
N6    O15   1.300777 A    
C20   C42   1.514507 S    
C43   H9    1.110915 S    
C1    C31   1.434481 S    
N10   O24   1.300877 A    
C44   H10   1.109068 S    
C24   C28   1.406199 A    
O6    C4    1.214435 A    
N12   O27   1.300891 A    
C44   H12   1.110911 S    
C7    O11   1.346636 S    
C3    C27   1.448054 S    
C8    O12   1.346664 S    
C17   N7    1.434392 S    
C44   H11   1.109282 S    
C37   C39   1.603819 S    
C26   N12   1.438135 S    
O1    Zn1   1.832249 S    
C21   C29   1.421091 A    
C19   C29   1.420955 A    
C41   H2    1.109251 S    
Zn1   N4    1.819533 S    
C9    C13   1.411842 A    
O6    Zn2   2.007181 S    
C8    C10   1.404440 A    
O4    C1    1.223890 A    
C41   H3    1.110957 S    
C5    O9    1.346957 S    
C6    O10   1.346931 S    
N9    O22   1.300880 A    
C41   H1    1.109171 S    
C4    C28   1.448065 S    
C15   N5    1.434604 S    
N10   O23   1.300718 A    
N11   O26   1.300784 A    
C5    C11   1.404742 A    
C7    N1    1.369985 A    
C38   C40   1.603818 S    
C8    N2    1.369996 A    
C11   C13   1.411937 A    
C21   C25   1.403003 A    
O2    Zn2   1.832248 S    
O7    C4    1.222357 A    
C12   C18   1.415409 A    
C22   C30   1.421118 A    
O8    C3    1.222339 A    
C43   H7    1.109276 S    
O5    Zn1   2.007184 S    
Zn2   N3    1.819533 S    
N8    O20   1.300758 A    
N7    O17   1.300971 A    
C10   C14   1.411849 A    
C24   N10   1.437748 S    
C18   N8    1.434406 S    
C16   N6    1.434589 S    
