data_mof_unit_30152.cif
_audit_creation_date              2013-03-05T16:37:43-0500
_audit_creation_method            fapswitch 2.2
_symmetry_space_group_name_H-M    P1
_symmetry_Int_Tables_number       1
_space_group_crystal_system       triclinic
_cell_length_a                    18.707245
_cell_length_b                    18.531965
_cell_length_c                    18.777365
_cell_angle_alpha                 109.148093
_cell_angle_beta                  109.590463
_cell_angle_gamma                 109.013628
_cell_volume                      5051.61642851

loop_
_atom_site_label
_atom_site_type_symbol
_atom_site_description
_atom_site_fract_x
_atom_site_fract_y
_atom_site_fract_z
_atom_type_partial_charge
O1    O     O_R   0.408360 0.551710 0.460090 -0.629319
O2    O     O_R   0.408390 0.448280 0.356670 -0.601642
C1    C     C_R   0.381518 0.502243 0.380367 0.894286
O3    O     O_R   0.591600 0.643340 0.551710 -0.619176
O4    O     O_R   0.591630 0.539900 0.448290 -0.628062
C2    C     C_R   0.620780 0.620485 0.500725 0.860567
Zn1   Zn    Zn3+2 0.499980 0.569070 0.569050 0.978770
Zn2   Zn    Zn3+2 0.500020 0.430930 0.430950 1.014312
O5    O     O_R   0.591610 0.551720 0.643330 -0.620144
O6    O     O_R   0.591640 0.448290 0.539910 -0.618501
O7    O     O_R   0.408370 0.460100 0.551710 -0.601290
O8    O     O_R   0.408400 0.356660 0.448290 -0.618757
C3    C     C_R   0.622337 0.501859 0.619535 0.867599
C4    C     C_R   0.378096 0.379881 0.498205 0.884874
H1    H     H_    0.732274 0.818004 0.868254 0.138082
C5    C     C_R   0.716757 0.854687 0.768711 -0.044882
H2    H     H_    0.692418 0.897445 0.792197 0.167057
C6    C     C_R   0.725053 0.843810 0.695129 -0.067034
H3    H     H_    0.706522 0.878077 0.661811 0.124240
C7    C     C_R   0.753817 0.786091 0.662819 0.113756
C8    C     C_R   0.775513 0.740671 0.705652 -0.058998
H4    H     H_    0.796173 0.694796 0.680387 0.137611
C9    C     C_R   0.768205 0.752617 0.779864 -0.055802
H5    H     H_    0.783889 0.716650 0.812086 0.138415
C10   C     C_R   0.738769 0.809517 0.811331 -0.104872
C11   C     C_R   0.815785 0.827913 0.576511 -0.194160
C12   C     C_R   0.813680 0.812035 0.497724 -0.061542
C13   C     C_R   0.746872 0.735105 0.419480 0.069342
C14   C     C_R   0.685252 0.672252 0.422830 -0.168435
H6    H     H_    0.634352 0.611914 0.363388 0.183455
C15   C     C_R   0.687612 0.687424 0.501701 -0.109795
C16   C     C_R   0.752134 0.766434 0.579181 -0.017832
C17   C     C_R   0.715572 0.755123 0.285583 0.386605
C18   C     C_R   0.720903 0.736426 0.209014 -0.183124
C19   C     C_R   0.750200 0.678428 0.180293 -0.148569
H7    H     H_    0.754110 0.664985 0.121495 0.154665
C20   C     C_R   0.772957 0.636599 0.226331 -0.112256
C21   C     C_R   0.768672 0.654405 0.302485 -0.234760
H8    H     H_    0.785363 0.620700 0.337199 0.148647
C22   C     C_R   0.743379 0.715561 0.334713 -0.025541
H9    H     H_    0.565856 0.903351 0.588589 0.158267
C23   C     C_R   0.450310 0.785595 0.542902 -0.089597
C24   C     C_R   0.386372 0.702018 0.473655 -0.134553
H10   H     H_    0.334394 0.662382 0.480169 0.157519
C25   C     C_R   0.389329 0.669529 0.396367 -0.023844
C26   C     C_R   0.455973 0.723343 0.387850 0.319185
C27   C     C_R   0.519030 0.807845 0.457700 -0.178016
H11   H     H_    0.570514 0.849997 0.452488 0.212606
C28   C     C_R   0.516602 0.838388 0.534983 -0.160848
C29   C     C_R   0.252936 0.578865 0.256464 -0.130958
C30   C     C_R   0.184863 0.498054 0.185779 -0.078135
C31   C     C_R   0.180742 0.418884 0.179546 0.021206
C32   C     C_R   0.247667 0.422458 0.243791 -0.239536
H12   H     H_    0.245754 0.361931 0.239443 0.172603
C33   C     C_R   0.315276 0.503230 0.315174 -0.066627
C34   C     C_R   0.318004 0.582390 0.322720 0.047059
C35   C     C_R   0.029770 0.296483 0.107225 -0.155264
C36   C     C_R   0.960695 0.215051 0.038777 -0.245132
H13   H     H_    0.900702 0.188766 0.040308 0.195111
C37   C     C_R   0.969497 0.166430 0.970265 0.298175
C38   C     C_R   0.049146 0.201620 0.970445 0.276418
C39   C     C_R   0.117974 0.284256 0.039431 -0.283407
H14   H     H_    0.178829 0.312042 0.039669 0.196096
C40   C     C_R   0.108187 0.332076 0.107217 0.055132
H15   H     H_    0.170099 0.575244 0.472668 0.167171
C41   C     C_R   0.200393 0.516425 0.552133 -0.147809
C42   C     C_R   0.218372 0.450498 0.558437 -0.132515
H16   H     H_    0.229095 0.444231 0.615879 0.120311
C43   C     C_R   0.222268 0.393127 0.490827 0.135415
C44   C     C_R   0.206497 0.401825 0.416309 -0.148734
H17   H     H_    0.207566 0.357140 0.362858 0.116450
C45   C     C_R   0.187236 0.467085 0.409772 -0.117727
H18   H     H_    0.173511 0.472774 0.351762 0.160042
C46   C     C_R   0.184746 0.524659 0.477810 -0.099373
C47   C     C_R   0.175179 0.255117 0.495951 -0.246992
H19   H     H_    0.118915 0.259755 0.496245 0.158805
C48   C     C_R   0.185036 0.183639 0.496119 -0.069403
C49   C     C_R   0.256682 0.175485 0.494582 0.024744
C50   C     C_R   0.319334 0.241338 0.495221 -0.152732
H20   H     H_    0.375334 0.236262 0.494600 0.162187
C51   C     C_R   0.310211 0.313424 0.496189 -0.066225
C52   C     C_R   0.237436 0.320784 0.495744 -0.014080
C53   C     C_R   0.329625 0.102338 0.556765 -0.199116
H21   H     H_    0.370317 0.163320 0.617659 0.214723
C54   C     C_R   0.341707 0.029481 0.548127 0.347191
C55   C     C_R   0.289620 0.951890 0.467515 -0.202452
H22   H     H_    0.297884 0.894983 0.458644 0.187402
C56   C     C_R   0.225083 0.946432 0.397904 -0.180006
H23   H     H_    0.184984 0.886193 0.336363 0.170931
C57   C     C_R   0.212456 0.018517 0.407454 -0.128249
C58   C     C_R   0.265286 0.097092 0.486677 0.054968
H24   H     H_    0.622962 0.491134 0.755519 0.199636
C59   C     C_R   0.781342 0.523623 0.613172 -0.169468
H25   H     H_    0.738523 0.535034 0.568408 0.138196
C60   C     C_R   0.853615 0.525099 0.606285 -0.098120
H26   H     H_    0.864263 0.535857 0.556574 0.126464
C61   C     C_R   0.911484 0.511656 0.662544 -0.105432
H27   H     H_    0.966549 0.510895 0.655868 0.134289
C62   C     C_R   0.898863 0.499494 0.727698 -0.163564
H28   H     H_    0.944569 0.487253 0.768292 0.149590
C63   C     C_R   0.827757 0.501273 0.738084 0.099600
C64   C     C_R   0.766213 0.509283 0.677571 0.097954
C65   C     C_R   0.691801 0.503869 0.684177 -0.132772
C66   C     C_R   0.680349 0.495296 0.751060 -0.188799
H29   H     H_    0.732640 0.485700 0.864516 0.182825
C67   C     C_R   0.741774 0.490594 0.811901 -0.222631
C68   C     C_R   0.815279 0.494225 0.806415 -0.143585
O9    O     O_R   0.051730 0.908360 0.460070 -0.631632
O10   O     O_R   0.948280 0.908380 0.356650 -0.625401
C69   C     C_R   0.998479 0.877327 0.380624 0.889774
O11   O     O_R   0.960110 0.908350 0.551690 -0.608127
O12   O     O_R   0.856660 0.908370 0.448270 -0.594903
C70   C     C_R   0.880067 0.878293 0.498448 0.866314
Zn3   Zn    Zn3+2 0.069080 0.999960 0.569030 1.024093
Zn4   Zn    Zn3+2 0.930920 0.999990 0.430930 1.027210
O13   O     O_R   0.051720 0.091580 0.643310 -0.589830
O14   O     O_R   0.948270 0.091600 0.539890 -0.623809
O15   O     O_R   0.143340 0.091590 0.551680 -0.612357
O16   O     O_R   0.039890 0.091610 0.448270 -0.626397
C71   C     C_R   0.001067 0.121442 0.619603 0.881338
C72   C     C_R   0.119843 0.118886 0.498445 0.869991
O17   O     O_R   0.051710 0.460040 0.908380 -0.633876
O18   O     O_R   0.948270 0.356620 0.908410 -0.606882
C73   C     C_R   0.998757 0.379552 0.878606 0.841217
O19   O     O_R   0.143330 0.551680 0.091590 -0.612565
O20   O     O_R   0.039890 0.448260 0.091620 -0.601051
C74   C     C_R   0.119712 0.498619 0.119229 0.906050
Zn5   Zn    Zn3+2 0.069060 0.569020 0.999970 1.018732
Zn6   Zn    Zn3+2 0.930920 0.430910 0.000010 1.039814
O21   O     O_R   0.051700 0.643310 0.091570 -0.608711
O22   O     O_R   0.948260 0.539890 0.091600 -0.583347
O23   O     O_R   0.960080 0.551670 0.908360 -0.618972
O24   O     O_R   0.856640 0.448250 0.908390 -0.614812
C75   C     C_R   0.999779 0.620175 0.119622 0.918502
C76   C     C_R   0.880330 0.496957 0.876572 0.843955
H30   H     H_    0.080613 0.718381 0.618809 0.153134
C77   C     C_R   0.131422 0.790078 0.561341 -0.138276
H31   H     H_    0.193985 0.835334 0.619699 0.155713
C78   C     C_R   0.114722 0.797307 0.486341 -0.048254
H32   H     H_    0.164984 0.847916 0.487367 0.141867
C79   C     C_R   0.033176 0.739913 0.410699 0.154957
C80   C     C_R   0.970918 0.671795 0.409914 -0.106625
H33   H     H_    0.910598 0.622965 0.350558 0.141630
C81   C     C_R   0.987579 0.664614 0.484918 -0.136513
C82   C     C_R   0.067611 0.724135 0.560824 -0.103010
C83   C     C_R   0.014107 0.681275 0.262778 0.265964
C84   C     C_R   0.001086 0.686342 0.186804 -0.205212
C85   C     C_R   0.993268 0.756207 0.177552 -0.011857
C86   C     C_R   0.990673 0.816506 0.241948 -0.259658
H34   H     H_    0.983534 0.870020 0.234974 0.172393
C87   C     C_R   0.000791 0.810920 0.316622 -0.114200
C88   C     C_R   0.016172 0.745071 0.329665 -0.126743
C89   C     C_R   0.062958 0.848311 0.123636 -0.271059
H35   H     H_    0.111607 0.896741 0.190558 0.178395
C90   C     C_R   0.069339 0.862899 0.056647 0.257751
C91   C     C_R   0.007251 0.797847 0.969224 0.281460
C92   C     C_R   0.936038 0.724126 0.951811 -0.248582
H36   H     H_    0.886891 0.674765 0.885635 0.187256
C93   C     C_R   0.929611 0.711164 0.019101 -0.188264
C94   C     C_R   0.994535 0.771878 0.105307 0.102622
C95   C     C_R   0.293926 0.267655 0.798960 -0.201354
H37   H     H_    0.331848 0.243987 0.832233 0.196253
C96   C     C_R   0.215504 0.253942 0.798038 -0.130052
H38   H     H_    0.194169 0.219859 0.830120 0.215937
C97   C     C_R   0.164104 0.282511 0.754470 0.096775
C98   C     C_R   0.192639 0.326372 0.713012 -0.252999
C99   C     C_R   0.271640 0.341087 0.714830 -0.206049
C100  C     C_R   0.322761 0.311202 0.757090 0.388492
C101  C     C_R   0.076770 0.327550 0.813702 -0.216027
C102  C     C_R   0.997268 0.313265 0.810600 -0.085171
C103  C     C_R   0.918825 0.236216 0.743534 0.014520
C104  C     C_R   0.922098 0.174376 0.680732 -0.184178
C105  C     C_R   0.001510 0.188551 0.684772 -0.038596
C106  C     C_R   0.079698 0.265227 0.751063 0.026171
C107  C     C_R   0.781318 0.145576 0.736252 -0.125401
H39   H     H_    0.805392 0.101702 0.745526 0.183973
C108  C     C_R   0.698786 0.128228 0.725652 -0.109418
C109  C     C_R   0.666624 0.183888 0.712823 -0.072196
C110  C     C_R   0.716794 0.256810 0.710372 -0.116643
H40   H     H_    0.691416 0.299324 0.699584 0.157856
C111  C     C_R   0.799437 0.274482 0.721201 -0.122367
C112  C     C_R   0.832520 0.219349 0.734879 0.111429
H41   H     H_    0.794169 0.590452 0.203084 0.161781
H42   H     H_    0.448031 0.809744 0.602529 0.163664
N1    N     N_R   0.459283 0.693998 0.308673 0.209342
O25   O     O_R   0.444217 0.614440 0.266622 -0.393380
O26   O     O_R   0.480690 0.748002 0.279909 -0.309408
H43   H     H_    0.254698 0.639259 0.260486 0.167699
H44   H     H_    0.022001 0.332285 0.160090 0.175484
N2    N     N_R   0.898779 0.080490 0.903763 0.209925
O27   O     O_R   0.818942 0.063666 0.881216 -0.457883
O28   O     O_R   0.913757 0.015965 0.875314 -0.319785
N3    N     N_R   0.060726 0.155453 0.900937 0.233692
O29   O     O_R   0.999233 0.115478 0.820687 -0.380991
O30   O     O_R   0.135779 0.159864 0.917196 -0.372917
H45   H     H_    0.197848 0.560669 0.604578 0.139635
N4    N     N_R   0.406355 0.034297 0.620662 0.191389
O31   O     O_R   0.447193 0.101989 0.697702 -0.378375
O32   O     O_R   0.423321 0.970046 0.610861 -0.432044
H46   H     H_    0.162746 0.013728 0.352762 0.132716
H47   H     H_    0.938875 0.612237 0.483839 0.129901
N5    N     N_R   0.032490 0.615379 0.274761 0.199473
O33   O     O_R   0.112546 0.634428 0.319659 -0.444981
O34   O     O_R   0.969145 0.539097 0.247515 -0.396334
N6    N     N_R   0.137070 0.944727 0.078426 0.234932
O35   O     O_R   0.211356 0.986053 0.149617 -0.367783
O36   O     O_R   0.120214 0.984715 0.034885 -0.290952
N7    N     N_R   0.018590 0.802769 0.898463 0.238447
O37   O     O_R   0.952524 0.757268 0.820088 -0.415681
O38   O     O_R   0.096360 0.839175 0.908863 -0.308899
H48   H     H_    0.875347 0.652661 0.003908 0.134274
N8    N     N_R   0.403235 0.324974 0.757456 0.190959
O39   O     O_R   0.451185 0.298321 0.797498 -0.372453
O40   O     O_R   0.429112 0.363828 0.717316 -0.432773
H49   H     H_    0.153596 0.348842 0.679069 0.147219
H50   H     H_    0.292756 0.375425 0.682855 0.180642
H51   H     H_    0.866432 0.888735 0.635628 0.191381
H52   H     H_    0.136762 0.386866 0.865566 0.170538
H53   H     H_    0.862584 0.114651 0.628564 0.153086
H54   H     H_    0.659649 0.071478 0.727036 0.168402
H55   H     H_    0.602677 0.170301 0.704286 0.199879
H56   H     H_    0.837307 0.330404 0.718063 0.102255
N9    N     N_R   0.682119 0.813355 0.311310 0.236287
O41   O     O_R   0.667182 0.856095 0.270419 -0.371304
O42   O     O_R   0.664836 0.823504 0.374334 -0.375077
H57   H     H_    0.701769 0.766348 0.170714 0.177501

loop_
_geom_bond_atom_site_label_1
_geom_bond_atom_site_label_2
_geom_bond_distance
_ccdc_geom_bond_type
C63   C68   1.417297 A    
C103  C104  1.383950 A    
C11   C16   1.382732 A    
C97   C98   1.400975 A    
N7    O38   1.301318 A    
C101  C102  1.400228 A    
C100  N8    1.439841 S    
C103  C112  1.480781 S    
C60   H26   1.082411 S    
C47   H19   1.085281 S    
O22   C75   1.277277 A    
C29   H43   1.085488 S    
C66   C67   1.372355 A    
C95   H37   1.082280 S    
N1    O25   1.301132 A    
C86   H34   1.085487 S    
O18   C73   1.278588 A    
C107  C108  1.398289 A    
O21   C75   1.274586 A    
N6    O35   1.301489 A    
C31   C32   1.381251 A    
Zn1   O7    2.015078 S    
C75   C84   1.428476 S    
C77   C78   1.398173 A    
C11   C12   1.394500 A    
C20   C21   1.394531 A    
N5    O34   1.300713 A    
O20   C74   1.274745 A    
N9    O42   1.300246 A    
C77   C82   1.397294 A    
C91   C92   1.406095 A    
C18   H57   1.082187 S    
C6    H3    1.083288 S    
O2    C1    1.279228 A    
C86   C87   1.393795 A    
C54   C55   1.406551 A    
O4    C2    1.281301 A    
Zn2   O6    2.021019 S    
O7    C4    1.276789 A    
C55   C56   1.397075 A    
C33   C34   1.408829 A    
N1    O26   1.300842 A    
C57   H46   1.083206 S    
C67   C68   1.394708 A    
C13   C22   1.485130 S    
C36   C37   1.404377 A    
C41   C46   1.396952 A    
C111  C112  1.403741 A    
C93   H48   1.083084 S    
C18   C19   1.395802 A    
C85   C94   1.483468 S    
O9    Zn3   2.022432 S    
N4    O32   1.301545 A    
O5    C3    1.277241 A    
C59   C60   1.393179 A    
C68   C76   1.435269 S    
C43   C52   1.482531 S    
C65   C66   1.391956 A    
C84   C85   1.407785 A    
C61   C62   1.393981 A    
C96   H38   1.080627 S    
C1    C33   1.430624 S    
C92   H36   1.079973 S    
C93   C94   1.399177 A    
C25   C34   1.481265 S    
O9    C69   1.271171 A    
C5    H2    1.081752 S    
Zn4   O14   2.022517 S    
O19   Zn5   2.010986 S    
C39   C40   1.400368 A    
C87   C88   1.417572 A    
C109  H55   1.081135 S    
C44   H17   1.082823 S    
C3    C65   1.429833 S    
O13   C71   1.273861 A    
C6    C7    1.403563 A    
H30   C82   1.082361 S    
C53   C54   1.407180 A    
C98   H49   1.083151 S    
C45   H18   1.081199 S    
O16   C72   1.276806 A    
C41   C42   1.398488 A    
C77   H31   1.082331 S    
C92   C93   1.396725 A    
C105  C106  1.404439 A    
C8    H4    1.081510 S    
O18   Zn6   2.017734 S    
C11   H51   1.085552 S    
C43   C44   1.404649 A    
C99   H50   1.080444 S    
O3    Zn1   2.017217 S    
Zn5   O23   2.019184 S    
H9    C28   1.082506 S    
O12   C70   1.271648 A    
C95   C96   1.397958 A    
C63   C64   1.408349 A    
C61   H27   1.082572 S    
C35   C36   1.393662 A    
C32   C33   1.396511 A    
C101  H52   1.084994 S    
C17   C22   1.424643 A    
N5    O33   1.300719 A    
C64   C65   1.412878 A    
C27   H11   1.081926 S    
C109  C110  1.397342 A    
C83   N5    1.436032 S    
C48   C72   1.430312 S    
C85   C86   1.378948 A    
N9    O41   1.301658 A    
C45   C46   1.396708 A    
C69   C87   1.435248 S    
C31   C40   1.477349 S    
O14   C71   1.277291 A    
C99   C100  1.405540 A    
C50   C51   1.395979 A    
H24   C66   1.084435 S    
C49   C50   1.382797 A    
N7    O37   1.300569 A    
O20   Zn6   2.019058 S    
C23   H42   1.082315 S    
C36   H13   1.082724 S    
C48   C49   1.405386 A    
N4    O31   1.301518 A    
C51   C52   1.409339 A    
H15   C46   1.082685 S    
C42   H16   1.081377 S    
C37   C38   1.416860 A    
O1    C1    1.276404 A    
O15   C72   1.276828 A    
C101  C106  1.383359 A    
C24   H10   1.083185 S    
N2    O27   1.301173 A    
C35   H44   1.083612 S    
C14   H6    1.085175 S    
C47   C48   1.396474 A    
C41   H45   1.082369 S    
C53   H21   1.082631 S    
Zn2   O8    2.017217 S    
C7    C8    1.402848 A    
C39   H14   1.083649 S    
N3    O30   1.300994 A    
C29   C30   1.395011 A    
O11   C70   1.280330 A    
C59   H25   1.080900 S    
N8    O39   1.301531 A    
C24   C25   1.405006 A    
Zn3   O15   2.012174 S    
C104  H53   1.085640 S    
C107  C112  1.404883 A    
C83   C88   1.392940 A    
C12   C70   1.426303 S    
C54   N4    1.439088 S    
C62   C63   1.416636 A    
N8    O40   1.301720 A    
N3    O29   1.301082 A    
Zn4   O16   2.020251 S    
C8    C9    1.398073 A    
C98   C99   1.398983 A    
C49   C58   1.478318 S    
Zn6   O24   2.011071 S    
O3    C2    1.276328 A    
C89   C90   1.404397 A    
C23   C24   1.396099 A    
C108  H54   1.082481 S    
O17   C73   1.279647 A    
C38   N3    1.435327 S    
C12   C13   1.409487 A    
C104  C105  1.392394 A    
C55   H22   1.082626 S    
C35   C40   1.398857 A    
O24   C76   1.280161 A    
C83   C84   1.404655 A    
C7    C16   1.477901 S    
C5    C10   1.397798 A    
Zn1   O5    2.009260 S    
C26   C27   1.405522 A    
C13   C14   1.382498 A    
N2    O28   1.301309 A    
C9    H5    1.081392 S    
C19   C20   1.391857 A    
C111  H56   1.081219 S    
O1    Zn1   2.021019 S    
C15   C16   1.410968 A    
O2    Zn2   2.009261 S    
O8    C4    1.278949 A    
C81   C82   1.396892 A    
C90   N6    1.437343 S    
O6    C3    1.276647 A    
Zn5   O21   2.017859 S    
C59   C64   1.415727 A    
O4    Zn2   2.015078 S    
Zn3   O13   2.010773 S    
C78   H32   1.079573 S    
C60   C61   1.389774 A    
C47   C52   1.385650 A    
C32   H12   1.085335 S    
C110  H40   1.082156 S    
C27   C28   1.396577 A    
C53   C58   1.402769 A    
H29   C67   1.084165 S    
C62   H28   1.079969 S    
C30   C74   1.429239 S    
C5    C6    1.398279 A    
C17   N9    1.445794 S    
C89   C94   1.402365 A    
C56   C57   1.396208 A    
C97   C106  1.479584 S    
C30   C31   1.407071 A    
C14   C15   1.396148 A    
C107  H39   1.083099 S    
C79   C80   1.403043 A    
C21   C22   1.402148 A    
C78   C79   1.405187 A    
C57   C58   1.401932 A    
C21   H8    1.081774 S    
O23   C76   1.276820 A    
Zn6   O22   2.015501 S    
C17   C18   1.410331 A    
C2    C15   1.435778 S    
O11   Zn3   2.020167 S    
C80   C81   1.397875 A    
C9    C10   1.397164 A    
C26   N1    1.436406 S    
O17   Zn5   2.015418 S    
C38   C39   1.405847 A    
C91   N7    1.440358 S    
C29   C34   1.383149 A    
C95   C100  1.406169 A    
H1    C10   1.082238 S    
O10   Zn4   2.010646 S    
C23   C28   1.394908 A    
C50   H20   1.085429 S    
C25   C26   1.415155 A    
C71   C105  1.425597 S    
C73   C102  1.437099 S    
C56   H23   1.082159 S    
C37   N2    1.435499 S    
C108  C109  1.397918 A    
C102  C103  1.412074 A    
C90   C91   1.417022 A    
O19   C74   1.279427 A    
C80   H33   1.078905 S    
C96   C97   1.400894 A    
C44   C45   1.399711 A    
C19   H7    1.082581 S    
C4    C51   1.431459 S    
C42   C43   1.405166 A    
C89   H35   1.083448 S    
O10   C69   1.286204 A    
N6    O36   1.301507 A    
O12   Zn4   2.011926 S    
C79   C88   1.488709 S    
C81   H47   1.082196 S    
C110  C111  1.397991 A    
C20   H41   1.082467 S    
