data_mof_unit_60808.cif
_audit_creation_date              2012-12-10T21:23:20-0500
_audit_creation_method            fapswitch 2.2
_symmetry_space_group_name_H-M    P1
_symmetry_Int_Tables_number       1
_space_group_crystal_system       triclinic
_cell_length_a                    25.507887
_cell_length_b                    24.041899
_cell_length_c                    16.88972
_cell_angle_alpha                 90.678731
_cell_angle_beta                  90.846319
_cell_angle_gamma                 90.294962
_cell_volume                      10355.7532743

loop_
_atom_site_label
_atom_site_type_symbol
_atom_type_description
_atom_site_fract_x
_atom_site_fract_y
_atom_site_fract_z
_atom_type_partial_charge
C1    C     C_R   0.074230 0.427262 0.499733 0.989220
C2    C     C_R   0.924317 0.571078 0.499276 0.916864
C3    C     C_R   0.926198 0.427263 0.499337 0.989300
C4    C     C_R   0.075620 0.571407 0.501126 0.934342
C5    C     C_R   0.574998 0.928033 0.500850 0.970284
C6    C     C_R   0.425153 0.072155 0.500464 0.968816
C7    C     C_R   0.424925 0.927911 0.498632 0.964202
C8    C     C_R   0.575174 0.071946 0.500605 0.949747
C9    C     C_R   0.011613 0.451451 0.746604 -0.031892
C10   C     C_R   0.021061 0.544152 0.251028 -0.053577
C11   C     C_R   0.987947 0.546821 0.751919 -0.054489
C12   C     C_R   0.978971 0.455854 0.248973 -0.035706
C13   C     C_R   0.484423 0.953411 0.748962 -0.055663
C14   C     C_R   0.485689 0.047183 0.251175 -0.047116
C15   C     C_R   0.516273 0.046639 0.750292 -0.054060
C16   C     C_R   0.514069 0.953003 0.249608 -0.060230
C17   C     C_R   0.004960 0.497540 0.876086 -0.081874
C18   C     C_R   0.004827 0.496831 0.123283 -0.072638
C19   C     C_R   0.499996 0.000848 0.876534 -0.092408
C20   C     C_R   0.499595 0.000535 0.123505 -0.091866
C21   C     C_1   0.005928 0.496168 0.963433 0.222385
C22   C     C_1   0.005808 0.495964 0.035900 0.224883
C23   C     C_1   0.499913 0.001142 0.963828 0.224342
C24   C     C_1   0.499763 0.000955 0.036220 0.223600
C25   C     C_R   0.181425 0.672343 0.572502 -0.172506
C26   C     C_R   0.791806 0.365940 0.508875 -0.158108
C27   C     C_R   0.855207 0.295236 0.542813 -0.145724
C28   C     C_R   0.208779 0.631729 0.448845 -0.164655
C29   C     C_R   0.819608 0.670398 0.426699 -0.173952
C30   C     C_R   0.204142 0.359703 0.551283 -0.176732
C31   C     C_R   0.170429 0.319228 0.429207 -0.181790
C32   C     C_R   0.795518 0.638828 0.556126 -0.137924
C33   C     C_R   0.688106 0.154085 0.587475 -0.147503
C34   C     C_R   0.351312 0.797662 0.441769 -0.188365
C35   C     C_R   0.323908 0.828198 0.571333 -0.151832
C36   C     C_R   0.658406 0.199378 0.468222 -0.183770
C37   C     C_R   0.320170 0.167349 0.424597 -0.184291
C38   C     C_R   0.653070 0.802413 0.559205 -0.183784
C39   C     C_R   0.679340 0.830852 0.429031 -0.155707
C40   C     C_R   0.349157 0.200647 0.553450 -0.180465
C41   C     C_R   0.135943 0.640558 0.570698 -0.065919
C42   C     C_R   0.831865 0.402724 0.489170 -0.034466
C43   C     C_R   0.896512 0.330868 0.524215 -0.066503
C44   C     C_R   0.163858 0.598089 0.445410 -0.024998
C45   C     C_R   0.863408 0.636568 0.427277 -0.076923
C46   C     C_R   0.160613 0.394559 0.556416 -0.039770
C47   C     C_R   0.126266 0.352435 0.432947 -0.065396
C48   C     C_R   0.838923 0.603459 0.559141 -0.043268
C49   C     C_R   0.655463 0.108616 0.570212 -0.045276
C50   C     C_R   0.377267 0.847892 0.430349 -0.084132
C51   C     C_R   0.350189 0.878847 0.562385 -0.062290
C52   C     C_R   0.625623 0.154496 0.449149 -0.086945
C53   C     C_R   0.348938 0.118515 0.434212 -0.079912
C54   C     C_R   0.624646 0.851072 0.569227 -0.089463
C55   C     C_R   0.650640 0.880032 0.436322 -0.060801
C56   C     C_R   0.377675 0.152253 0.565486 -0.078983
C57   C     C_R   0.125074 0.604064 0.505126 -0.178823
C58   C     C_R   0.884679 0.385681 0.499266 -0.171419
C59   C     C_R   0.875499 0.604170 0.495735 -0.215358
C60   C     C_R   0.120276 0.390554 0.497354 -0.168583
C61   C     C_R   0.620353 0.110701 0.504167 -0.172837
C62   C     C_R   0.382215 0.886203 0.495311 -0.175735
C63   C     C_R   0.382335 0.113276 0.501637 -0.158625
C64   C     C_R   0.618284 0.887466 0.503418 -0.181190
C65   C     C_R   0.217053 0.668122 0.512144 0.101571
C66   C     C_R   0.803603 0.313164 0.536280 0.088503
C67   C     C_R   0.786580 0.671793 0.490490 0.102502
C68   C     C_R   0.208924 0.323215 0.487447 0.111675
C69   C     C_R   0.688563 0.199419 0.537386 0.098781
C70   C     C_R   0.326263 0.787491 0.512276 0.095009
C71   C     C_R   0.321671 0.208429 0.483229 0.107774
C72   C     C_R   0.678812 0.791908 0.489242 0.096536
C73   C     C_1   0.259958 0.705365 0.513544 0.004604
C74   C     C_1   0.762290 0.274453 0.546057 0.004113
C75   C     C_1   0.745170 0.710425 0.488982 0.004469
C76   C     C_1   0.251853 0.286583 0.483164 0.001597
C77   C     C_1   0.727925 0.240769 0.546638 0.006902
C78   C     C_1   0.292348 0.741045 0.514884 0.003996
C79   C     C_1   0.285321 0.252440 0.480657 -0.000577
C80   C     C_1   0.713331 0.746284 0.487156 0.004689
C81   C     C_R   0.014797 0.449713 0.830626 0.257418
C82   C     C_R   0.023725 0.542849 0.166634 0.245408
C83   C     C_R   0.991667 0.546381 0.836214 0.244367
C84   C     C_R   0.982244 0.453198 0.165043 0.221251
C85   C     C_R   0.485146 0.953213 0.833358 0.245888
C86   C     C_R   0.486419 0.048174 0.166925 0.249700
C87   C     C_R   0.515333 0.047873 0.834592 0.244352
C88   C     C_R   0.512804 0.952550 0.165176 0.248820
H1    H     H_    0.189151 0.700980 0.621616 0.165073
H2    H     H_    0.751104 0.377810 0.500851 0.181606
H3    H     H_    0.862933 0.252888 0.560865 0.193742
H4    H     H_    0.238157 0.628614 0.403221 0.178642
H5    H     H_    0.810991 0.696036 0.375612 0.168819
H6    H     H_    0.235167 0.362069 0.595862 0.173797
H7    H     H_    0.174892 0.289941 0.380328 0.160174
H8    H     H_    0.767839 0.639958 0.604267 0.180033
H9    H     H_    0.715699 0.152695 0.636905 0.184951
H10   H     H_    0.347448 0.767624 0.393484 0.185244
H11   H     H_    0.299016 0.821583 0.621917 0.189526
H12   H     H_    0.663016 0.233016 0.426515 0.176444
H13   H     H_    0.293898 0.171939 0.374032 0.188398
H14   H     H_    0.657805 0.773771 0.608015 0.183275
H15   H     H_    0.704300 0.823997 0.378440 0.189396
H16   H     H_    0.345231 0.230880 0.601258 0.179053
N1    N     N_R   0.000000 0.500000 0.707230 -0.187403
N2    N     N_R   0.000000 0.500000 0.292770 -0.170111
N3    N     N_R   0.500000 0.000000 0.707230 -0.176997
N4    N     N_R   0.500000 0.000000 0.292770 -0.177014
O1    O     O_R   0.055440 0.444550 0.566570 -0.618613
O2    O     O_R   0.944560 0.555450 0.433430 -0.547146
O3    O     O_R   0.944560 0.555450 0.566570 -0.603994
O4    O     O_R   0.055440 0.444550 0.433430 -0.568287
O5    O     O_R   0.944560 0.444550 0.433430 -0.585670
O6    O     O_R   0.055440 0.555450 0.566570 -0.541627
O7    O     O_R   0.055440 0.555450 0.433430 -0.619449
O8    O     O_R   0.944560 0.444550 0.566570 -0.581280
O9    O     O_R   0.555440 0.944550 0.566570 -0.550859
O10   O     O_R   0.444560 0.055450 0.433430 -0.615461
O11   O     O_R   0.444560 0.055450 0.566570 -0.549657
O12   O     O_R   0.555440 0.944550 0.433430 -0.616096
O13   O     O_R   0.444560 0.944550 0.433430 -0.546026
O14   O     O_R   0.555440 0.055450 0.566570 -0.629763
O15   O     O_R   0.555440 0.055450 0.433430 -0.541274
O16   O     O_R   0.444560 0.944550 0.566570 -0.618818
Zn1   Zn    Zn3+2 1.000000 0.500000 0.588860 1.051055
Zn2   Zn    Zn3+2 0.000000 0.500000 0.411140 1.070816
Zn3   Zn    Zn3+2 0.500000 0.000000 0.588860 1.052498
Zn4   Zn    Zn3+2 0.500000 0.000000 0.411140 1.059167
C89   C     C_2   0.102910 0.646986 0.640805 1.008279
O17   O     O_2   0.081393 0.691471 0.653578 -0.576234
O18   O     O_R   0.101618 0.604862 0.697071 -0.770293
H17   H     H_    0.082051 0.616232 0.746432 0.363680
C90   C     C_2   0.816797 0.458134 0.458251 0.942460
O19   O     O_2   0.776479 0.480291 0.480689 -0.602776
O20   O     O_R   0.847034 0.484015 0.401040 -0.740646
H18   H     H_    0.830968 0.520088 0.382321 0.370374
C91   C     C_2   0.951074 0.309104 0.530756 0.978644
O21   O     O_2   0.987321 0.332718 0.498387 -0.644040
O22   O     O_R   0.960966 0.260674 0.573474 -0.758838
H19   H     H_    0.999395 0.250075 0.573751 0.361579
C92   C     C_2   0.162397 0.554126 0.383091 0.964630
O23   O     O_2   0.178396 0.564125 0.316796 -0.546567
O24   O     O_R   0.146865 0.500208 0.401492 -0.792866
H20   H     H_    0.149392 0.473671 0.354635 0.372736
C93   C     C_2   0.893261 0.636567 0.352982 1.014010
O25   O     O_2   0.912188 0.680125 0.329580 -0.570651
O26   O     O_R   0.894830 0.588588 0.305468 -0.750989
H21   H     H_    0.913923 0.594717 0.254059 0.357010
C94   C     C_2   0.161500 0.437204 0.620395 0.981802
O27   O     O_2   0.174560 0.424382 0.687697 -0.551027
O28   O     O_R   0.150610 0.492589 0.603012 -0.786990
H22   H     H_    0.154679 0.517900 0.651097 0.378244
C95   C     C_2   0.088470 0.345672 0.366798 1.022576
O29   O     O_2   0.060077 0.304581 0.363590 -0.542202
O30   O     O_R   0.089209 0.383275 0.304325 -0.780789
H23   H     H_    0.065202 0.371624 0.258694 0.372317
C96   C     C_2   0.841391 0.564117 0.626438 0.980835
O31   O     O_2   0.825810 0.578723 0.691579 -0.549152
O32   O     O_R   0.857809 0.509372 0.614738 -0.805081
H24   H     H_    0.856846 0.486704 0.664940 0.358408
C97   C     C_2   0.664649 0.056649 0.614543 0.982020
O33   O     O_2   0.677920 0.058537 0.684422 -0.548601
O34   O     O_R   0.662137 0.005600 0.574433 -0.780797
H25   H     H_    0.675689 0.973909 0.607797 0.373277
C98   C     C_2   0.393080 0.859634 0.347835 1.029399
O35   O     O_2   0.409041 0.821823 0.305582 -0.574867
O36   O     O_R   0.385984 0.912471 0.315963 -0.773588
H26   H     H_    0.397354 0.914661 0.258808 0.354752
C99   C     C_2   0.338063 0.925499 0.617732 0.980652
O37   O     O_2   0.321004 0.915958 0.683551 -0.551035
O38   O     O_R   0.342981 0.980509 0.592876 -0.770898
H27   H     H_    0.330777 0.008232 0.634209 0.380424
C100  C     C_2   0.602791 0.152989 0.368269 1.023605
O39   O     O_2   0.582656 0.194785 0.340877 -0.565749
O40   O     O_R   0.608295 0.105397 0.320779 -0.769831
H28   H     H_    0.593034 0.110174 0.265523 0.358144
C101  C     C_2   0.337450 0.070915 0.379698 0.973231
O41   O     O_2   0.321711 0.079129 0.312087 -0.556121
O42   O     O_R   0.340975 0.016543 0.407517 -0.768714
H29   H     H_    0.327338 0.988180 0.367389 0.382031
C102  C     C_2   0.606939 0.862879 0.651221 1.022452
O43   O     O_2   0.590447 0.824861 0.691665 -0.571727
O44   O     O_R   0.613065 0.915934 0.684939 -0.769888
H30   H     H_    0.600583 0.918021 0.741609 0.356929
C103  C     C_2   0.660108 0.925031 0.378218 0.981733
O45   O     O_2   0.676986 0.913657 0.312584 -0.552476
O46   O     O_R   0.652742 0.980735 0.399818 -0.763225
H31   H     H_    0.661424 0.007269 0.355646 0.376368
C104  C     C_2   0.396365 0.142713 0.647814 1.023887
O47   O     O_2   0.414384 0.181551 0.687223 -0.571182
O48   O     O_R   0.389202 0.090945 0.682980 -0.772843
H32   H     H_    0.402426 0.090245 0.739865 0.354851
Cl1   Cl    Cl    0.029386 0.386685 0.879322 -0.448279
Cl2   Cl    Cl    0.047918 0.600634 0.113608 -0.431956
Cl3   Cl    Cl    0.980924 0.607810 0.892739 -0.444909
Cl4   Cl    Cl    0.956864 0.394894 0.111535 -0.471366
Cl5   Cl    Cl    0.469364 0.892147 0.886222 -0.427326
Cl6   Cl    Cl    0.472836 0.110176 0.114700 -0.441849
Cl7   Cl    Cl    0.532353 0.109251 0.888515 -0.436316
Cl8   Cl    Cl    0.526182 0.890927 0.110433 -0.426258
C105  C     C_2   0.016637 0.398572 0.703059 1.067160
O49   O     O_2   0.977343 0.374850 0.677740 -0.607508
O50   O     O_R   0.065618 0.373238 0.697317 -0.743413
H33   H     H_    0.063872 0.336506 0.667250 0.347424
C106  C     C_2   0.038798 0.595915 0.291408 1.041835
O51   O     O_2   0.082217 0.615085 0.278150 -0.546237
O52   O     O_R   0.005598 0.624202 0.342518 -0.769598
H34   H     H_    0.022253 0.659178 0.366013 0.348435
C107  C     C_2   0.967059 0.597695 0.714708 1.030544
O53   O     O_2   0.926184 0.617748 0.738511 -0.541790
O54   O     O_R   0.994201 0.624254 0.655036 -0.767428
H35   H     H_    0.975549 0.658663 0.635201 0.349724
C108  C     C_2   0.947959 0.411969 0.286033 1.076497
O55   O     O_2   0.900103 0.413665 0.281696 -0.543722
O56   O     O_R   0.972736 0.367151 0.322057 -0.754826
H36   H     H_    0.946882 0.338934 0.342980 0.360255
C109  C     C_2   0.466006 0.901932 0.708340 1.056044
O57   O     O_2   0.424041 0.881226 0.726328 -0.556988
O58   O     O_R   0.496836 0.875436 0.652177 -0.779227
H37   H     H_    0.479810 0.840385 0.629540 0.337528
C110  C     C_2   0.468721 0.098554 0.291897 1.037384
O59   O     O_2   0.496411 0.120457 0.342744 -0.607816
O60   O     O_R   0.421673 0.123748 0.269249 -0.720558
H38   H     H_    0.414932 0.159522 0.299742 0.352648
C111  C     C_2   0.537018 0.096478 0.711049 1.061871
O61   O     O_2   0.580986 0.113543 0.728393 -0.557060
O62   O     O_R   0.506320 0.125454 0.656795 -0.776945
H39   H     H_    0.525017 0.159158 0.634943 0.341901
C112  C     C_2   0.532349 0.901764 0.288766 1.052301
O63   O     O_2   0.573621 0.880591 0.268749 -0.554013
O64   O     O_R   0.502154 0.875968 0.345746 -0.780950
H40   H     H_    0.519011 0.840990 0.367120 0.336876

loop_
_geom_bond_atom_site_label_1
_geom_bond_atom_site_label_2
_ccdc_geom_bond_type
C41   C89   S    
O50   H33   S    
C96   O31   D    
C40   C71   A    
C70   C78   S    
C99   O38   S    
C105  O49   D    
C4    O7    A    
C69   C77   S    
O26   H21   S    
C76   C79   T    
C87   Cl7   S    
C7    O16   A    
O38   H27   S    
C42   C58   A    
C71   C79   S    
C97   O33   D    
C103  O45   D    
O20   H18   S    
C37   C71   A    
C108  O55   D    
C91   O22   S    
C98   O35   D    
O7    Zn2   S    
C37   H13   S    
C15   C111  S    
C42   C90   S    
C45   C93   S    
C4    O6    A    
C10   C106  S    
C111  O61   D    
C112  O64   S    
C19   C87   A    
C52   C61   A    
C94   O28   S    
C1    O4    A    
C103  O46   S    
C9    N1    A    
O24   H20   S    
C66   C74   S    
C16   C112  S    
C65   C73   S    
C12   C84   A    
C99   O37   D    
C15   N3    A    
O14   Zn3   S    
C104  O48   S    
O62   H39   S    
C14   C110  S    
C43   C58   A    
C18   C82   A    
C47   C60   A    
C29   C67   A    
C39   C55   A    
O60   H38   S    
C35   C70   A    
C44   C92   S    
C101  O42   S    
C74   C77   T    
C20   C86   A    
C4    C57   S    
C11   N1    A    
C18   C84   A    
C39   C72   A    
C27   H3    S    
C95   O30   S    
C75   C80   T    
C34   C70   A    
O4    Zn2   S    
C36   C52   A    
C33   C69   A    
C8    C61   S    
C38   H14   S    
C37   C53   A    
C108  O56   S    
C96   O32   S    
C100  O39   D    
C21   C22   T    
C90   O20   S    
C105  O50   S    
C51   C62   A    
O10   Zn4   S    
C12   C108  S    
C7    O13   A    
C35   H11   S    
C97   O34   S    
C93   O25   D    
C102  O44   S    
C27   C66   A    
C31   C68   A    
C111  O62   S    
C38   C72   A    
C2    O3    A    
O30   H23   S    
C49   C61   A    
C93   O26   S    
C5    O12   A    
O48   H32   S    
C26   C66   A    
C20   C24   S    
C51   C99   S    
C25   C65   A    
C14   C86   A    
O13   Zn4   S    
C28   H4    S    
C3    O5    A    
C1    C60   S    
C25   C41   A    
O36   H26   S    
O6    Zn1   S    
C29   H5    S    
C2    C59   S    
C30   H6    S    
C1    O1    A    
O5    Zn2   S    
C47   C95   S    
C40   C56   A    
C109  O57   D    
C102  O43   D    
C73   C78   T    
C81   Cl1   S    
C10   C82   A    
C17   C21   S    
O52   H34   S    
C5    C64   S    
C29   C45   A    
C17   C83   A    
C6    C63   S    
C19   C23   S    
O44   H30   S    
C7    C62   S    
O3    Zn1   S    
C112  O63   D    
C40   H16   S    
C110  O59   D    
O32   H24   S    
C38   C54   A    
C44   C57   A    
O28   H22   S    
C55   C64   A    
C50   C98   S    
C107  O53   D    
C54   C102  S    
C36   H12   S    
N4    Zn4   S    
O9    Zn3   S    
C100  O40   S    
C9    C105  S    
O2    Zn2   S    
O16   Zn3   S    
O1    Zn1   S    
C32   H8    S    
C86   Cl6   S    
O8    Zn1   S    
C32   C67   A    
C35   C51   A    
C90   O19   D    
C50   C62   A    
C10   N2    A    
C68   C76   S    
C13   C85   A    
O18   H17   S    
C6    O11   A    
O58   H37   S    
C36   C69   A    
C26   C42   A    
C48   C59   A    
C15   C87   A    
C89   O17   D    
C48   C96   S    
C85   Cl5   S    
C106  O51   D    
C56   C104  S    
C2    O2    A    
C46   C60   A    
C18   C22   S    
C49   C97   S    
C30   C46   A    
C56   C63   A    
C19   C85   A    
C53   C101  S    
C34   C50   A    
O22   H19   S    
O12   Zn4   S    
C8    O15   A    
C39   H15   S    
O42   H29   S    
C109  O58   S    
C91   O21   D    
N2    Zn2   S    
C25   H1    S    
N1    Zn1   S    
C110  O60   S    
C11   C83   A    
C88   Cl8   S    
C92   O24   S    
C28   C65   A    
C41   C57   A    
O46   H31   S    
C72   C80   S    
O40   H28   S    
C3    O8    A    
C92   O23   D    
C11   C107  S    
C12   N2    A    
C13   N3    A    
C53   C63   A    
C8    O14   A    
O15   Zn4   S    
C32   C48   A    
C54   C64   A    
C84   Cl4   S    
C31   H7    S    
C20   C88   A    
C14   N4    A    
C34   H10   S    
C45   C59   A    
C28   C44   A    
C43   C91   S    
C17   C81   A    
C55   C103  S    
O56   H36   S    
C83   Cl3   S    
C104  O47   D    
C82   Cl2   S    
O34   H25   S    
C16   N4    A    
C23   C24   T    
N3    Zn3   S    
O54   H35   S    
C3    C58   S    
C27   C43   A    
C46   C94   S    
C67   C75   S    
C98   O36   S    
C101  O41   D    
C5    O9    A    
O64   H40   S    
C16   C88   A    
C107  O54   S    
C31   C47   A    
C26   H2    S    
C33   H9    S    
C13   C109  S    
C95   O29   D    
C94   O27   D    
C106  O52   S    
C33   C49   A    
C52   C100  S    
C6    O10   A    
C30   C68   A    
C9    C81   A    
C89   O18   S    
O11   Zn3   S    
