data_mof_unit_10789.cif
_audit_creation_date              2012-12-10T20:38:23-0500
_audit_creation_method            fapswitch 2.2
_symmetry_space_group_name_H-M    P1
_symmetry_Int_Tables_number       1
_space_group_crystal_system       triclinic
_cell_length_a                    9.891907
_cell_length_b                    10.684364
_cell_length_c                    16.285257
_cell_angle_alpha                 91.38334
_cell_angle_beta                  83.721986
_cell_angle_gamma                 89.618034
_cell_volume                      1710.27271815

loop_
_atom_site_label
_atom_site_type_symbol
_atom_type_description
_atom_site_fract_x
_atom_site_fract_y
_atom_site_fract_z
_atom_type_partial_charge
C1    C     C_R   0.499687 0.739685 0.500396 0.923804
C2    C     C_R   0.534635 0.556382 0.263114 -0.144429
C3    C     C_R   0.405908 0.934440 0.456567 0.201003
C4    C     C_R   0.479478 0.502259 0.654595 0.878005
C5    C     C_R   0.502329 0.871278 0.496374 -0.099811
C6    C     C_R   0.609389 0.935940 0.526983 -0.236447
C7    C     C_R   0.608751 0.064626 0.527150 -0.241232
C8    C     C_R   0.502881 0.128083 0.495370 -0.085325
C9    C     C_R   0.406402 0.062447 0.455584 0.119692
C10   C     C_3   0.254361 0.070187 0.466919 -0.450544
C11   C     C_3   0.254294 0.928511 0.468609 -0.452212
C12   C     C_R   0.370802 0.627586 0.772129 -0.221998
C13   C     C_R   0.920719 0.594503 0.539185 -0.027329
C14   C     C_R   0.939174 0.413568 0.454208 -0.138569
C15   C     C_R   0.082877 0.416459 0.453021 0.623663
C16   C     C_R   0.500318 0.260219 0.499509 0.877618
C17   C     C_R   0.063045 0.593446 0.540068 -0.100966
C18   C     C_3   0.049698 0.626084 0.630172 1.006278
C19   C     C_3   0.896605 0.629569 0.628696 0.369581
C20   C     C_R   0.520230 0.506371 0.345923 0.912700
C21   C     C_R   0.464168 0.532635 0.743123 -0.171576
C22   C     C_R   0.555049 0.484769 0.795881 0.004274
C23   C     C_R   0.486726 0.725142 0.172070 -0.089655
C24   C     C_R   0.556126 0.539329 0.874651 -0.274644
C25   C     C_R   0.467127 0.638698 0.901750 0.015043
C26   C     C_R   0.371111 0.679376 0.851291 0.650268
C27   C     C_R   0.644278 0.374515 0.772286 0.131329
C28   C     C_R   0.783498 0.377833 0.782697 -0.159589
C29   C     C_R   0.866311 0.272557 0.762565 -0.114342
C30   C     C_R   0.810255 0.162129 0.734163 -0.113959
C31   C     C_R   0.671392 0.156989 0.725650 -0.136697
C32   C     C_R   0.588878 0.263003 0.743559 -0.143919
C33   C     C_R   0.884101 0.308768 0.408388 0.248441
C34   C     C_R   0.465276 0.667747 0.248903 0.543315
C35   C     C_R   0.892187 0.187234 0.438690 -0.125942
C36   C     C_R   0.863885 0.083275 0.389851 -0.129429
C37   C     C_R   0.828331 0.099701 0.310200 -0.110784
C38   C     C_R   0.824608 0.219852 0.278562 -0.187278
C39   C     C_R   0.854161 0.324094 0.327081 -0.092973
C40   C     C_R   0.418353 0.846556 0.159956 0.151714
C41   C     C_R   0.277156 0.861276 0.180462 -0.089947
C42   C     C_R   0.214333 0.977229 0.172195 -0.135170
C43   C     C_R   0.291614 0.079250 0.143232 -0.073497
C44   C     C_R   0.431820 0.065446 0.122319 -0.129119
C45   C     C_R   0.629190 0.504629 0.201853 -0.309480
C46   C     C_R   0.495118 0.949705 0.130597 -0.133013
C47   C     C_R   0.650813 0.559909 0.125398 -0.163337
C48   C     C_R   0.577679 0.667620 0.109119 0.048257
C49   C     C_2   0.464877 0.689272 0.986452 -0.097239
C50   C     C_2   0.580207 0.699541 0.022042 -0.232741
F1    F     F_    0.162196 0.333279 0.405164 -0.679967
F2    F     F_    0.092644 0.530971 0.677705 -0.715043
F3    F     F_    0.382535 0.723881 0.311426 -0.700542
F4    F     F_    0.105097 0.741247 0.646957 -0.649002
F5    F     F_    0.842109 0.749050 0.640879 -0.648831
F6    F     F_    0.281143 0.772220 0.877528 -0.651907
H1    H     H_    0.719472 0.514401 0.077160 0.148466
H2    H     H_    0.677292 0.691218 0.983827 0.171753
H3    H     H_    0.301825 0.666186 0.731954 0.246692
H4    H     H_    0.366769 0.694511 0.023667 0.176167
H5    H     H_    0.623437 0.501018 0.916119 0.159685
H6    H     H_    0.828130 0.462227 0.805679 0.156427
H7    H     H_    0.973737 0.276286 0.769686 0.171340
H8    H     H_    0.874149 0.080267 0.719375 0.179085
H9    H     H_    0.627553 0.070655 0.705289 0.164625
H10   H     H_    0.481374 0.257331 0.736746 0.128562
H11   H     H_    0.923641 0.172966 0.499476 0.121760
H12   H     H_    0.689020 0.887904 0.554763 0.234737
H13   H     H_    0.870646 0.989943 0.413574 0.153452
H14   H     H_    0.806679 0.019192 0.272339 0.132201
H15   H     H_    0.802525 0.231391 0.215589 0.127343
H16   H     H_    0.858917 0.416042 0.300510 0.131879
H17   H     H_    0.215735 0.783024 0.202727 0.153925
H18   H     H_    0.105726 0.988041 0.188383 0.136177
H19   H     H_    0.242870 0.169013 0.137062 0.138528
H20   H     H_    0.491640 0.144668 0.100143 0.134782
H21   H     H_    0.604178 0.941019 0.115347 0.132803
H22   H     H_    0.687270 0.114234 0.555458 0.178513
H23   H     H_    0.213138 0.115593 0.526701 0.222384
H24   H     H_    0.212439 0.106088 0.411416 0.263707
H25   H     H_    0.214533 0.891701 0.529712 0.257895
H26   H     H_    0.211763 0.884247 0.414665 0.243826
H27   H     H_    0.840390 0.557951 0.666483 0.085772
H28   H     H_    0.683436 0.419828 0.212367 0.155391
N1    N     N_R   0.857140 0.500860 0.500530 -0.152001
N2    N     N_R   0.142780 0.500820 0.500530 -0.139505
O1    O     O_R   0.385310 0.683210 0.499990 -0.580671
O2    O     O_R   0.614650 0.683240 0.500000 -0.603423
O3    O     O_R   0.371780 0.500000 0.615800 -0.564854
O4    O     O_R   0.601120 0.500040 0.615800 -0.606182
O5    O     O_R   0.385350 0.316760 0.500000 -0.574534
O6    O     O_R   0.614690 0.316790 0.500010 -0.625485
O7    O     O_R   0.398880 0.499960 0.384200 -0.524142
O8    O     O_R   0.628220 0.500000 0.384200 -0.630127
Zn1   Zn    Zn3+2 0.346870 0.499980 0.499990 1.072936
Zn2   Zn    Zn3+2 0.653130 0.500020 0.500010 0.973611

loop_
_geom_bond_atom_site_label_1
_geom_bond_atom_site_label_2
_ccdc_geom_bond_type
C1    O1    A    
C20   O7    A    
O2    Zn2   S    
C24   H5    S    
C30   H8    S    
C41   C42   A    
C35   C36   A    
C14   C33   S    
C29   H7    S    
C18   F2    S    
C7    C8    A    
C11   H25   S    
C40   C46   A    
C29   C30   A    
C49   H4    S    
C1    C5    S    
C36   C37   A    
C5    C6    A    
N1    Zn2   S    
C23   C40   S    
O6    Zn2   S    
C18   C19   S    
C44   H20   S    
C12   H3    S    
C31   C32   A    
C8    C9    A    
O1    Zn1   S    
C39   H16   S    
C15   F1    S    
C9    C10   S    
C2    C34   A    
C1    O2    A    
C6    H12   S    
O7    Zn1   S    
C37   H14   S    
C19   H27   S    
C44   C46   A    
C4    O4    A    
C45   C47   A    
C11   H26   S    
C43   H19   S    
C42   H18   S    
C13   C19   S    
C2    C20   S    
C17   N2    A    
C50   H2    S    
C24   C25   A    
C10   C11   S    
C10   H24   S    
C2    C45   A    
C25   C26   A    
C41   H17   S    
C12   C21   A    
C12   C26   A    
O3    Zn1   S    
C43   C44   A    
C37   C38   A    
C3    C9    A    
C47   H1    S    
C47   C48   A    
C35   H11   S    
C30   C31   A    
C23   C34   A    
C17   C18   S    
C33   C39   A    
O8    Zn2   S    
C16   O5    A    
C7    H22   S    
C40   C41   A    
C16   O6    A    
C22   C27   S    
C15   N2    A    
C22   C24   A    
C45   H28   S    
C42   C43   A    
C36   H13   S    
C32   H10   S    
C4    O3    A    
C19   F5    S    
C31   H9    S    
C20   O8    A    
C38   H15   S    
C28   C29   A    
C23   C48   A    
C27   C32   A    
C14   N1    A    
C3    C5    A    
C26   F6    S    
C46   H21   S    
C10   H23   S    
O4    Zn2   S    
C6    C7    A    
C13   C17   A    
C4    C21   S    
C38   C39   A    
C48   C50   S    
C33   C35   A    
C25   C49   S    
C3    C11   S    
N2    Zn1   S    
C18   F4    S    
O5    Zn1   S    
C34   F3    S    
C8    C16   S    
C49   C50   D    
C13   N1    A    
C27   C28   A    
C14   C15   A    
C21   C22   A    
C28   H6    S    
