data_mof_unit_33608.cif
_audit_creation_date              2012-12-10T18:45:03-0500
_audit_creation_method            fapswitch 2.2
_symmetry_space_group_name_H-M    P1
_symmetry_Int_Tables_number       1
_space_group_crystal_system       triclinic
_cell_length_a                    10.907319
_cell_length_b                    10.021833
_cell_length_c                    10.728578
_cell_angle_alpha                 95.14698
_cell_angle_beta                  93.570506
_cell_angle_gamma                 93.569945
_cell_volume                      1163.04001162

loop_
_atom_site_label
_atom_site_type_symbol
_atom_type_description
_atom_site_fract_x
_atom_site_fract_y
_atom_site_fract_z
_atom_type_partial_charge
C1    C     C_R   0.260402 0.495962 0.503255 0.886912
C2    C     C_R   0.739926 0.503240 0.497233 0.910258
C3    C     C_R   0.949855 0.617648 0.544606 -0.237939
C4    C     C_R   0.075155 0.603056 0.565389 -0.084644
C5    C     C_R   0.578020 0.087586 0.582076 -0.010821
C6    C     C_R   0.433262 0.056935 0.409872 -0.097033
C7    C     C_R   0.578438 0.943561 0.584731 -0.012689
C8    C     C_R   0.426742 0.914725 0.414656 -0.027666
C9    C     C_R   0.504144 0.495801 0.259628 1.022721
C10   C     C_R   0.488903 0.505752 0.739313 0.946034
C11   C     C_R   0.677077 0.668232 0.125629 0.391567
C12   C     C_R   0.536606 0.762602 0.930349 0.428595
C13   C     C_R   0.710481 0.794695 0.084762 -0.240880
C14   C     C_R   0.627237 0.851485 0.000952 -0.217404
C15   C     C_R   0.526895 0.625302 0.952617 -0.126116
C16   C     C_R   0.572030 0.591478 0.068632 -0.053403
C17   C     C_R   0.503090 0.489794 0.124112 -0.191496
C18   C     C_R   0.464535 0.520890 0.871583 -0.172331
C19   C     C_R   0.404148 0.416154 0.052662 0.231014
C20   C     C_R   0.396207 0.418829 0.922984 0.372422
C21   C     C_R   0.052077 0.379096 0.451775 -0.109589
C22   C     C_R   0.924912 0.389680 0.435283 -0.057035
C23   C     C_R   0.873169 0.506966 0.487659 -0.074642
C24   C     C_R   0.127394 0.488836 0.511561 -0.107842
N1    N     N_R   0.500000 0.857200 0.500000 -0.135140
N2    N     N_R   0.500000 0.142810 0.500000 -0.159462
O1    O     O_R   0.316770 0.614620 0.499990 -0.595260
O2    O     O_R   0.683230 0.614620 0.500010 -0.547716
O3    O     O_R   0.316800 0.385290 0.500000 -0.599027
O4    O     O_R   0.683200 0.385290 0.500000 -0.643967
O5    O     O_R   0.500010 0.614690 0.316770 -0.616744
O6    O     O_R   0.499990 0.614690 0.683230 -0.555336
O7    O     O_R   0.500040 0.385360 0.316770 -0.581578
O8    O     O_R   0.499960 0.385360 0.683230 -0.580942
Zn1   Zn    Zn3+2 0.500000 0.653120 0.500000 1.077261
Zn2   Zn    Zn3+2 0.500000 0.346880 0.500000 1.060007
Cl1   Cl    Cl    0.277107 0.345495 0.123772 -0.446820
Cl2   Cl    Cl    0.289742 0.306900 0.828051 -0.395346
Cl3   Cl    Cl    0.781539 0.594242 0.223903 -0.538958
Cl4   Cl    Cl    0.418870 0.824591 0.836415 -0.489811
C25   C     C_2   0.832821 0.862745 0.126007 1.102127
O9    O     O_2   0.902626 0.895902 0.047600 -0.512183
O10   O     O_R   0.869195 0.886729 0.253470 -0.667554
H1    H     H_    0.955591 0.931063 0.269092 0.395853
C26   C     C_2   0.632416 0.000738 0.991999 1.080678
O11   O     O_2   0.723526 0.071960 0.032963 -0.570478
O12   O     O_R   0.532990 0.061554 0.938042 -0.714752
H2    H     H_    0.545195 0.163006 0.945288 0.368816
C27   C     C_2   0.103168 0.251737 0.406935 1.022811
O13   O     O_2   0.091373 0.212825 0.295384 -0.500246
O14   O     O_R   0.152970 0.170674 0.494028 -0.698573
H3    H     H_    0.172976 0.079789 0.454279 0.368903
C28   C     C_2   0.846931 0.279733 0.358328 1.046609
O15   O     O_2   0.855611 0.162325 0.378206 -0.546466
O16   O     O_R   0.761977 0.311476 0.264844 -0.726736
H4    H     H_    0.711333 0.229734 0.223643 0.394511
C29   C     C_2   0.905054 0.752784 0.576434 1.043721
O17   O     O_2   0.856890 0.811925 0.493869 -0.455163
O18   O     O_R   0.926895 0.819088 0.696964 -0.701370
H5    H     H_    0.952137 0.757334 0.762384 0.316479
C30   C     C_2   0.150975 0.704904 0.650385 0.985467
O19   O     O_2   0.190201 0.674772 0.752460 -0.555727
O20   O     O_R   0.173427 0.834764 0.615070 -0.713719
H6    H     H_    0.220648 0.897457 0.683197 0.406521
C31   C     C_2   0.675357 0.178142 0.653748 1.069152
O21   O     O_2   0.778164 0.187165 0.614938 -0.554049
O22   O     O_R   0.655897 0.238092 0.772551 -0.777203
H7    H     H_    0.731353 0.292972 0.813511 0.359207
C32   C     C_2   0.395197 0.105356 0.290046 1.013568
O23   O     O_2   0.287909 0.089950 0.249418 -0.530033
O24   O     O_R   0.486261 0.143654 0.212827 -0.788836
H8    H     H_    0.450330 0.163604 0.128254 0.380297
C33   C     C_2   0.665676 0.892566 0.682431 1.008825
O25   O     O_2   0.730443 0.969789 0.756942 -0.563219
O26   O     O_R   0.677161 0.758181 0.692411 -0.765045
H9    H     H_    0.727752 0.737924 0.770186 0.317357
C34   C     C_2   0.346533 0.829054 0.319502 1.006153
O27   O     O_2   0.243482 0.789363 0.344166 -0.559516
O28   O     O_R   0.384433 0.804977 0.197894 -0.781707
H10   H     H_    0.320631 0.748172 0.139962 0.376362

loop_
_geom_bond_atom_site_label_1
_geom_bond_atom_site_label_2
_ccdc_geom_bond_type
C6    C32   S    
O16   H4    S    
C15   C18   A    
C25   O10   S    
C33   O25   D    
C3    C23   A    
C19   C20   A    
O10   H1    S    
C13   C25   S    
C7    C33   S    
C28   O15   D    
O3    Zn2   S    
C4    C24   A    
C29   O18   S    
C31   O22   S    
C15   C16   A    
O7    Zn2   S    
C32   O24   S    
C25   O9    D    
C26   O12   S    
C30   O20   S    
C19   Cl1   S    
O2    Zn1   S    
C16   C17   A    
C27   O14   S    
C14   C26   S    
C18   C20   A    
C28   O16   S    
O18   H5    S    
C13   C14   A    
C9    O7    A    
C8    N1    A    
C33   O26   S    
C32   O23   D    
O22   H7    S    
C21   C27   S    
C22   C28   S    
C34   O28   S    
O14   H3    S    
O6    Zn1   S    
O28   H10   S    
C5    C31   S    
C5    C7    A    
C6    C8    A    
O1    Zn1   S    
C34   O27   D    
C4    C30   S    
O20   H6    S    
C12   Cl4   S    
O26   H9    S    
C20   Cl2   S    
C11   C16   A    
O12   H2    S    
C12   C15   A    
C1    O3    A    
C10   O8    A    
C11   Cl3   S    
N1    Zn1   S    
C3    C29   S    
C9    C17   S    
C12   C14   A    
C31   O21   D    
C8    C34   S    
O5    Zn1   S    
C26   O11   D    
C3    C4    A    
N2    Zn2   S    
C7    N1    A    
O4    Zn2   S    
C2    O4    A    
O24   H8    S    
C11   C13   A    
C29   O17   D    
C6    N2    A    
C10   C18   S    
C17   C19   A    
O8    Zn2   S    
C30   O19   D    
C9    O5    A    
C5    N2    A    
C10   O6    A    
C1    C24   S    
C27   O13   D    
C21   C24   A    
C2    C23   S    
C1    O1    A    
C22   C23   A    
C2    O2    A    
C21   C22   A    
