data_mof_unit_8900.cif
_audit_creation_date              2013-03-05T15:59:35-0500
_audit_creation_method            fapswitch 2.2
_symmetry_space_group_name_H-M    P1
_symmetry_Int_Tables_number       1
_space_group_crystal_system       triclinic
_cell_length_a                    12.649268
_cell_length_b                    13.002597
_cell_length_c                    15.718711
_cell_angle_alpha                 91.277731
_cell_angle_beta                  102.202119
_cell_angle_gamma                 82.855721
_cell_volume                      2507.26195502

loop_
_atom_site_label
_atom_site_type_symbol
_atom_site_description
_atom_site_fract_x
_atom_site_fract_y
_atom_site_fract_z
_atom_type_partial_charge
O1    O     O_R   0.366730 0.627160 0.478790 -0.575361
O2    O     O_R   0.544830 0.662520 0.507160 -0.626900
C1    C     C_R   0.439099 0.691603 0.492863 0.961168
O3    O     O_R   0.410960 0.482330 0.609040 -0.566632
O4    O     O_R   0.589060 0.517690 0.637410 -0.563997
C2    C     C_R   0.501035 0.499436 0.661734 0.937321
Zn1   Zn    Zn3+2 0.381080 0.476390 0.481050 1.030226
Zn2   Zn    Zn3+2 0.618920 0.523610 0.518950 0.997143
O5    O     O_R   0.455170 0.337480 0.492840 -0.578168
O6    O     O_R   0.633270 0.372840 0.521210 -0.648488
O7    O     O_R   0.410940 0.482310 0.362590 -0.605637
O8    O     O_R   0.589040 0.517670 0.390960 -0.638855
C3    C     C_R   0.560307 0.308242 0.510646 0.917001
C4    C     C_R   0.499328 0.499457 0.338269 0.900360
C5    C     C_3   0.403643 0.540448 0.012052 -0.181871
C6    C     C_3   0.485221 0.592947 0.971142 -0.209203
H1    H     H_    0.471942 0.673495 0.945612 0.208340
H2    H     H_    0.323273 0.576678 0.022678 0.182222
H3    H     H_    0.647369 0.589568 0.081923 0.180377
C7    C     C_1   0.503208 0.498045 0.750920 0.023449
C8    C     C_1   0.498262 0.497456 0.249134 -0.140609
C9    C     C_3   0.424107 0.442799 0.958108 0.311674
C10   C     C_3   0.503275 0.494455 0.917043 -0.042332
C11   C     C_3   0.518162 0.394952 0.030468 -0.284084
C12   C     C_3   0.499975 0.494384 0.083222 0.074758
C13   C     C_3   0.596769 0.449627 0.989642 0.307126
C14   C     C_3   0.581433 0.547481 0.044527 -0.176621
C15   C     C_1   0.503930 0.496435 0.826280 0.148160
C16   C     C_1   0.498513 0.495789 0.173840 0.023451
H4    H     H_    0.531508 0.314148 0.055426 0.192483
C17   C     C_R   0.676243 0.080197 0.652468 -0.147211
H5    H     H_    0.720629 0.232562 0.643854 0.196173
H6    H     H_    0.647829 0.907639 0.728177 0.221864
H7    H     H_    0.734630 0.063060 0.713085 0.172991
C18   C     C_R   0.594843 0.199631 0.533422 -0.188033
C19   C     C_R   0.299516 0.837455 0.434350 -0.361484
C20   C     C_R   0.262502 0.943838 0.429275 0.431130
C21   C     C_R   0.334087 0.013590 0.468632 0.469816
C22   C     C_R   0.439772 0.974873 0.514458 -0.099506
C23   C     C_R   0.456905 0.872597 0.544064 -0.118776
C24   C     C_R   0.522952 0.037751 0.541276 0.012465
C25   C     C_R   0.600690 0.011843 0.618844 0.023151
C26   C     C_R   0.596947 0.920987 0.663845 -0.212609
C27   C     C_R   0.524787 0.849745 0.627319 0.336656
C28   C     C_R   0.530873 0.124705 0.492205 0.321626
C29   C     C_R   0.670571 0.175432 0.611628 -0.242280
C30   C     C_R   0.397526 0.801385 0.492056 -0.084516
H8    H     H_    0.250338 0.783454 0.396103 0.182331
C31   C     C_R   0.081804 0.366902 0.357712 0.382144
H9    H     H_    0.250549 0.355446 0.347337 0.199177
H10   H     H_    0.873738 0.329636 0.338835 0.196944
N1    N     N_R   0.222180 0.444680 0.455580 -0.182759
C32   C     C_R   0.808158 0.628936 0.604602 0.429298
C33   C     C_R   0.899298 0.678007 0.601769 -0.263052
C34   C     C_R   0.970139 0.637208 0.550723 -0.188478
C35   C     C_R   0.954294 0.543486 0.507120 0.073728
C36   C     C_R   0.849820 0.509946 0.495990 0.168030
C37   C     C_R   0.036451 0.485709 0.470641 -0.156521
C38   C     C_R   0.005091 0.414057 0.403899 0.028191
C39   C     C_R   0.898361 0.387903 0.386831 -0.188158
C40   C     C_R   0.824111 0.430698 0.435971 -0.183317
C41   C     C_R   0.149160 0.493614 0.500022 0.321007
C42   C     C_R   0.190603 0.386567 0.383938 -0.157157
N2    N     N_R   0.776980 0.554790 0.543960 -0.182947
H11   H     H_    0.037844 0.678566 0.547523 0.201025
H12   H     H_    0.920182 0.742702 0.643918 0.203279
H13   H     H_    0.747466 0.400573 0.425453 0.209566
N3    N     N_R   0.486000 0.129476 0.399290 0.209258
O9    O     O_R   0.468593 0.216455 0.356365 -0.413642
O10   O     O_R   0.483457 0.043951 0.354646 -0.417153
O11   O     O_3   0.293664 0.116127 0.477679 -0.643134
C43   C     C_3   0.261969 0.125744 0.559131 0.053952
H14   H     H_    0.335368 0.120280 0.613190 0.157619
H15   H     H_    0.211009 0.064302 0.568330 0.139599
C44   C     C_3   0.194940 0.230459 0.564433 -0.362020
H16   H     H_    0.248087 0.292284 0.565094 0.253989
H17   H     H_    0.126557 0.240432 0.506831 0.212486
C45   C     C_3   0.148080 0.239090 0.646496 -0.779922
H18   H     H_    0.094673 0.177642 0.647544 0.241525
H19   H     H_    0.098453 0.315596 0.647504 0.295211
H20   H     H_    0.214874 0.231713 0.705412 0.299720
O12   O     O_3   0.158786 0.981834 0.384871 -0.652439
C46   C     C_3   0.079518 0.939607 0.420324 0.075983
H21   H     H_    0.104478 0.929834 0.492537 0.141082
H22   H     H_    0.065258 0.862930 0.390213 0.159087
C47   C     C_3   0.972881 0.012701 0.400181 -0.353071
H23   H     H_    0.987761 0.091091 0.426179 0.222778
H24   H     H_    0.943008 0.019064 0.328487 0.232751
C48   C     C_3   0.885518 0.973887 0.440728 -0.888899
H25   H     H_    0.868758 0.895787 0.415355 0.268130
H26   H     H_    0.808988 0.028116 0.424174 0.280525
H27   H     H_    0.912364 0.969828 0.512742 0.260727
N4    N     N_R   0.504282 0.769384 0.681664 0.197555
O13   O     O_R   0.568143 0.748213 0.757213 -0.338506
O14   O     O_R   0.408633 0.737506 0.667194 -0.389209
O15   O     O_3   0.046651 0.313399 0.281623 -0.621930
C49   C     C_3   0.102175 0.211779 0.283597 0.065834
H28   H     H_    0.040007 0.157011 0.274098 0.183695
H29   H     H_    0.159747 0.189864 0.346191 0.203525
C50   C     C_3   0.162622 0.198241 0.208727 -0.313131
H30   H     H_    0.104150 0.217719 0.146148 0.260954
H31   H     H_    0.225963 0.251793 0.217459 0.239970
C51   C     C_3   0.216823 0.087207 0.204546 -0.769685
H32   H     H_    0.276192 0.066337 0.266216 0.308038
H33   H     H_    0.260784 0.080027 0.150180 0.268448
H34   H     H_    0.154597 0.032385 0.193347 0.259936
N5    N     N_R   0.189124 0.540161 0.582031 0.214261
O16   O     O_R   0.172109 0.502444 0.653232 -0.352605
O17   O     O_R   0.232051 0.626264 0.585204 -0.351003
N6    N     N_R   0.761451 0.645344 0.679609 0.232667
O18   O     O_R   0.765408 0.565742 0.729310 -0.303562
O19   O     O_R   0.762456 0.735859 0.716309 -0.402693
N7    N     N_R   0.702983 0.400266 0.978776 0.227697
O20   O     O_R   0.775862 0.365833 0.046625 -0.350346
O21   O     O_R   0.725686 0.390186 0.901882 -0.348205
N8    N     N_R   0.337327 0.385684 0.911990 0.227805
O22   O     O_R   0.275287 0.345656 0.955194 -0.355036
O23   O     O_R   0.321306 0.374167 0.828036 -0.368907

loop_
_geom_bond_atom_site_label_1
_geom_bond_atom_site_label_2
_geom_bond_distance
_ccdc_geom_bond_type
C32   N6    1.427069 S    
C37   C41   1.418604 A    
C5    H2    1.110171 S    
C34   C35   1.400154 A    
N4    O13   1.300889 A    
C31   C42   1.404387 A    
C17   C25   1.399792 A    
C23   C30   1.403377 A    
C24   C25   1.412854 A    
C44   H16   1.108772 S    
C49   H28   1.110273 S    
C22   C24   1.401536 A    
C32   C33   1.394307 A    
C35   C36   1.417534 A    
Zn1   O7    1.981593 S    
C13   C14   1.536626 S    
C4    C8    1.397998 S    
C19   C20   1.402509 A    
C11   C13   1.540076 S    
Zn1   N1    2.056420 S    
C3    C18   1.454771 S    
C43   C44   1.522288 S    
C21   C22   1.414618 A    
O7    C4    1.300908 A    
C47   H24   1.111744 S    
C5    C12   1.538548 S    
C5    C6    1.555506 S    
N8    O22   1.300216 A    
C19   C30   1.406666 A    
C10   C13   1.525875 S    
O5    C3    1.308872 A    
N6    O18   1.300297 A    
C27   N4    1.445565 S    
C34   H11   1.076633 S    
C33   C34   1.376555 A    
C5    C9    1.536596 S    
N8    O23   1.300245 A    
C6    H1    1.110247 S    
C17   C29   1.394455 A    
N5    O16   1.300761 A    
O6    C3    1.306408 A    
C48   H26   1.110828 S    
H3    C14   1.110211 S    
C6    C14   1.555390 S    
C9    N8    1.457517 S    
C38   C39   1.402607 A    
N4    O14   1.300612 A    
O1    Zn1   1.946600 S    
H9    C42   1.080480 S    
N5    O17   1.299235 A    
O3    Zn1   1.968554 S    
C49   H29   1.112475 S    
C11   H4    1.110206 S    
C12   C16   1.428101 S    
H6    C26   1.082525 S    
C11   C12   1.539784 S    
C43   H15   1.116820 S    
C22   C23   1.394743 A    
C45   H18   1.111111 S    
N3    O9    1.300806 A    
C41   N5    1.431574 S    
C7    C15   1.183286 T    
C37   C38   1.413639 A    
C8    C16   1.183892 T    
N1    C42   1.358544 A    
C50   C51   1.525554 S    
C39   C40   1.394951 A    
O1    C1    1.298446 A    
C26   C27   1.409238 A    
C20   C21   1.402734 A    
C40   H13   1.069817 S    
C46   H21   1.117687 S    
Zn2   O8    1.968553 S    
O15   C49   1.414901 S    
C28   N3    1.450491 S    
C50   H31   1.110708 S    
C17   H7    1.083537 S    
C51   H33   1.110242 S    
C10   C15   1.429284 S    
C48   H27   1.111371 S    
C44   H17   1.109554 S    
Zn2   N2    2.044150 S    
O3    C2    1.299847 A    
C46   H22   1.112738 S    
O8    C4    1.300231 A    
C6    C10   1.541476 S    
C9    C11   1.540006 S    
C20   O12   1.385453 S    
C25   C26   1.401268 A    
C18   C28   1.403552 A    
C49   C50   1.529144 S    
C36   N2    1.377654 A    
N7    O20   1.300277 A    
Zn1   O5    1.922355 S    
C21   O11   1.382731 S    
C47   H23   1.112636 S    
H5    C29   1.083497 S    
Zn2   O6    1.946600 S    
O2    Zn2   1.922355 S    
C43   H14   1.114408 S    
C47   C48   1.527394 S    
O4    Zn2   1.981592 S    
C36   C40   1.402816 A    
C33   H12   1.082953 S    
C12   C14   1.539121 S    
C2    C7    1.396823 S    
C31   C38   1.405193 A    
O2    C1    1.316484 A    
C13   N7    1.457317 S    
O11   C43   1.418790 S    
N1    C41   1.361149 A    
C45   H20   1.110731 S    
O4    C2    1.300785 A    
C1    C30   1.457942 S    
C50   H30   1.111636 S    
C32   N2    1.374156 A    
C35   C37   1.418324 A    
C19   H8    1.083117 S    
C51   H34   1.110877 S    
C45   H19   1.109980 S    
C31   O15   1.388235 S    
C44   C45   1.525804 S    
N6    O19   1.299399 A    
C23   C27   1.420237 A    
C46   C47   1.528730 S    
N3    O10   1.301808 A    
O12   C46   1.415686 S    
C51   H32   1.109318 S    
C24   C28   1.408210 A    
C9    C10   1.526604 S    
H10   C39   1.083527 S    
C48   H25   1.111310 S    
C18   C29   1.404378 A    
N7    O21   1.300331 A    
