data_mof_unit_46036.cif
_audit_creation_date              2013-03-05T16:32:59-0500
_audit_creation_method            fapswitch 2.2
_symmetry_space_group_name_H-M    P1
_symmetry_Int_Tables_number       1
_space_group_crystal_system       triclinic
_cell_length_a                    23.426438
_cell_length_b                    10.902203
_cell_length_c                    9.598747
_cell_angle_alpha                 89.170973
_cell_angle_beta                  89.275101
_cell_angle_gamma                 91.134011
_cell_volume                      2450.57592594

loop_
_atom_site_label
_atom_site_type_symbol
_atom_site_description
_atom_site_fract_x
_atom_site_fract_y
_atom_site_fract_z
_atom_type_partial_charge
O1    O     O_R   0.500000 0.319640 0.618810 -0.557585
O2    O     O_R   0.500010 0.319680 0.381230 -0.589252
C1    C     C_R   0.502528 0.262604 0.500443 0.892334
O3    O     O_R   0.417880 0.499940 0.618820 -0.500327
O4    O     O_R   0.417880 0.499980 0.381240 -0.595661
C2    C     C_R   0.391147 0.498803 0.500875 0.897085
Cu1   Cu    Cu3+1 0.500000 0.499980 0.640670 1.052764
Cu2   Cu    Cu3+1 0.500000 0.500020 0.359330 1.019889
O5    O     O_R   0.499990 0.680320 0.618770 -0.563934
O6    O     O_R   0.500000 0.680360 0.381190 -0.568736
O7    O     O_R   0.582120 0.500020 0.618760 -0.604254
O8    O     O_R   0.582120 0.500060 0.381180 -0.566038
C3    C     C_R   0.503219 0.737032 0.498840 0.791514
C4    C     C_R   0.608796 0.500326 0.499390 0.831852
C5    C     C_R   0.880290 0.599174 0.413000 0.593472
N1    N     N_R   0.850817 0.553400 0.526037 -0.471251
C6    C     C_R   0.877569 0.516847 0.644425 0.575513
C7    C     C_R   0.938003 0.518542 0.650727 -0.078819
C8    C     C_R   0.969522 0.563539 0.532629 -0.041670
C9    C     C_R   0.940431 0.609887 0.414934 -0.113745
C10   C     C_R   0.967798 0.474282 0.768707 -0.154157
C11   C     C_R   0.027725 0.470733 0.766821 0.302019
C12   C     C_R   0.059277 0.513601 0.648317 -0.117456
C13   C     C_R   0.030047 0.560653 0.531208 -0.041488
C14   C     C_R   0.061388 0.603584 0.411985 -0.082069
C15   C     C_R   0.031964 0.659125 0.299864 -0.151030
C16   C     C_R   0.972047 0.662635 0.301613 0.301964
C17   C     C_R   0.119567 0.511130 0.642906 0.588188
N2    N     N_R   0.148499 0.543825 0.523559 -0.471988
C18   C     C_R   0.121313 0.589051 0.409667 0.581443
O9    O     O_2   0.851085 0.630301 0.297969 -0.444669
O10   O     O_2   0.845243 0.477112 0.753880 -0.507243
O11   O     O_2   0.149621 0.476556 0.755277 -0.425467
O12   O     O_2   0.152536 0.617262 0.294165 -0.488008
C19   C     C_R   0.244839 0.633194 0.524808 -0.079181
H1    H     H_    0.225908 0.722562 0.535882 0.169912
C20   C     C_R   0.303921 0.622851 0.518295 -0.117665
C21   C     C_R   0.328598 0.506587 0.503867 -0.162607
C22   C     C_R   0.293046 0.400096 0.492458 0.281373
C23   C     C_R   0.233048 0.412768 0.500390 -0.101337
C24   C     C_R   0.209384 0.529417 0.517024 0.233617
C25   C     C_R   0.765722 0.424333 0.478059 -0.103330
C26   C     C_R   0.705905 0.410265 0.469223 0.279565
C27   C     C_R   0.671102 0.511009 0.499311 -0.134283
C28   C     C_R   0.695832 0.622698 0.539812 -0.271201
H2    H     H_    0.669219 0.699678 0.565165 0.155957
C29   C     C_R   0.754848 0.636081 0.548400 -0.052047
H3    H     H_    0.773475 0.723060 0.579284 0.173349
C30   C     C_R   0.789938 0.537651 0.517660 0.245135
C31   C     C_R   0.490088 0.059720 0.618453 0.069746
C32   C     C_R   0.506502 0.128885 0.499181 -0.131329
C33   C     C_R   0.524063 0.066422 0.376706 -0.079173
C34   C     C_R   0.526388 0.937701 0.377850 -0.086116
C35   C     C_R   0.506584 0.870332 0.495970 -0.178121
C36   C     C_R   0.489694 0.932579 0.614383 0.102342
C37   C     C_3   0.513608 0.916985 0.756924 0.081205
C38   C     C_3   0.515054 0.057095 0.763654 -0.250566
H4    H     H_    0.556117 0.872889 0.756367 0.102691
C39   C     C_R   0.541773 0.561836 0.071309 0.302394
N3    N     N_R   0.500360 0.500930 0.147930 -0.236946
C40   C     C_R   0.457473 0.443613 0.076560 -0.077543
C41   C     C_R   0.455469 0.449965 0.928786 0.364427
N4    N     N_R   0.500360 0.500890 0.852020 -0.248673
C42   C     C_R   0.542035 0.560791 0.924206 0.236623
C43   C     C_3   0.604266 0.535664 0.917092 -0.475618
C44   C     C_3   0.604135 0.535837 0.074758 -0.447319
H5    H     H_    0.613542 0.444109 0.873498 0.236389
H6    H     H_    0.629231 0.613612 0.869410 0.215791
H7    H     H_    0.613078 0.444252 0.120895 0.256596
H8    H     H_    0.629738 0.612766 0.118183 0.226535
C45   C     C_1   0.938332 0.427342 0.892906 0.511628
N5    N     N_1   0.915149 0.389856 0.992383 -0.162424
N6    N     N_R   0.680739 0.294188 0.432681 0.103648
O13   O     O_R   0.645794 0.287399 0.329006 -0.377084
O14   O     O_R   0.695397 0.193976 0.496945 -0.333346
C46   C     C_1   0.542595 0.131809 0.250462 0.403350
N7    N     N_1   0.557296 0.183173 0.149462 -0.256140
C47   C     C_1   0.555912 0.877436 0.264821 0.357402
N8    N     N_1   0.580275 0.830587 0.175246 -0.252299
N9    N     N_R   0.472914 0.855338 0.854006 0.153609
O15   O     O_R   0.486591 0.840291 0.983788 -0.363177
O16   O     O_R   0.424236 0.810896 0.811746 -0.295058
C48   C     C_1   0.477824 0.104553 0.874110 0.467996
N10   N     N_1   0.448915 0.137796 0.963944 -0.217811
C49   C     C_1   0.573310 0.110045 0.770103 0.238086
N11   N     N_1   0.619008 0.151879 0.775291 -0.189602
C50   C     C_1   0.416973 0.363840 0.148645 0.433318
N12   N     N_1   0.384423 0.298093 0.204180 -0.151602
N13   N     N_R   0.055896 0.416682 0.883951 0.160222
O17   O     O_R   0.073201 0.304201 0.877370 -0.274581
O18   O     O_R   0.056937 0.473019 0.002485 -0.314486
N14   N     N_R   0.404913 0.405458 0.862471 0.137309
O19   O     O_R   0.355863 0.452732 0.893420 -0.306844
O20   O     O_R   0.406111 0.307754 0.787042 -0.300928
C51   C     C_1   0.062051 0.720290 0.184572 0.509884
N15   N     N_1   0.085793 0.769300 0.092365 -0.151669
N16   N     N_R   0.943842 0.725742 0.190330 0.157967
O21   O     O_R   0.919296 0.829571 0.213944 -0.276886
O22   O     O_R   0.947876 0.686525 0.063263 -0.323382
C52   C     C_1   0.338324 0.734113 0.522857 0.346237
N17   N     N_1   0.365483 0.823782 0.525860 -0.188357
N18   N     N_R   0.317169 0.280665 0.471585 0.127443
O23   O     O_R   0.364182 0.249786 0.532088 -0.317882
O24   O     O_R   0.292683 0.202172 0.389474 -0.302996
C53   C     C_1   0.195099 0.306634 0.495127 0.435288
N19   N     N_1   0.164589 0.221987 0.491095 -0.183325
C54   C     C_1   0.802643 0.324414 0.442601 0.393054
N20   N     N_1   0.832291 0.244626 0.414220 -0.190340

loop_
_geom_bond_atom_site_label_1
_geom_bond_atom_site_label_2
_geom_bond_distance
_ccdc_geom_bond_type
C26   N6    1.435481 S    
C36   C37   1.493720 S    
C7    C10   1.421265 A    
N6    O13   1.298583 A    
C8    C9    1.418665 A    
C50   N12   1.156025 T    
N16   O21   1.301250 A    
Cu1   Cu2   2.700505 S    
C29   C30   1.397244 A    
C44   H8    1.110610 S    
C34   C35   1.410423 A    
C27   C28   1.400321 A    
Cu1   O7    1.932582 S    
C39   C42   1.412151 A    
C20   C21   1.411400 A    
C10   C45   1.451599 S    
C17   N2    1.362988 A    
C19   C20   1.391581 A    
C39   C44   1.494342 S    
C21   C22   1.421699 A    
O7    C4    1.298119 A    
C44   H7    1.111219 S    
C5    N1    1.361889 A    
C15   C51   1.451366 S    
C37   C38   1.529523 S    
C7    C8    1.421006 A    
O5    C3    1.299444 A    
N14   O19   1.301328 A    
C40   C50   1.438281 S    
C29   H3    1.082826 S    
C38   C49   1.473620 S    
N1    C6    1.362988 A    
C43   H5    1.112212 S    
C41   N14   1.431286 S    
C54   N20   1.157272 T    
C2    C21   1.469381 S    
N13   O18   1.301037 A    
N2    C18   1.363189 A    
C25   C54   1.446089 S    
C39   N3    1.365772 A    
C10   C11   1.405070 A    
N6    O14   1.301055 A    
N18   O23   1.299534 A    
O3    Cu1   1.937806 S    
N16   O22   1.301204 A    
C6    C7    1.417578 A    
C46   N7    1.157707 T    
C28   C29   1.390958 A    
C5    C9    1.411807 A    
C18   O12   1.348885 S    
C32   C33   1.427254 A    
C13   C14   1.420357 A    
N9    O16   1.302010 A    
C38   C48   1.470652 S    
C22   C23   1.416222 A    
C1    C32   1.462853 S    
C47   N8    1.156601 T    
C14   C15   1.420032 A    
C49   N11   1.157247 T    
N3    C40   1.368988 A    
O1    C1    1.304318 A    
C19   H1    1.084502 S    
C26   C27   1.411790 A    
C41   N4    1.379339 A    
C48   N10   1.156515 T    
Cu2   O8    1.937806 S    
C43   H6    1.111744 S    
N14   O20   1.297160 A    
C31   C32   1.406972 A    
C15   C16   1.404801 A    
C12   C17   1.413496 A    
N1    C30   1.436493 S    
N18   O24   1.301558 A    
Cu1   N4    2.028987 S    
O3    C2    1.300811 A    
C23   C24   1.407710 A    
O8    C4    1.302299 A    
C17   O11   1.348756 S    
C25   C26   1.410395 A    
C33   C34   1.405368 A    
C22   N18   1.445228 S    
C4    C27   1.461931 S    
C3    C35   1.453689 S    
C14   C18   1.415780 A    
Cu1   O5    1.974289 S    
C35   C36   1.389444 A    
C16   N16   1.437194 S    
C12   C13   1.418559 A    
N2    C24   1.438725 S    
O1    Cu1   1.980285 S    
C31   C38   1.518406 S    
O2    Cu2   1.974289 S    
N9    O15   1.299123 A    
C33   C46   1.454138 S    
O6    C3    1.297390 A    
O4    Cu2   1.932587 S    
C5    O9    1.349022 S    
C9    C16   1.416723 A    
C53   N19   1.157405 T    
C31   C36   1.387088 A    
C37   N9    1.470695 S    
C42   C43   1.489578 S    
O2    C1    1.297169 A    
C45   N5    1.157803 T    
Cu2   N3    2.028965 S    
O4    C2    1.300813 A    
C52   N17   1.156715 T    
C11   N13   1.435911 S    
C37   H4    1.114326 S    
C8    C13   1.418757 A    
C40   C41   1.420546 A    
C19   C24   1.393681 A    
C25   C30   1.408504 A    
C34   C47   1.451465 S    
N4    C42   1.365548 A    
C28   H2    1.083994 S    
Cu2   O6    1.980284 S    
C43   C44   1.513391 S    
C51   N15   1.157714 T    
C6    O10   1.348594 S    
C11   C12   1.417155 A    
N13   O17   1.301304 A    
C20   C52   1.444483 S    
C23   C53   1.447037 S    
