data_mof_unit_10888.cif
_audit_creation_date              2012-12-10T16:48:48-0500
_audit_creation_method            fapswitch 2.2
_symmetry_space_group_name_H-M    P1
_symmetry_Int_Tables_number       1
_space_group_crystal_system       triclinic
_cell_length_a                    17.245836
_cell_length_b                    8.678757
_cell_length_c                    7.46395
_cell_angle_alpha                 103.188512
_cell_angle_beta                  90.156988
_cell_angle_gamma                 93.541306
_cell_volume                      1085.44254783

loop_
_atom_site_label
_atom_site_type_symbol
_atom_type_description
_atom_site_fract_x
_atom_site_fract_y
_atom_site_fract_z
_atom_type_partial_charge
C1    C     C_R   0.498043 0.199741 0.453350 0.882344
C2    C     C_R   0.501973 0.800259 0.546648 0.876708
C3    C     C_2   0.496901 0.031588 0.427370 -0.271248
C4    C     C_2   0.503116 0.968413 0.572628 -0.269934
C5    C     C_R   0.351227 0.496099 0.525462 0.861392
C6    C     C_R   0.648767 0.503797 0.474517 0.859991
C7    C     C_R   0.267101 0.488533 0.544197 -0.218996
C8    C     C_R   0.732872 0.510776 0.455614 -0.210798
C9    C     C_R   0.218317 0.372688 0.424272 0.418488
C10   C     C_R   0.781810 0.627091 0.574477 0.384049
C11   C     C_R   0.138108 0.380198 0.439128 -0.258062
C12   C     C_R   0.862000 0.619285 0.559067 -0.280518
C13   C     C_R   0.106010 0.500038 0.571111 -0.038145
C14   C     C_R   0.893881 0.498532 0.427882 -0.028320
C15   C     C_R   0.154555 0.607307 0.697729 0.675470
C16   C     C_R   0.845166 0.390618 0.302410 0.682134
C17   C     C_R   0.234742 0.601640 0.683822 -0.279934
C18   C     C_R   0.765016 0.396695 0.316710 -0.266002
C19   C     C_2   0.021863 0.515340 0.576592 -0.103512
C20   C     C_2   0.977996 0.483011 0.422176 -0.109386
Cu1   Cu    Cu3+1 0.508700 0.517250 0.683000 1.187625
Cu2   Cu    Cu3+1 0.491300 0.482750 0.317000 1.186178
H1    H     H_    0.727887 0.308751 0.223059 0.205943
H2    H     H_    0.271719 0.689204 0.778340 0.192982
H3    H     H_    0.003694 0.439734 0.288912 0.201761
H4    H     H_    0.996093 0.558607 0.709786 0.200838
H5    H     H_    0.899815 0.708020 0.649191 0.200541
H6    H     H_    0.100507 0.291867 0.347793 0.225482
H7    H     H_    0.490741 0.959503 0.287707 0.207012
H8    H     H_    0.509276 0.040498 0.712291 0.208483
N1    N     N_2   0.478180 0.456750 0.041980 0.229300
N2    N     N_2   0.521820 0.543250 0.958020 0.229995
O1    O     O_R   0.505650 0.286040 0.618880 -0.560752
O2    O     O_R   0.494350 0.713960 0.381120 -0.562146
O3    O     O_R   0.490960 0.256910 0.309800 -0.555359
O4    O     O_R   0.509040 0.743090 0.690200 -0.556591
O5    O     O_R   0.394600 0.516230 0.672450 -0.561180
O6    O     O_R   0.605400 0.483770 0.327550 -0.560570
O7    O     O_R   0.379910 0.487100 0.363380 -0.535713
O8    O     O_R   0.620090 0.512900 0.636620 -0.533335
S1    S     S_3+6 0.254374 0.214058 0.258926 0.050669
O9    O     O_2   0.281800 0.274258 0.095034 -0.210231
O10   O     O_2   0.320874 0.147718 0.340614 -0.308235
O11   O     O_3   0.184019 0.069140 0.190265 -0.492142
H9    H     H_    0.208553 0.987467 0.096762 0.405358
S2    S     S_3+6 0.745830 0.786826 0.738514 0.065201
O12   O     O_2   0.680014 0.853786 0.655192 -0.268614
O13   O     O_2   0.716770 0.728264 0.902279 -0.220637
O14   O     O_3   0.816005 0.932129 0.808184 -0.463832
H10   H     H_    0.842939 0.903788 0.912460 0.376358
F1    F     F_    0.124462 0.721973 0.829220 -0.645113
F2    F     F_    0.875051 0.275014 0.171702 -0.627448
F3    F     F_    0.428612 0.350194 0.935442 -0.509924
F4    F     F_    0.571379 0.649810 0.064575 -0.507626

loop_
_geom_bond_atom_site_label_1
_geom_bond_atom_site_label_2
_ccdc_geom_bond_type
C10   S2    S    
C2    C4    S    
C6    O6    A    
C15   C17   A    
C14   C16   A    
C5    O5    A    
C8    C18   A    
C11   C13   A    
S1    O9    D    
C9    S1    S    
C19   C20   D    
C9    C11   A    
C2    O2    A    
C5    O7    A    
C1    O1    A    
Cu1   O4    S    
N1    N2    D    
Cu1   Cu2   S    
N1    F3    S    
Cu2   O3    S    
S1    O10   D    
S2    O14   S    
Cu1   O8    S    
C10   C12   A    
C11   H6    S    
Cu2   O7    S    
N2    F4    S    
S1    O11   S    
C12   C14   A    
C15   F1    S    
C13   C15   A    
Cu2   O2    S    
Cu1   N2    S    
S2    O13   D    
C17   H2    S    
Cu1   O1    S    
C20   H3    S    
C13   C19   S    
C12   H5    S    
C18   H1    S    
Cu2   O6    S    
C7    C9    A    
C6    O8    A    
Cu1   O5    S    
O11   H9    S    
C1    O3    A    
C14   C20   S    
C3    H7    S    
O14   H10   S    
Cu2   N1    S    
C2    O4    A    
C5    C7    S    
C19   H4    S    
S2    O12   D    
C6    C8    S    
C1    C3    S    
C16   C18   A    
C4    H8    S    
C3    C4    D    
C16   F2    S    
C8    C10   A    
C7    C17   A    
