data_mof_unit_45864.cif
_audit_creation_date              2012-12-10T20:42:39-0500
_audit_creation_method            fapswitch 2.2
_symmetry_space_group_name_H-M    P1
_symmetry_Int_Tables_number       1
_space_group_crystal_system       triclinic
_cell_length_a                    8.868508
_cell_length_b                    10.691647
_cell_length_c                    9.896721
_cell_angle_alpha                 89.070792
_cell_angle_beta                  90.039921
_cell_angle_gamma                 90.999874
_cell_volume                      938.130411018

loop_
_atom_site_label
_atom_site_type_symbol
_atom_type_description
_atom_site_fract_x
_atom_site_fract_y
_atom_site_fract_z
_atom_type_partial_charge
C1    C     C_R   0.504690 0.259771 0.500525 0.853055
C2    C     C_R   0.512578 0.937240 0.372498 -0.237115
C3    C     C_R   0.534658 0.871067 0.493860 -0.078084
C4    C     C_R   0.586175 0.934174 0.607348 0.038345
C5    C     C_3   0.545324 0.919353 0.752766 -0.562068
C6    C     C_3   0.537677 0.061487 0.755334 0.376801
C7    C     C_R   0.376354 0.456329 0.071784 0.032045
C8    C     C_R   0.611592 0.560242 0.071434 0.561313
C9    C     C_R   0.612434 0.557564 0.926742 -0.242356
C10   C     C_R   0.378291 0.453757 0.929410 0.135635
C11   C     C_3   0.318095 0.322013 0.928706 -0.180254
C12   C     C_R   0.218882 0.499819 0.499986 0.922476
C13   C     C_3   0.305791 0.328253 0.083520 -0.138141
C14   C     C_R   0.507046 0.739827 0.498756 0.881591
C15   C     C_R   0.781144 0.500357 0.500077 0.934374
C16   C     C_1   0.065528 0.500152 0.500135 -0.216670
C17   C     C_1   0.934525 0.500432 0.500248 -0.203386
C18   C     C_R   0.582481 0.062165 0.609705 0.111707
C19   C     C_R   0.528672 0.128189 0.497393 -0.150744
C20   C     C_R   0.510101 0.066008 0.374248 -0.229006
H1    H     H_    0.481542 0.114913 0.281579 0.155482
H2    H     H_    0.409023 0.259589 0.898397 0.182202
H3    H     H_    0.383758 0.263036 0.135316 0.151253
H4    H     H_    0.483651 0.890588 0.279429 0.163399
H5    H     H_    0.433463 0.872972 0.768989 0.181449
H6    H     H_    0.639298 0.879170 0.812804 0.209980
H7    H     H_    0.422523 0.097730 0.769143 0.063373
H8    H     H_    0.705266 0.599741 0.870675 0.164381
N1    N     N_R   0.499010 0.499140 0.142800 -0.154481
N2    N     N_R   0.499010 0.499180 0.857150 -0.122908
O1    O     O_R   0.500020 0.316790 0.614690 -0.611826
O2    O     O_R   0.500000 0.316760 0.385350 -0.631878
O3    O     O_R   0.285350 0.500020 0.614650 -0.629459
O4    O     O_R   0.285340 0.499980 0.385310 -0.624327
O5    O     O_R   0.500000 0.683240 0.614650 -0.617101
O6    O     O_R   0.499980 0.683210 0.385310 -0.606306
O7    O     O_R   0.714660 0.500020 0.614690 -0.619393
O8    O     O_R   0.714650 0.499980 0.385350 -0.556136
Zn1   Zn    Zn3+2 0.500010 0.500020 0.653130 0.945566
Zn2   Zn    Zn3+2 0.499990 0.499980 0.346870 0.971258
C21   C     C_3   0.145973 0.328730 0.147143 -0.305639
C22   C     C_3   0.112809 0.205674 0.224616 -0.401099
C23   C     C_3   0.950184 0.198401 0.275024 -0.857486
H9    H     H_    0.927840 0.276381 0.344374 0.268898
H10   H     H_    0.870585 0.203163 0.188592 0.255925
H11   H     H_    0.930376 0.108584 0.330659 0.250607
H12   H     H_    0.133361 0.124673 0.158571 0.217111
H13   H     H_    0.189942 0.198531 0.312951 0.226445
H14   H     H_    0.136433 0.406327 0.218449 0.234973
H15   H     H_    0.056436 0.347063 0.072137 0.206801
O9    O     O_3   0.651143 0.118667 0.834804 -0.578538
C24   C     C_3   0.624516 0.094728 0.973775 -0.360103
H16   H     H_    0.697851 0.017899 0.009420 0.178880
H17   H     H_    0.504931 0.070454 0.999235 0.130224
H18   H     H_    0.655796 0.179891 0.030608 0.186271
O10   O     O_3   0.728499 0.616430 0.141988 -0.570081
C25   C     C_3   0.742729 0.743889 0.103853 -0.342267
H19   H     H_    0.807393 0.793382 0.183395 0.199134
H20   H     H_    0.807239 0.754891 0.008127 0.151001
H21   H     H_    0.631446 0.790185 0.094698 0.139053
C26   C     C_3   0.177000 0.304573 0.838836 -0.341695
C27   C     C_3   0.099862 0.175211 0.856255 -0.393818
C28   C     C_3   0.005051 0.142376 0.732347 -0.807149
H22   H     H_    0.919389 0.215185 0.713138 0.290937
H23   H     H_    0.946207 0.050995 0.749758 0.268443
H24   H     H_    0.078134 0.134921 0.641771 0.233907
H25   H     H_    0.185129 0.101599 0.872225 0.207264
H26   H     H_    0.023839 0.173921 0.944982 0.249274
H27   H     H_    0.094626 0.380483 0.852539 0.201535
H28   H     H_    0.217184 0.311447 0.733162 0.237143

loop_
_geom_bond_atom_site_label_1
_geom_bond_atom_site_label_2
_ccdc_geom_bond_type
C26   H28   S    
C8    C9    A    
C7    C10   A    
O5    Zn1   S    
C23   H9    S    
C28   H23   S    
C15   O8    A    
C27   C28   S    
C7    N1    A    
C6    O9    S    
C11   C13   S    
C21   C22   S    
C10   N2    A    
C11   H2    S    
O10   C25   S    
C19   C20   A    
C24   H18   S    
C27   H26   S    
C4    C18   A    
C8    O10   S    
C13   C21   S    
C2    C3    A    
C28   H24   S    
O7    Zn1   S    
C22   H13   S    
C24   H16   S    
O8    Zn2   S    
C5    C6    S    
C23   H10   S    
C25   H19   S    
O3    Zn1   S    
C3    C14   S    
C27   H25   S    
O4    Zn2   S    
C8    N1    A    
C9    N2    A    
N1    Zn2   S    
C21   H14   S    
O1    Zn1   S    
N2    Zn1   S    
C22   H12   S    
O2    Zn2   S    
C2    H4    S    
C26   C27   S    
C6    C18   S    
C23   H11   S    
C5    H5    S    
C25   H20   S    
C1    C19   S    
C10   C11   S    
C2    C20   A    
O9    C24   S    
C12   C16   S    
C21   H15   S    
C1    O1    A    
O6    Zn2   S    
C20   H1    S    
C13   H3    S    
C18   C19   A    
C22   C23   S    
C26   H27   S    
C14   O5    A    
C15   C17   S    
C6    H7    S    
C4    C5    S    
C14   O6    A    
C7    C13   S    
C11   C26   S    
C12   O3    A    
C28   H22   S    
C12   O4    A    
C1    O2    A    
C15   O7    A    
C3    C4    A    
C5    H6    S    
C9    H8    S    
C24   H17   S    
C16   C17   T    
C25   H21   S    
