data_mof_unit_13629.cif
_audit_creation_date              2012-10-26T18:27:10-0400
_audit_creation_method            fapswitch 2.2
_symmetry_space_group_name_H-M    P1
_symmetry_Int_Tables_number       1
_space_group_crystal_system       triclinic
_cell_length_a                    15.073696
_cell_length_b                    11.302922
_cell_length_c                    9.8043
_cell_angle_alpha                 90.950218
_cell_angle_beta                  88.180076
_cell_angle_gamma                 92.975756
_cell_volume                      1667.14482439

loop_
_atom_site_label
_atom_site_type_symbol
_atom_type_description
_atom_site_fract_x
_atom_site_fract_y
_atom_site_fract_z
_atom_type_partial_charge
C1    C     C_R   0.499073 0.266020 0.499125 0.581072
C2    C     C_R   0.179869 0.396939 0.518932 0.237382
C3    C     C_R   0.232338 0.502964 0.507363 -0.001840
C4    C     C_R   0.329117 0.498725 0.502148 0.537005
C5    C     C_R   0.191524 0.612577 0.499987 0.251953
C6    C     C_2   0.514575 0.935500 0.402175 0.217105
C7    C     C_2   0.528610 0.863587 0.508590 0.258608
C8    C     C_2   0.534468 0.067017 0.410091 0.307520
C9    C     C_2   0.487418 0.134514 0.497904 0.356315
C10   C     C_2   0.515169 0.409621 0.921574 0.503114
C11   C     C_2   0.484933 0.407556 0.070156 0.369964
C12   C     C_R   0.909853 0.613124 0.508277 0.024384
C13   C     C_R   0.506307 0.733925 0.501390 0.547328
C14   C     C_R   0.670494 0.499661 0.497655 0.504730
C15   C     C_R   0.815737 0.608931 0.519860 0.257001
C16   C     C_R   0.767043 0.502845 0.490148 0.010768
C17   C     C_R   0.811089 0.399962 0.455304 0.258429
C18   C     C_R   0.903186 0.399417 0.473479 0.033104
C19   C     C_R   0.953352 0.506683 0.492532 -0.111258
C20   C     C_R   0.946303 0.293183 0.473566 0.251572
C21   C     C_R   0.038994 0.293985 0.459539 0.274896
C22   C     C_R   0.089205 0.398211 0.490330 0.018509
C23   C     C_R   0.046920 0.506635 0.498061 -0.115070
C24   C     C_R   0.097934 0.614104 0.514170 0.025906
C25   C     C_R   0.053633 0.720107 0.536872 0.258404
C26   C     C_R   0.961653 0.720278 0.514611 0.259991
Cu1   Cu    Cu3+1 0.500020 0.500020 0.638630 1.177512
Cu2   Cu    Cu3+1 0.499980 0.499980 0.361370 1.220425
H1    H     H_    0.714719 0.709535 0.525474 0.348660
H2    H     H_    0.798331 0.138814 0.717473 0.404582
H3    H     H_    0.037206 0.143482 0.362536 0.384512
H4    H     H_    0.339652 0.298017 0.723406 0.369233
H5    H     H_    0.304127 0.705667 0.465399 0.340987
H6    H     H_    0.215334 0.865349 0.764270 0.393489
H7    H     H_    0.796724 0.876335 0.348552 0.381549
H8    H     H_    0.472546 0.951537 0.218772 0.381216
H9    H     H_    0.661827 0.845620 0.814916 0.400219
H10   H     H_    0.627574 0.055963 0.271033 0.352054
H11   H     H_    0.405047 0.136338 0.653795 0.361973
H12   H     H_    0.573411 0.262621 0.938638 0.345663
H13   H     H_    0.417592 0.615867 0.824282 0.393466
H14   H     H_    0.323184 0.165164 0.004949 0.401152
H15   H     H_    0.669882 0.742917 0.185778 0.362676
H16   H     H_    0.704413 0.312365 0.386697 0.363915
N1    N     N_2   0.499020 0.498660 0.846910 -0.027978
N2    N     N_2   0.499000 0.498630 0.153040 -0.087230
O1    O     O_R   0.500020 0.321960 0.617040 -0.505069
O2    O     O_2   0.647906 0.018482 0.627441 -0.256765
O3    O     O_2   0.513533 0.958776 0.762052 -0.210079
O4    O     O_3   0.636020 0.809133 0.731588 -0.453792
O5    O     O_3   0.599633 0.119526 0.325538 -0.660364
O6    O     O_3   0.424418 0.078744 0.583612 -0.635668
O7    O     O_3   0.562897 0.319095 0.865358 -0.624828
O8    O     O_3   0.431890 0.561806 0.897545 -0.563225
O9    O     O_2   0.468768 0.183608 0.153897 -0.295918
O10   O     O_2   0.349280 0.311657 0.228617 -0.206576
O11   O     O_3   0.356039 0.239568 0.977404 -0.495314
O12   O     O_R   0.499980 0.321920 0.382900 -0.457348
O13   O     O_2   0.645717 0.565040 0.998618 -0.265656
O14   O     O_2   0.530721 0.709307 0.033900 -0.189712
O15   O     O_3   0.635695 0.674449 0.226738 -0.475934
O16   O     O_3   0.767377 0.299223 0.402613 -0.586187
O17   O     O_2   0.848960 0.095148 0.435706 -0.179360
O18   O     O_2   0.958276 0.101048 0.619983 -0.151768
O19   O     O_3   0.812424 0.209737 0.661289 -0.455606
O20   O     O_3   0.081201 0.195733 0.410481 -0.551467
O21   O     O_2   0.151705 0.184912 0.648383 -0.118808
O22   O     O_2   0.284451 0.213303 0.499469 -0.231668
O23   O     O_R   0.370270 0.499990 0.617090 -0.515419
O24   O     O_3   0.278007 0.321869 0.737829 -0.460289
O25   O     O_3   0.239804 0.717919 0.474015 -0.589981
O26   O     O_2   0.150164 0.927727 0.526990 -0.113034
O27   O     O_2   0.038827 0.904008 0.713925 -0.168970
O28   O     O_3   0.183316 0.792827 0.729477 -0.475918
O29   O     O_2   0.867757 0.902234 0.582799 -0.140244
O30   O     O_2   0.987308 0.936163 0.407135 -0.186732
O31   O     O_3   0.843892 0.818980 0.335878 -0.500676
O32   O     O_3   0.479472 0.886845 0.284011 -0.633417
O33   O     O_R   0.370240 0.499950 0.382940 -0.471752
O34   O     O_R   0.500020 0.678080 0.617100 -0.495009
O35   O     O_R   0.499980 0.678040 0.382960 -0.426943
O36   O     O_R   0.629760 0.500050 0.617060 -0.440699
O37   O     O_R   0.629730 0.500010 0.382910 -0.491290
O38   O     O_3   0.772795 0.706296 0.569286 -0.581011
S1    S     S_3+6 0.582103 0.917627 0.659856 0.055514
S2    S     S_3+6 0.413760 0.283664 0.114510 0.072272
S3    S     S_3+6 0.577726 0.611570 0.098680 0.167448
S4    S     S_3+6 0.891286 0.168593 0.547334 0.142323
S5    S     S_3+6 0.223242 0.273087 0.599445 0.116546
S6    S     S_3+6 0.106211 0.841864 0.626715 0.168378
S7    S     S_3+6 0.915834 0.850614 0.461027 0.155051

loop_
_geom_bond_atom_site_label_1
_geom_bond_atom_site_label_2
_ccdc_geom_bond_type
H3    O20   S    
C21   O20   S    
Cu2   N2    S    
C25   S6    S    
O27   S6    D    
O17   S4    D    
C6    O32   S    
C16   C17   A    
C11   S2    S    
C15   C16   A    
C13   O35   A    
O21   S5    D    
O11   S2    S    
C18   C19   A    
C10   O7    S    
Cu2   O33   S    
O15   S3    S    
O4    S1    S    
C8    C9    D    
C2    C22   A    
C23   C24   A    
Cu1   O23   S    
O29   S7    D    
Cu1   N1    S    
H11   O6    S    
C13   O34   A    
C21   C22   A    
Cu2   O37   S    
C9    O6    S    
C14   O37   A    
H14   O11   S    
C4    O23   A    
O14   S3    D    
C17   C18   A    
O3    S1    D    
C1    C9    S    
C24   C25   A    
C4    O33   A    
Cu1   O34   S    
C1    O1    A    
H4    O24   S    
H10   O5    S    
H16   O16   S    
C26   S7    S    
H7    O31   S    
C12   C26   A    
C2    S5    S    
C19   C23   A    
C17   O16   S    
O26   S6    D    
O10   S2    D    
C12   C15   A    
C10   N1    D    
O22   S5    D    
C8    O5    S    
C6    C7    D    
H6    O28   S    
N1    O8    S    
C14   C16   S    
O24   S5    S    
C14   O36   A    
C3    C4    S    
H15   O15   S    
O19   S4    S    
N2    S3    S    
Cu1   O1    S    
O31   S7    S    
Cu2   O35   S    
C22   C23   A    
Cu1   O36   S    
C3    C5    A    
C6    C8    S    
H1    O38   S    
C15   O38   S    
Cu2   O12   S    
O28   S6    S    
O9    S2    D    
C2    C3    A    
C25   C26   A    
C5    O25   S    
H8    O32   S    
C1    O12   A    
H9    O4    S    
C7    S1    S    
C5    C24   A    
C20   S4    S    
C12   C19   A    
C18   C20   A    
O13   S3    D    
H13   O8    S    
H2    O19   S    
C10   C11   S    
H5    O25   S    
O30   S7    D    
C7    C13   S    
C20   C21   A    
H12   O7    S    
Cu1   Cu2   S    
O2    S1    D    
C11   N2    D    
O18   S4    D    
