data_mof_unit_31598.cif
_audit_creation_date              2012-12-10T18:57:04-0500
_audit_creation_method            fapswitch 2.2
_symmetry_space_group_name_H-M    P1
_symmetry_Int_Tables_number       1
_space_group_crystal_system       triclinic
_cell_length_a                    10.646085
_cell_length_b                    9.918289
_cell_length_c                    10.687122
_cell_angle_alpha                 90.100152
_cell_angle_beta                  90.766347
_cell_angle_gamma                 89.903786
_cell_volume                      1128.3591312

loop_
_atom_site_label
_atom_site_type_symbol
_atom_type_description
_atom_site_fract_x
_atom_site_fract_y
_atom_site_fract_z
_atom_type_partial_charge
C1    C     C_R   0.260481 0.500005 0.498418 0.944854
C2    C     C_R   0.739676 0.499965 0.498537 0.949234
C3    C     C_R   0.588021 0.070106 0.568446 0.000540
C4    C     C_R   0.412152 0.070257 0.431263 -0.011324
C5    C     C_R   0.585239 0.925865 0.571217 0.427375
C6    C     C_R   0.415522 0.925998 0.427899 0.425154
C7    C     C_R   0.497679 0.500004 0.260009 0.908258
C8    C     C_R   0.494893 0.500150 0.739694 0.859032
C9    C     C_R   0.465842 0.620804 0.063225 0.145177
C10   C     C_R   0.458952 0.620855 0.935558 0.100132
C11   C     C_R   0.479975 0.499707 0.128083 -0.085287
C12   C     C_R   0.473150 0.499894 0.870589 -0.118982
C13   C     C_R   0.467172 0.376914 0.063804 -0.231682
C14   C     C_R   0.464242 0.376935 0.934570 -0.214717
C15   C     C_3   0.526037 0.752975 0.925683 -0.128555
C16   C     C_3   0.535318 0.752494 0.068187 -0.157703
C17   C     C_R   0.065687 0.414440 0.575503 -0.278246
C18   C     C_R   0.937181 0.413382 0.574386 -0.278837
C19   C     C_R   0.872308 0.500075 0.494054 -0.094234
C20   C     C_R   0.128083 0.500176 0.494399 -0.112951
C21   C     C_R   0.933642 0.588010 0.412337 0.336695
C22   C     C_R   0.064838 0.583448 0.408577 0.346288
H1    H     H_    0.468375 0.280934 0.112006 0.169391
H2    H     H_    0.464678 0.280964 0.885982 0.171584
H3    H     H_    0.617033 0.746974 0.875730 0.198451
H4    H     H_    0.482780 0.834750 0.115742 0.187518
H5    H     H_    0.116614 0.349769 0.640349 0.177435
H6    H     H_    0.888396 0.348558 0.639067 0.167744
N1    N     N_R   0.500000 0.857200 0.500000 -0.139031
N2    N     N_R   0.500000 0.142810 0.500000 -0.122393
O1    O     O_R   0.316770 0.614620 0.499990 -0.531561
O2    O     O_R   0.683230 0.614620 0.500010 -0.522476
O3    O     O_R   0.316800 0.385290 0.500000 -0.659809
O4    O     O_R   0.683200 0.385290 0.500000 -0.655544
O5    O     O_R   0.500000 0.614690 0.316780 -0.579749
O6    O     O_R   0.500000 0.614690 0.683220 -0.603412
O7    O     O_R   0.500020 0.385360 0.316780 -0.646458
O8    O     O_R   0.499980 0.385360 0.683220 -0.644365
Zn1   Zn    Zn3+2 0.500000 0.653120 0.500000 1.057018
Zn2   Zn    Zn3+2 0.500000 0.346880 0.500000 0.918904
N3    N     N_3   0.442636 0.859446 0.879651 -0.447457
H7    H     H_    0.424621 0.841965 0.784663 0.222793
H8    H     H_    0.492167 0.950265 0.885150 0.181674
N4    N     N_3   0.665111 0.737498 0.112258 -0.430810
H9    H     H_    0.665372 0.747609 0.209470 0.255792
H10   H     H_    0.715864 0.820156 0.079577 0.187485
O9    O     O_3   0.863620 0.674753 0.338205 -0.789046
H11   H     H_    0.914109 0.756380 0.321447 0.339421
O10   O     O_3   0.133164 0.653186 0.320693 -0.739569
H12   H     H_    0.080038 0.667919 0.245191 0.335551
N5    N     N_3   0.688516 0.136554 0.633261 -0.487265
H13   H     H_    0.654284 0.215309 0.687342 0.234598
H14   H     H_    0.752291 0.170726 0.567362 0.224120
N6    N     N_3   0.311943 0.136893 0.365790 -0.477723
H15   H     H_    0.346594 0.214918 0.311530 0.237285
H16   H     H_    0.247456 0.172285 0.430734 0.228747
O11   O     O_3   0.669219 0.851026 0.642149 -0.739636
H17   H     H_    0.719072 0.910780 0.697765 0.331671
O12   O     O_3   0.333522 0.851324 0.354684 -0.685030
H18   H     H_    0.284605 0.911224 0.298408 0.343934

loop_
_geom_bond_atom_site_label_1
_geom_bond_atom_site_label_2
_ccdc_geom_bond_type
C3    N2    A    
O5    Zn1   S    
C13   H1    S    
C11   C13   A    
N3    H7    S    
C16   N4    S    
O9    H11   S    
C5    O11   S    
C8    C12   S    
C2    O4    A    
C17   C18   A    
C7    O7    A    
C1    O3    A    
O12   H18   S    
C21   C22   A    
O8    Zn2   S    
C17   C20   A    
C9    C11   A    
N1    Zn1   S    
O11   H17   S    
C8    O8    A    
C22   O10   S    
O4    Zn2   S    
C10   C12   A    
C9    C10   A    
C4    C6    A    
C19   C21   A    
C9    C16   S    
C12   C14   A    
C7    C11   S    
O7    Zn2   S    
C5    N1    A    
C10   C15   S    
C16   H4    S    
N6    H16   S    
C15   H3    S    
O3    Zn2   S    
N2    Zn2   S    
C15   C16   S    
C17   H5    S    
C3    C5    A    
C1    O1    A    
C6    N1    A    
C18   H6    S    
N4    H9    S    
C15   N3    S    
C2    O2    A    
O10   H12   S    
C8    O6    A    
O2    Zn1   S    
C14   H2    S    
O1    Zn1   S    
C21   O9    S    
C3    N5    S    
N6    H15   S    
C18   C19   A    
C1    C20   S    
N4    H10   S    
C4    N6    S    
C2    C19   S    
C13   C14   A    
C7    O5    A    
C6    O12   S    
O6    Zn1   S    
C4    N2    A    
N3    H8    S    
N5    H13   S    
C20   C22   A    
N5    H14   S    
