data_mof_unit_43351.cif
_audit_creation_date              2012-12-10T17:44:32-0500
_audit_creation_method            fapswitch 2.2
_symmetry_space_group_name_H-M    P1
_symmetry_Int_Tables_number       1
_space_group_crystal_system       triclinic
_cell_length_a                    9.933028
_cell_length_b                    10.57844
_cell_length_c                    15.437418
_cell_angle_alpha                 94.725351
_cell_angle_beta                  67.728662
_cell_angle_gamma                 91.486133
_cell_volume                      1495.96480055

loop_
_atom_site_label
_atom_site_type_symbol
_atom_type_description
_atom_site_fract_x
_atom_site_fract_y
_atom_site_fract_z
_atom_type_partial_charge
C1    C     C_R   0.510449 0.736415 0.483891 0.907675
C2    C     C_R   0.394950 0.465570 0.918871 0.072713
C3    C     C_R   0.255545 0.515514 0.973478 0.155551
C4    C     C_R   0.486841 0.425374 0.962656 -0.032254
C5    C     C_R   0.456578 0.470290 0.057332 -0.017960
C6    C     C_R   0.311362 0.514918 0.113123 -0.010717
C7    C     C_R   0.213442 0.535218 0.069993 -0.151447
C8    C     C_R   0.605499 0.339890 0.916053 -0.009825
C9    C     C_R   0.710246 0.325552 0.954407 -0.214040
C10   C     C_R   0.698848 0.390124 0.039721 0.037076
C11   C     C_R   0.571426 0.464198 0.091425 0.111720
C12   C     C_R   0.408663 0.500030 0.676102 0.930531
C13   C     C_R   0.806341 0.374898 0.078543 -0.022852
C14   C     C_R   0.776971 0.422388 0.171398 -0.153574
C15   C     C_R   0.563751 0.529985 0.175683 -0.255798
C16   C     C_R   0.320955 0.850593 0.398047 -0.148890
C17   C     C_R   0.217869 0.911483 0.375373 -0.154260
C18   C     C_R   0.227857 0.040916 0.366432 -0.192660
C19   C     C_R   0.340659 0.109156 0.381065 0.039717
C20   C     C_R   0.425401 0.053938 0.424178 0.064781
C21   C     C_R   0.423307 0.920862 0.426377 0.064924
C22   C     C_R   0.531674 0.862839 0.449557 -0.141795
C23   C     C_R   0.506356 0.259102 0.486743 0.887876
C24   C     C_R   0.657285 0.932459 0.444492 -0.013208
C25   C     C_R   0.645903 0.062706 0.457424 -0.277475
C26   C     C_R   0.523109 0.123783 0.457003 -0.133137
C27   C     C_R   0.782806 0.638933 0.652263 0.001476
C28   C     C_R   0.812043 0.668730 0.733530 -0.176094
C29   C     C_R   0.954395 0.675580 0.726875 -0.250749
C30   C     C_R   0.065187 0.636417 0.643047 -0.149348
C31   C     C_R   0.034563 0.569267 0.570514 0.166898
C32   C     C_R   0.889070 0.570326 0.572108 0.068046
C33   C     C_R   0.964740 0.429208 0.434660 -0.016332
C34   C     C_R   0.591913 0.504243 0.323973 0.867645
C35   C     C_R   0.106520 0.427613 0.435944 -0.079117
C36   C     C_R   0.350709 0.499812 0.778222 -0.022866
C37   C     C_R   0.651457 0.493907 0.221269 -0.067838
C38   C     C_R   0.160020 0.545407 0.930462 -0.191295
C39   C     C_R   0.206390 0.533848 0.832986 -0.191664
C40   C     C_R   0.444159 0.468309 0.821516 -0.252913
H1    H     H_    0.103231 0.567205 0.111955 0.188185
H2    H     H_    0.323670 0.748708 0.386142 0.189015
H3    H     H_    0.140064 0.856261 0.354806 0.203705
H4    H     H_    0.160844 0.083698 0.335154 0.144376
H5    H     H_    0.734909 0.116329 0.466376 0.168899
H6    H     H_    0.941156 0.371238 0.381091 0.128851
H7    H     H_    0.729623 0.712985 0.796578 0.190272
H8    H     H_    0.482692 0.602338 0.211268 0.144748
H9    H     H_    0.979346 0.719870 0.784756 0.169248
H10   H     H_    0.173367 0.659099 0.637134 0.213054
H11   H     H_    0.187270 0.366019 0.384944 0.127736
H12   H     H_    0.848455 0.399194 0.206279 0.193113
H13   H     H_    0.796887 0.257738 0.918910 0.176850
H14   H     H_    0.050522 0.579045 0.972036 0.140885
H15   H     H_    0.131843 0.556641 0.800699 0.157649
H16   H     H_    0.557529 0.449683 0.778875 0.168158
N1    N     N_R   0.856800 0.501200 0.500850 -0.109684
N2    N     N_R   0.142390 0.501280 0.500880 -0.120814
O1    O     O_R   0.385310 0.683220 0.500000 -0.657631
O2    O     O_R   0.614640 0.683250 0.500010 -0.593307
O3    O     O_R   0.319840 0.499980 0.632240 -0.636099
O4    O     O_R   0.549160 0.500000 0.632250 -0.602303
O5    O     O_R   0.385360 0.316750 0.499990 -0.604953
O6    O     O_R   0.614690 0.316780 0.500000 -0.621700
O7    O     O_R   0.450840 0.500000 0.367750 -0.630487
O8    O     O_R   0.680160 0.500020 0.367760 -0.592273
Zn1   Zn    Zn3+2 0.346880 0.499980 0.499990 0.940528
Zn2   Zn    Zn3+2 0.653120 0.500020 0.500010 0.995428
C41   C     C_2   0.945958 0.305652 0.026217 0.369193
H17   H     H_    0.988960 0.291522 0.950319 0.077346
O9    O     O_2   0.017476 0.265868 0.067549 -0.567904
C42   C     C_2   0.802784 0.875771 0.422068 0.399824
H18   H     H_    0.879953 0.924879 0.447134 0.036805
O10   O     O_2   0.841151 0.778326 0.370807 -0.522683
C43   C     C_1   0.404308 0.202983 0.315792 0.144288
N3    N     N_1   0.456073 0.273320 0.259179 -0.217482
C44   C     C_2   0.683487 0.733222 0.644591 0.519629
H19   H     H_    0.725122 0.798688 0.590647 0.046379
O11   O     O_2   0.560968 0.749015 0.704265 -0.597544
C45   C     C_2   0.248755 0.522151 0.216871 0.346292
H20   H     H_    0.292749 0.463254 0.253523 0.097140
O12   O     O_2   0.147152 0.593371 0.262157 -0.561646
C46   C     C_2   0.610075 0.249043 0.835919 0.392929
H21   H     H_    0.511798 0.227970 0.822640 0.083721
O13   O     O_2   0.723161 0.195845 0.784381 -0.566260

loop_
_geom_bond_atom_site_label_1
_geom_bond_atom_site_label_2
_ccdc_geom_bond_type
O8    Zn2   S    
C28   H7    S    
C16   C21   A    
C16   H2    S    
C34   C37   S    
C19   C20   A    
C4    C8    A    
C34   O8    A    
C29   H9    S    
C44   H19   S    
C20   C26   A    
C35   N2    A    
O6    Zn2   S    
C31   N2    A    
C28   C29   A    
C5    C11   A    
C3    C7    A    
C1    O1    A    
C38   C39   A    
C16   C17   A    
C8    C46   S    
C18   C19   A    
C23   C26   S    
C41   O9    D    
C15   C37   A    
O1    Zn1   S    
C11   C15   A    
C39   H15   S    
C46   H21   S    
C3    C38   A    
C8    C9    A    
O7    Zn1   S    
C12   C36   S    
C9    C10   A    
C23   O5    A    
C30   H10   S    
C1    C22   S    
C21   C22   A    
C33   H6    S    
C32   N1    A    
C34   O7    A    
C44   O11   D    
O5    Zn1   S    
C36   C40   A    
C24   C25   A    
C42   O10   D    
C1    O2    A    
C42   H18   S    
C40   H16   S    
C25   C26   A    
C2    C4    A    
C43   N3    T    
C17   H3    S    
C29   C30   A    
C18   H4    S    
C12   O4    A    
O3    Zn1   S    
C6    C45   S    
C31   C32   A    
C38   H14   S    
C30   C31   A    
C17   C18   A    
C45   O12   D    
C23   O6    A    
C46   O13   D    
C35   H11   S    
C22   C24   A    
C9    H13   S    
N1    Zn2   S    
C25   H5    S    
C24   C42   S    
C33   N1    A    
C27   C32   A    
C15   H8    S    
C36   C39   A    
C45   H20   S    
C27   C44   S    
C10   C13   A    
C6    C7    A    
O4    Zn2   S    
C19   C43   S    
C2    C3    A    
C14   C37   A    
C12   O3    A    
C5    C6    A    
C13   C41   S    
C14   H12   S    
C33   C35   A    
C7    H1    S    
C41   H17   S    
C10   C11   A    
C2    C40   A    
N2    Zn1   S    
C4    C5    A    
C20   C21   A    
O2    Zn2   S    
C27   C28   A    
C13   C14   A    
