data_mof_unit_55892.cif
_audit_creation_date              2012-10-26T20:50:28-0400
_audit_creation_method            fapswitch 2.2
_symmetry_space_group_name_H-M    P1
_symmetry_Int_Tables_number       1
_space_group_crystal_system       triclinic
_cell_length_a                    19.600487
_cell_length_b                    18.212436
_cell_length_c                    10.89904
_cell_angle_alpha                 89.740785
_cell_angle_beta                  93.640424
_cell_angle_gamma                 90.168829
_cell_volume                      3882.75463633

loop_
_atom_site_label
_atom_site_type_symbol
_atom_type_description
_atom_site_fract_x
_atom_site_fract_y
_atom_site_fract_z
_atom_type_partial_charge
C1    C     C_R   0.368292 0.500530 0.510392 0.531961
C2    C     C_R   0.035653 0.579944 0.491008 -0.004851
C3    C     C_R   0.671637 0.649562 0.345875 -0.038202
C4    C     C_R   0.285084 0.644148 0.504144 0.071351
C5    C     C_R   0.269369 0.701167 0.419519 -0.096593
C6    C     C_R   0.287902 0.773697 0.447775 -0.123780
C7    C     C_R   0.323594 0.790111 0.559103 -0.106520
C8    C     C_R   0.339445 0.734354 0.644008 -0.106472
C9    C     C_R   0.319164 0.662141 0.618116 -0.040517
C10   C     C_R   0.927612 0.643044 0.409912 0.019826
C11   C     C_R   0.922321 0.709048 0.475503 -0.105971
C12   C     C_R   0.886168 0.768486 0.422536 -0.112224
C13   C     C_R   0.072669 0.512674 0.505471 0.011679
C14   C     C_R   0.854449 0.762492 0.304521 -0.091970
C15   C     C_R   0.859029 0.697135 0.239014 -0.111001
C16   C     C_R   0.895581 0.637712 0.291160 -0.094334
C17   C     C_R   0.069963 0.651959 0.515848 0.018674
C18   C     C_R   0.074352 0.705251 0.422611 -0.107010
C19   C     C_R   0.106361 0.772604 0.448367 -0.115743
C20   C     C_R   0.134786 0.787102 0.566628 -0.093080
C21   C     C_R   0.131665 0.734109 0.659172 -0.106204
C22   C     C_R   0.099302 0.666851 0.634153 -0.093245
C23   C     C_R   0.927659 0.510843 0.484042 0.010749
C24   C     C_R   0.035865 0.446720 0.510615 -0.136493
C25   C     C_R   0.965223 0.446434 0.508030 -0.135988
C26   C     C_R   0.471014 0.718197 0.398280 0.052042
C27   C     C_R   0.528990 0.724097 0.594875 0.043466
C28   C     C_R   0.474415 0.795165 0.383491 -0.039008
C29   C     C_R   0.528368 0.801763 0.590585 -0.040437
C30   C     C_R   0.502141 0.838353 0.482481 -0.002850
C31   C     C_R   0.631788 0.500219 0.489599 0.526230
C32   C     C_R   0.442406 0.961456 0.454704 -0.107386
C33   C     C_R   0.565482 0.960282 0.486656 -0.108361
C34   C     C_R   0.498216 0.499915 0.262087 0.533840
C35   C     C_R   0.501999 0.500112 0.737662 0.528524
C36   C     C_R   0.443453 0.038611 0.450337 -0.113615
C37   C     C_R   0.566492 0.037398 0.483705 -0.116394
C38   C     C_R   0.505456 0.077821 0.466315 0.029107
C39   C     C_R   0.503342 0.921214 0.474165 0.029108
C40   C     C_R   0.463235 0.203059 0.394644 -0.162774
C41   C     C_R   0.545592 0.196470 0.563561 -0.139861
C42   C     C_R   0.813166 0.566691 0.517493 -0.111936
C43   C     C_R   0.460414 0.280011 0.408413 0.124990
C44   C     C_R   0.540509 0.273170 0.580955 0.141361
C45   C     C_R   0.506101 0.160267 0.472178 -0.016197
C46   C     C_R   0.457604 0.548002 0.055357 -0.001855
C47   C     C_R   0.468152 0.553696 0.933275 0.005143
C48   C     C_R   0.495363 0.497880 0.128618 0.001157
C49   C     C_R   0.501117 0.499810 0.870309 -0.023379
C50   C     C_R   0.529241 0.441842 0.068054 -0.172282
C51   C     C_R   0.530461 0.442235 0.939794 -0.184260
C52   C     C_3   0.461331 0.635390 0.931435 -0.116281
C53   C     C_R   0.187708 0.562060 0.455284 -0.121735
C54   C     C_3   0.437624 0.626822 0.064252 -0.129547
C55   C     C_R   0.744675 0.438210 0.443316 -0.038705
C56   C     C_R   0.256028 0.447807 0.583146 -0.034780
C57   C     C_R   0.816034 0.443410 0.440970 -0.130734
C58   C     C_R   0.184373 0.453701 0.581159 -0.130920
C59   C     C_R   0.851338 0.506743 0.481650 0.003665
C60   C     C_R   0.149147 0.509007 0.512834 0.002807
C61   C     C_R   0.450405 0.829571 0.264080 0.009291
C62   C     C_R   0.490579 0.883077 0.208857 -0.088286
C63   C     C_R   0.464516 0.922772 0.106634 -0.116400
C64   C     C_R   0.742793 0.569210 0.491096 -0.029080
C65   C     C_R   0.399048 0.907733 0.055078 -0.116395
C66   C     C_R   0.359865 0.852474 0.105444 -0.126831
C67   C     C_R   0.385845 0.812587 0.207976 -0.116547
C68   C     C_R   0.556102 0.845331 0.697010 0.026567
C69   C     C_R   0.515011 0.898646 0.748969 -0.075428
C70   C     C_R   0.544645 0.952621 0.826036 -0.111623
C71   C     C_R   0.615102 0.952600 0.854920 -0.115886
C72   C     C_R   0.655804 0.897736 0.808380 -0.119106
C73   C     C_R   0.626238 0.843576 0.731258 -0.092403
C74   C     C_R   0.406618 0.316587 0.329482 0.083572
C75   C     C_R   0.257541 0.568127 0.484175 -0.031152
C76   C     C_R   0.340656 0.322266 0.370761 -0.076167
C77   C     C_R   0.288012 0.354629 0.296907 -0.123661
C78   C     C_R   0.300347 0.378393 0.178386 -0.118531
C79   C     C_R   0.364363 0.366870 0.132516 -0.118529
C80   C     C_R   0.416522 0.333220 0.206099 -0.082988
C81   C     C_R   0.572283 0.298077 0.700781 0.068911
C82   C     C_R   0.636977 0.331597 0.708809 -0.085145
C83   C     C_R   0.676550 0.333232 0.820280 -0.145333
C84   C     C_R   0.653090 0.298972 0.924602 -0.125263
C85   C     C_R   0.589168 0.264646 0.918227 -0.145399
C86   C     C_R   0.706678 0.501977 0.472549 -0.023784
C87   C     C_R   0.548682 0.265147 0.807817 -0.130586
C88   C     C_R   0.528377 0.678677 0.936258 0.020910
C89   C     C_R   0.592579 0.646609 0.918157 -0.083794
C90   C     C_R   0.653050 0.685873 0.944139 -0.133284
C91   C     C_R   0.650679 0.757174 0.989222 -0.113213
C92   C     C_R   0.587681 0.790424 0.003702 -0.100971
C93   C     C_R   0.526950 0.752075 0.975059 -0.108407
C94   C     C_R   0.360712 0.633147 0.074590 0.020555
C95   C     C_R   0.326314 0.584488 0.150774 -0.084174
C96   C     C_R   0.255142 0.586098 0.152566 -0.129179
C97   C     C_R   0.293564 0.504501 0.526849 -0.016222
C98   C     C_R   0.217542 0.638255 0.082942 -0.118384
C99   C     C_R   0.251122 0.688741 0.011034 -0.120176
C100  C     C_R   0.322202 0.686256 0.006682 -0.102686
C101  C     C_R   0.713304 0.366460 0.406744 0.033988
C102  C     C_R   0.737784 0.301150 0.463358 -0.121237
C103  C     C_R   0.709068 0.233371 0.429099 -0.121755
C104  C     C_R   0.656692 0.229851 0.336410 -0.103873
C105  C     C_R   0.633305 0.294008 0.277397 -0.100046
C106  C     C_R   0.662099 0.362017 0.311057 -0.048882
C107  C     C_R   0.288740 0.386149 0.655231 0.032615
C108  C     C_R   0.963678 0.577809 0.465981 -0.005171
C109  C     C_R   0.260124 0.315042 0.647927 -0.122255
C110  C     C_R   0.290916 0.256819 0.714290 -0.121936
C111  C     C_R   0.349982 0.268915 0.789826 -0.113659
C112  C     C_R   0.377582 0.339465 0.800727 -0.102637
C113  C     C_R   0.346174 0.398163 0.736523 -0.044184
C114  C     C_R   0.712604 0.642300 0.456414 0.068575
C115  C     C_R   0.730546 0.706193 0.523432 -0.093716
C116  C     C_R   0.708405 0.775126 0.480072 -0.122550
C117  C     C_R   0.665304 0.780861 0.373610 -0.110352
C118  C     C_R   0.646154 0.717923 0.307670 -0.102851
Cu1   Cu    Cu3+1 0.500000 0.573360 0.500000 0.931336
Cu2   Cu    Cu3+1 0.500000 0.426640 0.500000 0.957544
H1    H     H_    0.556365 0.399199 0.118979 0.115017
H2    H     H_    0.468658 0.656803 0.136396 0.129849
H3    H     H_    0.843831 0.397192 0.407202 0.106390
H4    H     H_    0.156246 0.415082 0.634416 0.106014
H5    H     H_    0.838511 0.614269 0.556576 0.116757
H6    H     H_    0.163247 0.603179 0.397053 0.117091
H7    H     H_    0.541778 0.895275 0.246212 0.099773
H8    H     H_    0.495127 0.965530 0.068318 0.098906
H9    H     H_    0.378886 0.938536 0.975784 0.097578
H10   H     H_    0.309150 0.840755 0.065211 0.103832
H11   H     H_    0.355053 0.769468 0.244308 0.117637
H12   H     H_    0.557804 0.400848 0.894903 0.169622
H13   H     H_    0.460693 0.900973 0.723811 0.096526
H14   H     H_    0.513158 0.995502 0.860832 0.093347
H15   H     H_    0.638036 0.994661 0.914139 0.098961
H16   H     H_    0.710233 0.896987 0.832320 0.092692
H17   H     H_    0.658182 0.801396 0.696474 0.105262
H18   H     H_    0.393819 0.933078 0.444045 0.105276
H19   H     H_    0.613355 0.930957 0.499909 0.105765
H20   H     H_    0.330833 0.301796 0.460585 0.124017
H21   H     H_    0.237820 0.361095 0.331457 0.109466
H22   H     H_    0.260030 0.404297 0.121290 0.113835
H23   H     H_    0.446290 0.685440 0.326496 0.123302
H24   H     H_    0.373480 0.384271 0.040295 0.118176
H25   H     H_    0.464976 0.321665 0.168314 0.095119
H26   H     H_    0.659237 0.352194 0.628432 0.150842
H27   H     H_    0.726543 0.358836 0.824583 0.107755
H28   H     H_    0.684354 0.299015 0.010098 0.117661
H29   H     H_    0.570991 0.237425 0.998382 0.100714
H30   H     H_    0.500783 0.235247 0.803392 0.100766
H31   H     H_    0.597425 0.591107 0.886767 0.122324
H32   H     H_    0.701916 0.660403 0.931455 0.099145
H33   H     H_    0.697616 0.786990 0.011819 0.100423
H34   H     H_    0.551774 0.696207 0.674914 0.135574
H35   H     H_    0.586167 0.845931 0.037807 0.120122
H36   H     H_    0.478614 0.778278 0.988818 0.127306
H37   H     H_    0.354255 0.544003 0.206726 0.128593
H38   H     H_    0.229163 0.547008 0.208398 0.110012
H39   H     H_    0.162459 0.639907 0.085516 0.100197
H40   H     H_    0.222065 0.729760 0.958233 0.091887
H41   H     H_    0.346929 0.726078 0.950456 0.091727
H42   H     H_    0.778043 0.302967 0.536122 0.096771
H43   H     H_    0.727262 0.183607 0.474738 0.099401
H44   H     H_    0.634231 0.177403 0.310237 0.106522
H45   H     H_    0.395389 0.067692 0.438196 0.098775
H46   H     H_    0.592907 0.290583 0.205581 0.083571
H47   H     H_    0.644591 0.411427 0.263748 0.097962
H48   H     H_    0.215283 0.304008 0.587537 0.090482
H49   H     H_    0.269285 0.202180 0.706232 0.101299
H50   H     H_    0.374048 0.223735 0.840628 0.097372
H51   H     H_    0.423079 0.348685 0.859886 0.115048
H52   H     H_    0.366528 0.452943 0.750298 0.101789
H53   H     H_    0.762633 0.703150 0.607832 0.084389
H54   H     H_    0.724518 0.824285 0.529327 0.091445
H55   H     H_    0.647075 0.834066 0.341868 0.093528
H56   H     H_    0.615203 0.065555 0.495156 0.095065
H57   H     H_    0.612054 0.721963 0.226244 0.124712
H58   H     H_    0.658769 0.602018 0.289579 0.103499
H59   H     H_    0.241263 0.690259 0.333082 0.109596
H60   H     H_    0.274128 0.817424 0.383423 0.100442
H61   H     H_    0.338191 0.846164 0.580409 0.093640
H62   H     H_    0.366407 0.747503 0.730779 0.084580
H63   H     H_    0.329471 0.620250 0.687657 0.100928
H64   H     H_    0.945017 0.713871 0.568313 0.109790
H65   H     H_    0.881970 0.818901 0.473656 0.097751
H66   H     H_    0.825867 0.808311 0.264205 0.101289
H67   H     H_    0.430629 0.176476 0.323910 0.094686
H68   H     H_    0.834024 0.692423 0.147939 0.096691
H69   H     H_    0.898436 0.587243 0.239576 0.106100
H70   H     H_    0.053467 0.694302 0.330115 0.108461
H71   H     H_    0.109602 0.813360 0.376396 0.098254
H72   H     H_    0.159903 0.839124 0.586212 0.101105
H73   H     H_    0.154271 0.745195 0.750367 0.095754
H74   H     H_    0.097014 0.626352 0.706867 0.108656
H75   H     H_    0.061519 0.394272 0.519070 0.099471
H76   H     H_    0.940196 0.394537 0.523761 0.101004
H77   H     H_    0.577295 0.163977 0.628334 0.105596
H78   H     H_    0.422930 0.654321 0.859346 0.111761
N1    N     N_R   0.500000 0.683620 0.500000 -0.234573
N2    N     N_R   0.500000 0.316380 0.500000 -0.221334
O1    O     O_R   0.400190 0.561980 0.499980 -0.502106
O2    O     O_R   0.599810 0.561980 0.500020 -0.492333
O3    O     O_R   0.400190 0.438070 0.500040 -0.486893
O4    O     O_R   0.599810 0.438070 0.499960 -0.506957
O5    O     O_R   0.500000 0.561960 0.319660 -0.524245
O6    O     O_R   0.500000 0.561960 0.680340 -0.512955
O7    O     O_R   0.500000 0.438060 0.319720 -0.504634
O8    O     O_R   0.500000 0.438060 0.680280 -0.502344

loop_
_geom_bond_atom_site_label_1
_geom_bond_atom_site_label_2
_ccdc_geom_bond_type
C96   H38   S    
C24   C25   A    
C63   C65   A    
C101  C102  A    
C27   C29   A    
C6    C7    A    
C10   C108  S    
C95   C96   A    
Cu1   O1    S    
C118  H57   S    
C1    O1    A    
C81   C82   A    
C7    C8    A    
C47   C49   A    
C13   C60   S    
C77   C78   A    
C105  H46   S    
C23   C59   S    
C50   H1    S    
C33   C39   A    
C74   C76   A    
Cu1   N1    S    
C32   C36   A    
C92   C93   A    
C109  H48   S    
C37   C38   A    
C33   H19   S    
C91   H33   S    
C88   C89   A    
C78   H22   S    
C71   H15   S    
C5    C6    A    
C14   H66   S    
C57   C59   A    
C112  H51   S    
C61   C62   A    
C12   H65   S    
C58   C60   A    
C115  C116  A    
C75   C97   A    
C116  C117  A    
C18   C19   A    
C32   C39   A    
C2    C13   A    
C110  C111  A    
C107  C113  A    
C38   C45   S    
C42   H5    S    
C88   C93   A    
C40   C43   A    
C5    H59   S    
C83   C84   A    
C8    C9    A    
C31   O2    A    
C87   H30   S    
C96   C98   A    
C35   C49   S    
C100  H41   S    
Cu1   O5    S    
C63   H8    S    
C72   C73   A    
C28   C61   S    
C117  H55   S    
C27   H34   S    
C85   C87   A    
C66   C67   A    
C54   H2    S    
C31   C86   S    
C74   C80   A    
C21   C22   A    
C2    C17   S    
C107  C109  A    
C53   C75   A    
Cu1   O2    S    
C56   C97   A    
C51   H12   S    
C64   C86   A    
C104  C105  A    
C82   H26   S    
C53   C60   A    
C52   C54   S    
C114  C115  A    
C113  H52   S    
C85   H29   S    
C84   H28   S    
C34   O5    A    
C40   C45   A    
C46   C48   A    
C64   C114  S    
C7    H61   S    
C102  C103  A    
Cu2   O8    S    
C55   C86   A    
C52   C88   S    
C27   N1    A    
C84   C85   A    
C41   H77   S    
C44   C81   S    
C10   C11   A    
C1    C97   S    
C91   C92   A    
C40   H67   S    
C78   C79   A    
C68   C69   A    
C24   H75   S    
C49   C51   A    
C68   C73   A    
C82   C83   A    
C33   C37   A    
C13   C24   A    
C103  H43   S    
C104  H44   S    
C56   C107  S    
C32   H18   S    
C29   C30   A    
C9    H63   S    
C3    C118  A    
C57   H3    S    
C29   C68   S    
C61   C67   A    
C35   O6    A    
C79   H24   S    
C94   C100  A    
C102  H42   S    
C46   C54   S    
C62   C63   A    
C17   C18   A    
C94   C95   A    
C50   C51   A    
Cu1   O6    S    
C26   N1    A    
C76   C77   A    
C48   C50   A    
C31   O4    A    
C43   N2    A    
C25   H76   S    
C83   H27   S    
C90   H32   S    
C80   H25   S    
C12   C14   A    
C44   N2    A    
C55   C57   A    
Cu2   O4    S    
C41   C44   A    
C98   H39   S    
C34   C48   S    
C76   H20   S    
C26   H23   S    
C1    O3    A    
C42   C64   A    
C70   C71   A    
C36   C38   A    
C15   H68   S    
C8    H62   S    
C101  C106  A    
C46   C47   A    
C18   H70   S    
C69   H13   S    
C111  C112  A    
C6    H60   S    
C95   H37   S    
Cu2   O7    S    
C58   H4    S    
C3    H58   S    
C93   H36   S    
C67   H11   S    
C11   H64   S    
C4    C5    A    
C3    C114  A    
C42   C59   A    
C20   H72   S    
C65   H9    S    
Cu1   Cu2   S    
C47   C52   S    
C34   O7    A    
C105  C106  A    
C55   C101  S    
C26   C28   A    
C17   C22   A    
C99   C100  A    
C116  H54   S    
C111  H50   S    
C106  H47   S    
C19   C20   A    
C28   C30   A    
C89   C90   A    
C71   C72   A    
C115  H53   S    
C10   C16   A    
C117  C118  A    
C37   H56   S    
C81   C87   A    
C90   C91   A    
C62   H7    S    
C73   H17   S    
C43   C74   S    
C23   C108  A    
C2    C108  A    
C36   H45   S    
Cu2   N2    S    
C56   C58   A    
C30   C39   S    
C92   H35   S    
C112  C113  A    
C65   C66   A    
C69   C70   A    
C77   H21   S    
C54   C94   S    
C72   H16   S    
C53   H6    S    
C79   C80   A    
C4    C75   S    
C110  H49   S    
C35   O8    A    
C89   H31   S    
C23   C25   A    
C52   H78   S    
C20   C21   A    
C98   C99   A    
C109  C110  A    
C103  C104  A    
C70   H14   S    
Cu2   O3    S    
C41   C45   A    
C14   C15   A    
C22   H74   S    
C21   H73   S    
C4    C9    A    
C99   H40   S    
C16   H69   S    
C15   C16   A    
C11   C12   A    
C19   H71   S    
C66   H10   S    
