data_mof_unit_7656.cif
_audit_creation_date              2012-12-10T19:04:10-0500
_audit_creation_method            fapswitch 2.2
_symmetry_space_group_name_H-M    P1
_symmetry_Int_Tables_number       1
_space_group_crystal_system       triclinic
_cell_length_a                    10.652194
_cell_length_b                    10.807717
_cell_length_c                    9.567799
_cell_angle_alpha                 89.876949
_cell_angle_beta                  88.479892
_cell_angle_gamma                 90.336193
_cell_volume                      1101.09193102

loop_
_atom_site_label
_atom_site_type_symbol
_atom_type_description
_atom_site_fract_x
_atom_site_fract_y
_atom_site_fract_z
_atom_type_partial_charge
C1    C     C_R   0.496198 0.262419 0.500168 0.816956
C2    C     C_3   0.965946 0.519322 0.367750 -0.156754
C3    C     C_3   0.044733 0.408792 0.417942 -0.235357
C4    C     C_3   0.122498 0.499370 0.504938 -0.042232
C5    C     C_R   0.476461 0.063411 0.625943 0.141141
C6    C     C_R   0.481111 0.129362 0.500321 -0.095468
C7    C     C_R   0.467304 0.064683 0.374162 -0.221304
C8    C     C_R   0.468568 0.935716 0.373928 -0.224274
C9    C     C_R   0.483901 0.870787 0.499782 -0.087867
C10   C     C_R   0.479009 0.936100 0.625462 0.121626
C11   C     C_3   0.563968 0.931253 0.747008 -0.512204
C12   C     C_R   0.259345 0.499404 0.501729 0.787374
C13   C     C_3   0.559535 0.071538 0.748917 -0.417887
C14   C     C_R   0.558666 0.592565 0.071427 0.130876
C15   C     C_R   0.434651 0.413782 0.077195 -0.139165
C16   C     C_R   0.432578 0.414039 0.927583 0.542404
C17   C     C_R   0.557504 0.593457 0.924116 0.075383
C18   C     C_3   0.693036 0.627654 0.912007 -0.494988
C19   C     C_3   0.695625 0.622194 0.069829 0.426016
C20   C     C_R   0.497583 0.737672 0.499888 0.779756
C21   C     C_R   0.740691 0.500930 0.498426 0.832477
C22   C     C_3   0.034766 0.482280 0.634471 -0.241675
C23   C     C_3   0.955966 0.393741 0.546102 0.495810
C24   C     C_3   0.877693 0.501825 0.495943 -0.029888
C25   C     C_3   0.955779 0.592327 0.582388 -0.222977
C26   C     C_3   0.045983 0.609672 0.454111 -0.162649
Cu1   Cu    Cu3+1 0.499990 0.499980 0.640670 0.989085
Cu2   Cu    Cu3+1 0.500010 0.500020 0.359330 0.980676
H1    H     H_    0.658427 0.894632 0.718025 0.195052
H2    H     H_    0.509676 0.108534 0.843164 0.233175
H3    H     H_    0.651045 0.116896 0.723054 0.216246
H4    H     H_    0.386327 0.341723 0.136159 0.143567
H5    H     H_    0.751821 0.555408 0.860644 0.248069
H6    H     H_    0.707854 0.722506 0.869922 0.132992
H7    H     H_    0.718685 0.711389 0.121001 0.056100
H8    H     H_    0.062910 0.469140 0.744138 0.130542
H9    H     H_    0.916533 0.668055 0.648176 0.144037
H10   H     H_    0.086257 0.699118 0.416618 0.137307
H11   H     H_    0.940774 0.536842 0.258306 0.223337
H12   H     H_    0.083318 0.332656 0.352288 0.140861
H13   H     H_    0.462437 0.113024 0.275172 0.164263
H14   H     H_    0.464171 0.887759 0.274867 0.160380
H15   H     H_    0.517738 0.887889 0.840592 0.199613
N1    N     N_R   0.500800 0.500930 0.147930 -0.176700
N2    N     N_R   0.500800 0.500890 0.852020 -0.201521
O1    O     O_R   0.500000 0.319640 0.618810 -0.523153
O2    O     O_R   0.500010 0.319680 0.381230 -0.589680
O3    O     O_R   0.316850 0.499950 0.618770 -0.576504
O4    O     O_R   0.316860 0.499990 0.381190 -0.590545
O5    O     O_R   0.499990 0.680320 0.618770 -0.579071
O6    O     O_R   0.500000 0.680360 0.381190 -0.600816
O7    O     O_R   0.683140 0.500010 0.618810 -0.586481
O8    O     O_R   0.683150 0.500050 0.381230 -0.517325
O9    O     O_3   0.899999 0.280255 0.587600 -0.586906
C27   C     C_3   0.990216 0.204167 0.649830 0.064362
H16   H     H_    0.995754 0.228037 0.762342 0.154348
H17   H     H_    0.085287 0.213001 0.598771 0.126283
C28   C     C_3   0.950080 0.069333 0.638618 -0.793065
H18   H     H_    0.937806 0.044224 0.527289 0.250452
H19   H     H_    0.023075 0.008990 0.683146 0.198833
H20   H     H_    0.860507 0.053443 0.697694 0.240054
O10   O     O_3   0.376032 0.318353 0.856432 -0.566989
C29   C     C_3   0.249438 0.300098 0.899906 0.037256
H21   H     H_    0.192059 0.309321 0.806079 0.155532
H22   H     H_    0.212150 0.368509 0.977486 0.116693
C30   C     C_3   0.231466 0.169215 0.956514 -0.863405
H23   H     H_    0.290183 0.154716 0.049170 0.236203
H24   H     H_    0.131355 0.153982 0.987449 0.218304
H25   H     H_    0.258497 0.100858 0.874712 0.253352
F1    F     F_    0.765085 0.522473 0.113612 -0.659944

loop_
_geom_bond_atom_site_label_1
_geom_bond_atom_site_label_2
_ccdc_geom_bond_type
Cu1   O3    S    
C16   N2    A    
C30   H24   S    
C23   C24   S    
C29   H22   S    
Cu2   O2    S    
C11   H15   S    
O10   C29   S    
C4    C12   S    
C4    C22   S    
Cu2   O4    S    
C9    C20   S    
C4    C26   S    
Cu1   O5    S    
C12   O3    A    
C5    C13   S    
Cu1   N2    S    
C28   H20   S    
C7    H13   S    
C12   O4    A    
C25   C26   S    
C29   C30   S    
C5    C10   A    
C2    C26   S    
C19   H7    S    
C30   H23   S    
Cu1   O7    S    
Cu2   O8    S    
C21   O8    A    
C11   C13   S    
C14   C17   A    
C6    C7    A    
C16   O10   S    
C18   H6    S    
C15   H4    S    
C5    C6    A    
C2    H11   S    
Cu1   O1    S    
Cu2   O6    S    
C17   N2    A    
C3    H12   S    
C17   C18   S    
C20   O6    A    
C2    C3    S    
C27   H17   S    
C2    C24   S    
C15   N1    A    
C18   H5    S    
C1    O1    A    
C21   C24   S    
C30   H25   S    
C10   C11   S    
C27   H16   S    
C28   H19   S    
C15   C16   A    
C13   H2    S    
C7    C8    A    
C22   H8    S    
C24   C25   S    
C11   H1    S    
C23   O9    S    
C14   N1    A    
C18   C19   S    
C9    C10   A    
C27   C28   S    
Cu1   Cu2   S    
C22   C23   S    
C26   H10   S    
C19   F1    S    
C20   O5    A    
C1    C6    S    
C25   H9    S    
C28   H18   S    
O9    C27   S    
C3    C23   S    
C14   C19   S    
C13   H3    S    
C21   O7    A    
C1    O2    A    
C3    C4    S    
C29   H21   S    
C8    H14   S    
C8    C9    A    
C22   C25   S    
Cu2   N1    S    
