data_mof_unit_67360.cif
_audit_creation_date              2013-03-05T16:08:13-0500
_audit_creation_method            fapswitch 2.2
_symmetry_space_group_name_H-M    P1
_symmetry_Int_Tables_number       1
_space_group_crystal_system       triclinic
_cell_length_a                    19.862818
_cell_length_b                    22.872735
_cell_length_c                    8.594665
_cell_angle_alpha                 89.885198
_cell_angle_beta                  103.438383
_cell_angle_gamma                 89.768743
_cell_volume                      3797.74473139

loop_
_atom_site_label
_atom_site_type_symbol
_atom_site_description
_atom_site_fract_x
_atom_site_fract_y
_atom_site_fract_z
_atom_type_partial_charge
P1    P     P_3+3 0.853370 0.434890 0.996520 0.491044
P2    P     P_3+3 0.853370 0.565110 0.496520 0.487979
P3    P     P_3+3 0.353370 0.934890 0.996520 0.493859
P4    P     P_3+3 0.353370 0.065110 0.496520 0.497533
O1    O     O_2   0.860260 0.414960 0.826400 -0.335321
O2    O     O_2   0.860260 0.585040 0.326400 -0.379665
O3    O     O_2   0.360260 0.914960 0.826400 -0.342117
O4    O     O_2   0.360260 0.085040 0.326400 -0.352157
O5    O     O_3   0.918600 0.470180 0.098890 -0.360030
O6    O     O_3   0.918600 0.529820 0.598890 -0.352388
O7    O     O_3   0.418600 0.970180 0.098890 -0.356463
O8    O     O_3   0.418600 0.029820 0.598890 -0.356307
O9    O     O_3   0.975750 0.362410 0.628650 -0.320007
O10   O     O_3   0.975750 0.637590 0.128650 -0.290560
O11   O     O_3   0.475750 0.862410 0.628650 -0.321319
O12   O     O_3   0.475750 0.137590 0.128650 -0.280891
O13   O     O_2   0.865698 0.320404 0.685955 -0.344900
O14   O     O_2   0.865562 0.679383 0.192211 -0.442419
O15   O     O_2   0.365549 0.820934 0.685621 -0.337234
O16   O     O_2   0.362906 0.177506 0.197879 -0.413948
O17   O     O_3   0.788119 0.487170 0.933709 -0.567802
O18   O     O_3   0.788671 0.512046 0.442370 -0.556974
O19   O     O_3   0.287256 0.986848 0.937219 -0.565884
O20   O     O_3   0.289119 0.011985 0.438331 -0.562286
O21   O     O_3   0.950380 0.237031 0.649116 -0.669713
O22   O     O_3   0.944456 0.763560 0.133999 -0.600672
O23   O     O_3   0.448879 0.737076 0.648447 -0.669911
O24   O     O_3   0.435083 0.261405 0.123009 -0.621553
C1    C     C_3   0.016006 0.146577 0.622972 -0.159610
C2    C     C_3   0.009953 0.852346 0.105758 -0.269859
C3    C     C_3   0.510075 0.644891 0.616789 -0.168419
C4    C     C_3   0.486735 0.349787 0.046655 -0.282718
P5    P     P_3+3 0.146350 0.434230 0.693140 0.494791
P6    P     P_3+3 0.146350 0.565770 0.193140 0.539144
P7    P     P_3+3 0.646350 0.934230 0.693140 0.496455
P8    P     P_3+3 0.646350 0.065770 0.193140 0.545318
P9    P     P_3+3 0.082732 0.305334 0.123033 0.543787
P10   P     P_3+3 0.084519 0.693454 0.622587 0.545708
P11   P     P_3+3 0.582445 0.805153 0.123741 0.541679
P12   P     P_3+3 0.585701 0.192880 0.619758 0.539941
O25   O     O_2   0.139400 0.414340 0.863230 -0.352821
O26   O     O_2   0.139400 0.585660 0.363230 -0.363387
O27   O     O_2   0.639400 0.914340 0.863230 -0.341370
O28   O     O_2   0.639400 0.085660 0.363230 -0.360332
O29   O     O_3   0.023740 0.362300 0.060930 -0.353155
O30   O     O_3   0.023740 0.637700 0.560930 -0.414675
O31   O     O_3   0.523740 0.862300 0.060930 -0.351125
O32   O     O_3   0.523740 0.137700 0.560930 -0.410660
O33   O     O_2   0.137257 0.310183 0.021716 -0.358405
O34   O     O_2   0.137761 0.688719 0.517802 -0.283440
O35   O     O_2   0.637224 0.810236 0.022980 -0.360597
O36   O     O_2   0.636906 0.188026 0.510098 -0.277712
O37   O     O_3   0.223270 0.474116 0.717875 -0.569578
O38   O     O_3   0.223936 0.525372 0.230226 -0.550495
O39   O     O_3   0.723344 0.973986 0.727509 -0.550383
O40   O     O_3   0.723214 0.024679 0.227657 -0.542580
O41   O     O_3   0.036132 0.241633 0.058599 -0.453100
O42   O     O_3   0.038560 0.758280 0.561770 -0.501006
O43   O     O_3   0.536836 0.740920 0.058722 -0.454857
O44   O     O_3   0.543855 0.259599 0.563898 -0.497478
C5    C     C_3   0.965506 0.257766 0.020326 0.471398
C6    C     C_3   0.968351 0.742449 0.508529 0.311353
C7    C     C_3   0.465474 0.754895 0.021396 0.488644
C8    C     C_3   0.471825 0.250623 0.524903 0.389559
H1    H     H_    0.954831 0.286566 0.914406 0.187383
H2    H     H_    0.961877 0.716205 0.399140 0.210875
H3    H     H_    0.453265 0.783928 0.915993 0.180952
H4    H     H_    0.456909 0.229754 0.406351 0.179258
H5    H     H_    0.950702 0.281270 0.120570 -0.063334
H6    H     H_    0.949397 0.716308 0.598248 0.084228
H7    H     H_    0.449922 0.777697 0.121417 -0.067411
H8    H     H_    0.454511 0.220841 0.609521 0.072035
C9    C     C_3   0.918336 0.205686 0.981226 -0.781744
C10   C     C_3   0.921011 0.794576 0.472325 -0.669176
C11   C     C_3   0.421097 0.700515 0.982767 -0.799252
C12   C     C_3   0.431529 0.308010 0.522720 -0.779262
H9    H     H_    0.864610 0.222761 0.947503 0.195479
H10   H     H_    0.867245 0.778019 0.447096 0.194813
H11   H     H_    0.365619 0.713477 0.953384 0.181784
H12   H     H_    0.389433 0.300487 0.585801 0.200782
H13   H     H_    0.927602 0.181135 0.878015 0.249003
H14   H     H_    0.927733 0.817530 0.365267 0.294859
H15   H     H_    0.431087 0.678131 0.877202 0.240718
H16   H     H_    0.406554 0.318978 0.398139 0.258108
C13   C     C_3   0.222121 0.474633 0.319930 0.101912
C14   C     C_3   0.229118 0.519731 0.827386 0.089499
C15   C     C_3   0.722521 0.975617 0.323455 0.087997
C16   C     C_3   0.721674 0.023369 0.820645 0.079265
H17   H     H_    0.192824 0.481331 0.413819 0.125017
H18   H     H_    0.202388 0.509934 0.924256 0.074286
H19   H     H_    0.694615 0.983918 0.419172 0.119248
H20   H     H_    0.692092 0.016182 0.913804 0.071673
C17   C     C_3   0.297551 0.456453 0.399306 0.321642
C18   C     C_3   0.307590 0.528638 0.902392 0.436066
C19   C     C_3   0.798375 0.958118 0.400333 0.343190
C20   C     C_3   0.797557 0.038772 0.904416 0.422730
H21   H     H_    0.325847 0.448394 0.304445 0.121140
H22   H     H_    0.331969 0.552436 0.817455 0.111397
H23   H     H_    0.825236 0.947096 0.304678 0.151310
H24   H     H_    0.826889 0.048643 0.812394 0.122600
Ba1   Ba    Ba6+2 0.999900 0.457470 0.844900 1.663267
Ba2   Ba    Ba6+2 0.999900 0.542530 0.344900 1.676988
Ba3   Ba    Ba6+2 0.499900 0.957470 0.844900 1.669949
Ba4   Ba    Ba6+2 0.499900 0.042530 0.344900 1.689102
C21   C     C_3   0.757032 0.503256 0.058219 0.216172
C22   C     C_3   0.743809 0.511169 0.547707 0.308076
C23   C     C_3   0.248018 0.993907 0.053089 0.319908
C24   C     C_3   0.245787 0.007259 0.546390 0.300474
H25   H     H_    0.794504 0.501611 0.174845 0.145151
H26   H     H_    0.769252 0.527240 0.668460 0.117644
H27   H     H_    0.276672 0.979841 0.173529 0.109889
H28   H     H_    0.270564 0.023708 0.667242 0.113162
C25   C     C_3   0.696063 0.463112 0.060853 -0.771189
C26   C     C_3   0.678912 0.548294 0.480769 -0.898331
C27   C     C_3   0.180509 0.959266 0.006742 -0.973970
C28   C     C_3   0.177903 0.040494 0.482599 -0.937891
H29   H     H_    0.665363 0.455915 0.936948 0.287499
H30   H     H_    0.667623 0.550443 0.348375 0.253580
H31   H     H_    0.155520 0.965651 0.878110 0.286560
H32   H     H_    0.156668 0.030547 0.354264 0.261544
H33   H     H_    0.661945 0.481963 0.133655 0.250146
H34   H     H_    0.632534 0.530428 0.515413 0.274731
H35   H     H_    0.143676 0.973131 0.079312 0.257326
H36   H     H_    0.138619 0.028099 0.549790 0.273053
H37   H     H_    0.714814 0.420659 0.116071 0.261622
H38   H     H_    0.685990 0.593083 0.529895 0.272810
H39   H     H_    0.190474 0.912330 0.031670 0.250045
H40   H     H_    0.185807 0.087986 0.498167 0.268055
O45   O     O_3   0.081330 0.529680 0.090830 -0.352238
O46   O     O_3   0.081330 0.470320 0.590830 -0.409734
O47   O     O_3   0.581330 0.029680 0.090830 -0.350386
O48   O     O_3   0.581330 0.970320 0.590830 -0.423127
P13   P     P_3+3 0.911955 0.691771 0.075187 0.509664
P14   P     P_3+3 0.914741 0.306816 0.575368 0.444790
P15   P     P_3+3 0.407098 0.188365 0.075842 0.528582
P16   P     P_3+3 0.414421 0.807067 0.574971 0.450869
C29   C     C_3   0.012373 0.216198 0.606915 0.536539
C30   C     C_3   0.007156 0.783428 0.094438 0.544148
C31   C     C_3   0.509672 0.714688 0.603946 0.543141
C32   C     C_3   0.494962 0.281714 0.074461 0.512889
H41   H     H_    0.042054 0.127551 0.533413 0.191771
H42   H     H_    0.058492 0.867268 0.074161 0.143742
H43   H     H_    0.531571 0.625142 0.520538 0.189065
H44   H     H_    0.440248 0.355880 0.946891 0.105587
C33   C     C_R   0.131727 0.692975 0.837901 0.277594
C34   C     C_R   0.129585 0.306484 0.337575 0.199951
C35   C     C_R   0.634332 0.191977 0.834474 0.248883
C36   C     C_R   0.629545 0.806198 0.338789 0.198449
C37   C     C_R   0.179902 0.737111 0.907292 -0.049905
C38   C     C_R   0.180032 0.263390 0.403977 0.057946
C39   C     C_R   0.680357 0.237360 0.905992 -0.012095
C40   C     C_R   0.680780 0.763582 0.405041 0.060770
C41   C     C_R   0.781385 0.323917 0.043635 -0.066019
C42   C     C_R   0.783289 0.677293 0.540977 -0.038500
C43   C     C_R   0.282542 0.822846 0.042293 -0.064092
C44   C     C_R   0.281824 0.176551 0.539635 -0.026232
C45   C     C_R   0.739710 0.330002 0.888463 -0.042732
C46   C     C_R   0.745113 0.673866 0.382031 -0.178737
C47   C     C_R   0.240740 0.828684 0.887294 -0.097975
C48   C     C_R   0.243958 0.173473 0.380555 -0.170901
C49   C     C_R   0.189007 0.788237 0.823796 -0.053012
C50   C     C_R   0.193040 0.214674 0.315717 -0.086331
C51   C     C_R   0.689773 0.288415 0.822240 0.026151
C52   C     C_R   0.694434 0.715165 0.316520 -0.091760
C53   C     C_R   0.833628 0.366096 0.108653 0.124004
C54   C     C_R   0.833538 0.633538 0.608533 0.114449
C55   C     C_R   0.333969 0.865710 0.107940 0.132092
C56   C     C_R   0.331651 0.132550 0.607853 0.103525
H45   H     H_    0.745188 0.367211 0.815863 0.151647
H46   H     H_    0.752498 0.638103 0.307068 0.162399
H47   H     H_    0.246525 0.865607 0.814330 0.167212
H48   H     H_    0.251439 0.137827 0.305503 0.170148
H49   H     H_    0.157997 0.796711 0.704924 0.212381
H50   H     H_    0.164323 0.207697 0.194166 0.196411
H51   H     H_    0.660435 0.296126 0.701547 0.203749
H52   H     H_    0.666108 0.708323 0.194572 0.195676
C57   C     C_R   0.871157 0.357688 0.268082 -0.368407
C58   C     C_R   0.868729 0.640056 0.770051 -0.298207
C59   C     C_R   0.371042 0.857666 0.267727 -0.367157
C60   C     C_R   0.364773 0.137575 0.770718 -0.300576
C61   C     C_R   0.158509 0.636756 0.087864 0.266527
C62   C     C_R   0.157386 0.362922 0.586654 0.295513
C63   C     C_R   0.659431 0.136503 0.086425 0.270763
C64   C     C_R   0.657174 0.862647 0.587902 0.289113
C65   C     C_R   0.208704 0.680030 0.155271 0.066291
C66   C     C_R   0.207611 0.319117 0.653277 0.031527
C67   C     C_R   0.708271 0.180631 0.154945 0.042519
C68   C     C_R   0.707673 0.819164 0.654614 0.043094
C69   C     C_R   0.219707 0.730216 0.065854 0.090011
C70   C     C_R   0.218218 0.268878 0.563811 0.121977
C71   C     C_R   0.718504 0.231340 0.066598 0.099534
C72   C     C_R   0.718880 0.769143 0.565220 0.122644
C73   C     C_R   0.248156 0.674400 0.310606 0.006316
C74   C     C_R   0.244901 0.322616 0.810768 0.024183
C75   C     C_R   0.746849 0.175360 0.310730 -0.001123
C76   C     C_R   0.745210 0.823241 0.811567 -0.000618
C77   C     C_R   0.790036 0.219362 0.386741 -0.177654
C78   C     C_R   0.786075 0.777623 0.888461 -0.169506
C79   C     C_R   0.290819 0.718917 0.386145 -0.156486
C80   C     C_R   0.283531 0.275683 0.887452 -0.140576
C81   C     C_R   0.806332 0.268605 0.299903 -0.042733
C82   C     C_R   0.803801 0.729490 0.800245 -0.103259
C83   C     C_R   0.307222 0.767903 0.298694 -0.033880
C84   C     C_R   0.300844 0.227521 0.799517 -0.125529
C85   C     C_R   0.769126 0.274667 0.136864 0.059145
C86   C     C_R   0.769412 0.725470 0.635297 0.084058
C87   C     C_R   0.270594 0.773468 0.135392 0.066160
C88   C     C_R   0.267795 0.224531 0.634038 0.093836
C89   C     C_R   0.858785 0.310632 0.365150 0.170657
C90   C     C_R   0.855255 0.686621 0.866906 0.265809
C91   C     C_R   0.358773 0.810572 0.364616 0.176882
C92   C     C_R   0.350546 0.183469 0.867811 0.256262
C93   C     C_R   0.120199 0.645141 0.931211 -0.405607
C94   C     C_R   0.116955 0.353675 0.432172 -0.481623
C95   C     C_R   0.623600 0.143640 0.927418 -0.394203
C96   C     C_R   0.616306 0.852971 0.434026 -0.478087
H53   H     H_    0.241998 0.637046 0.381697 0.198922
H54   H     H_    0.238079 0.359262 0.882857 0.194858
H55   H     H_    0.741093 0.137625 0.380253 0.214816
H56   H     H_    0.737576 0.859618 0.883251 0.206529
H57   H     H_    0.910733 0.389078 0.319037 0.162565
H58   H     H_    0.907553 0.607894 0.822402 0.161040
H59   H     H_    0.410070 0.889430 0.319229 0.161496
H60   H     H_    0.402909 0.104960 0.823732 0.166547
H61   H     H_    0.082606 0.612510 0.877942 0.141581
H62   H     H_    0.077114 0.385224 0.381828 0.189695
H63   H     H_    0.586933 0.110432 0.873633 0.137954
H64   H     H_    0.575930 0.884133 0.384176 0.189017
N1    N     N_R   0.072988 0.241754 0.714727 0.245555
O49   O     O_R   0.131804 0.213874 0.751412 -0.402664
O50   O     O_R   0.073330 0.297288 0.741082 -0.350154
N2    N     N_R   0.068093 0.759374 0.206566 0.253248
O51   O     O_R   0.126411 0.787681 0.237304 -0.401076
O52   O     O_R   0.070305 0.704169 0.238596 -0.328284
N3    N     N_R   0.571465 0.738482 0.711621 0.252077
O53   O     O_R   0.630080 0.710260 0.738640 -0.392656
O54   O     O_R   0.572948 0.793790 0.742388 -0.347561
N4    N     N_R   0.556326 0.267426 0.200715 0.247820
O55   O     O_R   0.589480 0.306732 0.298205 -0.300766
O56   O     O_R   0.575178 0.213265 0.223843 -0.348756
N5    N     N_R   0.334723 0.502297 0.501738 0.286850
O57   O     O_R   0.400676 0.495986 0.563183 -0.332618
O58   O     O_R   0.303469 0.549884 0.528686 -0.399743
N6    N     N_R   0.343916 0.472912 0.937221 0.262742
O59   O     O_R   0.321326 0.432929 0.019349 -0.465114
O60   O     O_R   0.403229 0.465744 0.900427 -0.315203
N7    N     N_R   0.837822 0.004963 0.493712 0.283953
O61   O     O_R   0.903303 0.996919 0.557575 -0.270856
O62   O     O_R   0.808480 0.053818 0.517383 -0.396501
N8    N     N_R   0.834255 0.990724 0.001168 0.256610
O63   O     O_R   0.804470 0.941082 0.013207 -0.437003
O64   O     O_R   0.898294 0.998064 0.077456 -0.249833
N9    N     N_R   0.299292 0.402454 0.490611 0.163802
O65   O     O_R   0.323857 0.401392 0.644513 -0.391623
O66   O     O_R   0.286309 0.353416 0.414611 -0.506931
N10   N     N_R   0.318093 0.563799 0.046625 0.199713
O67   O     O_R   0.356860 0.545126 0.181045 -0.295700
O68   O     O_R   0.300479 0.618421 0.032716 -0.513444
N11   N     N_R   0.799985 0.906709 0.500520 0.170642
O69   O     O_R   0.822017 0.909543 0.655146 -0.372127
O70   O     O_R   0.787324 0.856242 0.432331 -0.538438
N12   N     N_R   0.799053 0.090420 0.003645 0.164360
O71   O     O_R   0.820295 0.087270 0.158332 -0.339037
O72   O     O_R   0.789128 0.141314 0.935645 -0.513972
C97   C     C_2   0.730701 0.565091 0.030068 0.707498
H65   H     H_    0.696210 0.582660 0.099327 -0.017256
O73   O     O_2   0.746530 0.595847 0.928063 -0.574408
C98   C     C_2   0.722021 0.449040 0.565763 0.699283
H66   H     H_    0.686642 0.439721 0.641597 -0.013551
O74   O     O_2   0.742958 0.408920 0.495738 -0.533884
C99   C     C_2   0.229885 0.057510 0.060913 0.739561
H67   H     H_    0.193601 0.070926 0.130724 -0.029344
O75   O     O_2   0.254184 0.094421 0.987207 -0.571122
C100  C     C_2   0.228261 0.943898 0.561157 0.706295
H68   H     H_    0.191569 0.931944 0.631347 -0.033890
O76   O     O_2   0.253378 0.905713 0.492768 -0.535313
C101  C     C_2   0.015276 0.233168 0.438238 0.284832
H69   H     H_    0.997097 0.275318 0.389178 0.002926
O77   O     O_2   0.044681 0.202111 0.359484 -0.591118
C102  C     C_2   0.012807 0.767600 0.927799 0.206526
H70   H     H_    0.035377 0.798300 0.858306 0.041470
O78   O     O_2   0.998947 0.718933 0.874403 -0.621845
C103  C     C_2   0.513410 0.731710 0.436229 0.282866
H71   H     H_    0.492600 0.772609 0.383706 -0.000291
O79   O     O_2   0.547453 0.702542 0.363576 -0.593138
C104  C     C_2   0.503802 0.256753 0.917288 0.328821
H72   H     H_    0.518100 0.285079 0.830484 0.041626
O80   O     O_2   0.501471 0.204652 0.890047 -0.623222
N13   N     N_R   0.055752 0.124312 0.777708 0.274423
O81   O     O_R   0.106579 0.087881 0.781820 -0.372988
O82   O     O_R   0.039578 0.137862 0.910825 -0.320122
N14   N     N_R   0.012129 0.874751 0.267421 0.281195
O83   O     O_R   0.967459 0.913779 0.290306 -0.284356
O84   O     O_R   0.065867 0.864637 0.383628 -0.290636
N15   N     N_R   0.552515 0.620757 0.766361 0.275579
O85   O     O_R   0.593884 0.576953 0.761138 -0.359372
O86   O     O_R   0.547097 0.639857 0.904895 -0.312434
N16   N     N_R   0.545562 0.377148 0.997186 0.253879
O87   O     O_R   0.538806 0.429755 0.937673 -0.305128
O88   O     O_R   0.605258 0.351089 0.017365 -0.426360
C105  C     C_2   0.926367 0.167216 0.123928 1.049682
H73   H     H_    0.905362 0.181795 0.222637 -0.044462
O89   O     O_2   0.955858 0.120054 0.130124 -0.442130
C106  C     C_2   0.933106 0.834769 0.610952 0.962658
H74   H     H_    0.910176 0.824612 0.710200 -0.113947
O90   O     O_2   0.968759 0.878212 0.613465 -0.459600
C107  C     C_2   0.434393 0.660297 0.122827 1.013617
H75   H     H_    0.414159 0.671984 0.224743 -0.007999
O91   O     O_2   0.466863 0.614876 0.122918 -0.463551
C108  C     C_2   0.473125 0.359573 0.599616 0.773452
H76   H     H_    0.454709 0.385125 0.687028 0.110079
O92   O     O_2   0.526068 0.374434 0.561841 -0.487285
C109  C     C_2   0.804736 0.213809 0.560883 0.811589
H77   H     H_    0.838107 0.179600 0.622013 0.008907
O93   O     O_2   0.771638 0.242658 0.635418 -0.556834
C110  C     C_2   0.793596 0.778109 0.062197 0.685253
H78   H     H_    0.772865 0.742355 0.117560 0.042790
O94   O     O_2   0.816998 0.820626 0.141565 -0.580500
C111  C     C_2   0.301543 0.716177 0.560010 0.797940
H79   H     H_    0.333037 0.682422 0.629236 0.006761
O95   O     O_2   0.267398 0.747758 0.625234 -0.546405
C112  C     C_2   0.287665 0.273830 0.059095 0.725742
H80   H     H_    0.266651 0.236732 0.108164 0.037962
O96   O     O_2   0.310388 0.315110 0.143917 -0.586394
C113  C     C_2   0.945937 0.119817 0.587129 0.604656
H81   H     H_    0.923362 0.104830 0.683482 0.086593
O97   O     O_2   0.913288 0.115543 0.449116 -0.523573
C114  C     C_2   0.951089 0.880385 0.986360 0.643842
H82   H     H_    0.898791 0.864546 0.972600 0.102542
O98   O     O_2   0.961977 0.921780 0.905935 -0.460624
C115  C     C_2   0.438921 0.620316 0.590687 0.604456
H83   H     H_    0.419809 0.603860 0.690671 0.086851
O99   O     O_2   0.401611 0.619093 0.456616 -0.553356
C116  C     C_2   0.471277 0.383009 0.185477 0.901909
H84   H     H_    0.421714 0.377969 0.214536 0.017586
O100  O     O_2   0.511973 0.418794 0.258953 -0.474870
C117  C     C_2   0.188946 0.428740 0.207006 0.465590
H85   H     H_    0.219079 0.398255 0.154540 0.115472
O101  O     O_2   0.126467 0.428162 0.164438 -0.502986
C118  C     C_2   0.196581 0.572469 0.735432 0.491708
H86   H     H_    0.141685 0.571838 0.680960 0.070455
O102  O     O_2   0.230511 0.615172 0.716688 -0.582595
C119  C     C_2   0.688324 0.928195 0.216435 0.474870
H87   H     H_    0.717785 0.895201 0.170655 0.114038
O103  O     O_2   0.625912 0.928806 0.170949 -0.505667
C120  C     C_2   0.687640 0.070458 0.708774 0.506072
H88   H     H_    0.632031 0.070162 0.665847 0.067793
O104  O     O_2   0.721386 0.107434 0.659218 -0.539799

loop_
_geom_bond_atom_site_label_1
_geom_bond_atom_site_label_2
_geom_bond_distance
_ccdc_geom_bond_type
C112  O96   1.216526 D    
C2    C30   1.579952 S    
C15   H19   1.109850 S    
P6    O26   1.568132 D    
C117  H85   1.082168 S    
C105  H73   1.081452 S    
P6    Ba2   3.495542 S    
O23   P16   1.793405 S    
C42   C46   1.402414 A    
C43   C87   1.434904 A    
C80   C112  1.458836 S    
C19   H23   1.108029 S    
O10   Ba2   2.823647 S    
N8    O64   1.300227 A    
C99   H67   1.083302 S    
N6    O59   1.297635 A    
C6    H6    1.108493 S    
O14   P13   1.540381 D    
C100  H68   1.084043 S    
O39   C16   1.390448 S    
C45   H45   1.075017 S    
C34   C38   1.423135 A    
O12   Ba4   2.823647 S    
C84   C88   1.423078 A    
C43   C55   1.437139 A    
P2    O18   1.754442 S    
C2    C114  1.504997 S    
C47   C49   1.399518 A    
P4    O8    1.601005 S    
Ba3   O48   3.018885 S    
Ba1   O46   3.018885 S    
P15   C92   1.881327 S    
C9    H13   1.101428 S    
C63   C95   1.395317 A    
O1    Ba1   2.912250 S    
C27   H35   1.111697 S    
C118  H86   1.082225 S    
C14   H18   1.109465 S    
O15   P16   1.541161 D    
C73   C79   1.389341 A    
P4    C56   1.916648 S    
C110  H78   1.075625 S    
C66   C70   1.425809 A    
N1    O49   1.301099 A    
C38   C70   1.412560 A    
O19   C23   1.409115 S    
C84   C92   1.433404 A    
N2    O52   1.290212 A    
C48   H48   1.071721 S    
O4    Ba4   2.904552 S    
C34   C94   1.408955 A    
C7    H7    1.109222 S    
P6    O38   1.757647 S    
C31   N3    1.462372 S    
P1    O1    1.568282 D    
C37   C69   1.415802 A    
P8    O28   1.568132 D    
N16   O87   1.300701 A    
P9    O29   1.746368 S    
P1    Ba1   3.494017 S    
P11   O31   1.746960 S    
P3    Ba3   3.494017 S    
P12   O32   1.757591 S    
C32   C104  1.514630 S    
C20   N12   1.454753 S    
P12   C35   1.873545 S    
C30   C102  1.507096 S    
O43   C7    1.413793 S    
Ba2   O46   2.861308 S    
N11   O70   1.294509 A    
O41   C5    1.411807 S    
P3    O3    1.568282 D    
O44   C8    1.407550 S    
N14   O84   1.300744 A    
C40   C72   1.414703 A    
P12   O36   1.542756 D    
C104  O80   1.213933 D    
P4    Ba4   3.491317 S    
C30   N2    1.465176 S    
C60   H60   1.082391 S    
O2    Ba2   2.904552 S    
C3    H43   1.111208 S    
C44   C88   1.430549 A    
C4    H44   1.112521 S    
P3    O7    1.608040 S    
C5    H1    1.101989 S    
P5    C62   1.908460 S    
C9    H9    1.108044 S    
O11   Ba3   2.832350 S    
C11   H11   1.110713 S    
P7    O48   1.607228 S    
P9    O41   1.749899 S    
C13   C117  1.480015 S    
P5    O46   1.607228 S    
P11   O35   1.544666 D    
C111  O95   1.212572 D    
P12   O44   1.746859 S    
O24   P15   1.780375 S    
C53   C57   1.411816 A    
C25   H29   1.110264 S    
C3    C115  1.491070 S    
C51   H51   1.078977 S    
C75   H55   1.070309 S    
P3    C55   1.933833 S    
N15   O86   1.296665 A    
C73   H53   1.073201 S    
C29   C101  1.514089 S    
C96   H64   1.081313 S    
C8    H4    1.102999 S    
C21   C25   1.527027 S    
C16   C120  1.493103 S    
C35   C95   1.408339 A    
C71   C85   1.444315 A    
N9    O65   1.299270 A    
C26   H38   1.105820 S    
C109  O93   1.213222 D    
P2    Ba2   3.491317 S    
C21   C97   1.505393 S    
C58   C90   1.415548 A    
N5    O57   1.300948 A    
C113  O97   1.216782 D    
C19   N7    1.457398 S    
C13   C17   1.549786 S    
C74   C80   1.389588 A    
C14   C118  1.499936 S    
Ba4   O47   3.018464 S    
N10   O68   1.293826 A    
C78   C82   1.426587 A    
P7    O27   1.566756 D    
C106  O90   1.219832 D    
O3    Ba3   2.912250 S    
C101  H69   1.078172 S    
C83   C91   1.436167 A    
C36   C96   1.408876 A    
C81   C89   1.436190 A    
C6    H2    1.098839 S    
C43   C47   1.402200 A    
C44   C48   1.401019 A    
C102  H70   1.084491 S    
C4    N16   1.474276 S    
C116  H84   1.077000 S    
C46   H46   1.072761 S    
O11   P16   1.747199 S    
O23   C31   1.441206 S    
C28   H32   1.109862 S    
C15   C19   1.548609 S    
C48   C50   1.396327 A    
P7    Ba3   3.492767 S    
O21   C29   1.441660 S    
C120  O104  1.217299 D    
C80   C84   1.422688 A    
C1    H41   1.110945 S    
N13   O81   1.300511 A    
P8    C63   1.906406 S    
C42   C86   1.432613 A    
C97   O73   1.220565 D    
O20   C24   1.409577 S    
C27   H31   1.110695 S    
C119  O103  1.210126 D    
C10   H10   1.107655 S    
C41   C85   1.435112 A    
C17   H21   1.107851 S    
O13   P14   1.542077 D    
C21   H25   1.101356 S    
C41   C53   1.435453 A    
C23   H27   1.105584 S    
C66   C74   1.386405 A    
C42   C54   1.433570 A    
C36   C40   1.424945 A    
C114  H82   1.081864 S    
C65   C69   1.425701 A    
N12   O71   1.299765 A    
O10   P13   1.751288 S    
C22   C98   1.505334 S    
C68   C72   1.424728 A    
C17   N5    1.458600 S    
C9    C105  1.485777 S    
C7    C11   1.519441 S    
C35   C39   1.428325 A    
C20   H24   1.109265 S    
N6    O60   1.298726 A    
C100  O76   1.221493 D    
C33   C37   1.426684 A    
P10   O30   1.755644 S    
C93   H61   1.082226 S    
C25   H33   1.110160 S    
C103  H71   1.076194 S    
C81   C85   1.430379 A    
C61   C93   1.396472 A    
C57   H57   1.082125 S    
O9    Ba1   2.832350 S    
C75   C77   1.387326 A    
Ba1   O45   2.873706 S    
O42   C6    1.411885 S    
C55   C59   1.410658 A    
C16   C20   1.554099 S    
Ba1   Ba2   4.713676 S    
C20   N8    1.462421 S    
C12   H16   1.098416 S    
C47   H47   1.073240 S    
P5    Ba1   3.492767 S    
C118  O102  1.220389 D    
C4    C32   1.576836 S    
C24   C100  1.503827 S    
P4    O20   1.753166 S    
C17   N9    1.457973 S    
C64   C96   1.400212 A    
C18   H22   1.108393 S    
P6    C61   1.900551 S    
C110  O94   1.219017 D    
C62   C66   1.432169 A    
C15   C119  1.484425 S    
P10   O42   1.751936 S    
P6    O45   1.614378 S    
O5    Ba2   2.874961 S    
P11   C36   1.867769 S    
N3    O53   1.301459 A    
C10   C106  1.481733 S    
O7    Ba4   2.874961 S    
C54   C58   1.410167 A    
P9    C34   1.862684 S    
P2    C54   1.925864 S    
N7    O62   1.296344 A    
C112  H80   1.074871 S    
P14   C89   1.890112 S    
C79   C83   1.428231 A    
N16   O88   1.299842 A    
C10   H14   1.093544 S    
C117  O101  1.209642 D    
C3    N15   1.468871 S    
N4    O56   1.294225 A    
C105  O89   1.220571 D    
C38   C50   1.405675 A    
O31   Ba3   2.824336 S    
C4    C116  1.505742 S    
C107  H75   1.078853 S    
C12   H12   1.110941 S    
P1    O5    1.608040 S    
O8    Ba3   2.862554 S    
C29   N1    1.462593 S    
N4    O55   1.302069 A    
C65   C73   1.387537 A    
N15   O85   1.300667 A    
C13   H17   1.109629 S    
C5    C9    1.507980 S    
N8    O63   1.297456 A    
C23   C99   1.502666 S    
C24   H28   1.108188 S    
C115  H83   1.084316 S    
P8    O40   1.754733 S    
C63   C67   1.432282 A    
C11   C107  1.486898 S    
P11   O43   1.752195 S    
O21   P14   1.796917 S    
O29   Ba1   2.824336 S    
C33   C93   1.405868 A    
C76   C78   1.387577 A    
C37   C49   1.404923 A    
C1    N13   1.468774 S    
C108  H76   1.080527 S    
C28   H36   1.110540 S    
C72   C86   1.441021 A    
O6    Ba1   2.862554 S    
C49   H49   1.080052 S    
O22   C30   1.440109 S    
C78   C110  1.465774 S    
C1    C29   1.598009 S    
C2    H42   1.115228 S    
P5    O25   1.566756 D    
C24   C28   1.530686 S    
P7    C64   1.907489 S    
N1    O50   1.290470 A    
C56   C60   1.406628 A    
C11   H15   1.099739 S    
C109  H77   1.077004 S    
C69   C87   1.444711 A    
N2    O51   1.302043 A    
C95   H63   1.081866 S    
O25   Ba1   2.906906 S    
C52   H52   1.080199 S    
C1    C113  1.488269 S    
C41   C45   1.403013 A    
C113  H81   1.084922 S    
O27   Ba3   2.906906 S    
C111  H79   1.078291 S    
C98   H66   1.085186 S    
Ba4   O48   2.861308 S    
Ba3   Ba4   4.713676 S    
C44   C56   1.433898 A    
C6    C10   1.502010 S    
O17   C21   1.403092 S    
C119  H87   1.082303 S    
P1    O17   1.749526 S    
C77   C109  1.461946 S    
C103  O79   1.219233 D    
O9    P14   1.746980 S    
P3    O19   1.752298 S    
O24   C32   1.427880 S    
Ba2   O45   3.018464 S    
P4    O4    1.566901 D    
O28   Ba4   2.914700 S    
C27   H39   1.102375 S    
C74   H54   1.070044 S    
C19   N11   1.451877 S    
O30   Ba2   2.833004 S    
C22   C26   1.535632 S    
N14   O83   1.303173 A    
C102  O78   1.212960 D    
C104  H72   1.074720 S    
C116  O100  1.221595 D    
C25   H37   1.104504 S    
O32   Ba4   2.833004 S    
C59   C91   1.416323 A    
P9    O33   1.543514 D    
C60   C92   1.410265 A    
C57   C89   1.417274 A    
C18   N6    1.457903 S    
C14   C18   1.556473 S    
C16   H20   1.110076 S    
C77   C81   1.429092 A    
O37   C14   1.393570 S    
C97   H65   1.083265 S    
C45   C51   1.400003 A    
C67   C71   1.425911 A    
C46   C52   1.396204 A    
C39   C71   1.417992 A    
P13   C90   1.884556 S    
N3    O54   1.291961 A    
P2    O2    1.566901 D    
C82   C90   1.432388 A    
O26   Ba2   2.914700 S    
C76   H56   1.067389 S    
P5    O37   1.752966 S    
C7    H3    1.102109 S    
P7    O39   1.747934 S    
C114  O98   1.220476 D    
P8    O47   1.614378 S    
N9    O66   1.295441 A    
C61   C65   1.432171 A    
O40   C15   1.392501 S    
N12   O72   1.295151 A    
O18   C22   1.410358 S    
C83   C87   1.428052 A    
C64   C68   1.430518 A    
C59   H59   1.082155 S    
N5    O58   1.298505 A    
P10   C33   1.870083 S    
C18   N10   1.453324 S    
P16   C91   1.888564 S    
C12   C108  1.505836 S    
P1    C53   1.932112 S    
N10   O67   1.300752 A    
C32   N4    1.466455 S    
C8    C12   1.532424 S    
C115  O99   1.217024 D    
C23   C27   1.531696 S    
C26   H30   1.108408 S    
C70   C88   1.440881 A    
C106  H74   1.081504 S    
C39   C51   1.406324 A    
C101  O77   1.219096 D    
C82   C86   1.426799 A    
C3    C31   1.599908 S    
N11   O69   1.300813 A    
P2    O6    1.601005 S    
C108  O92   1.219816 D    
C22   H26   1.107645 S    
C5    H5    1.111801 S    
C99   O75   1.220778 D    
C67   C75   1.384243 A    
C98   O74   1.221777 D    
C40   C52   1.405575 A    
O38   C13   1.397233 S    
N7    O61   1.301008 A    
P10   O34   1.543816 D    
C2    N14   1.473147 S    
C31   C103  1.510852 S    
P8    Ba4   3.495542 S    
C79   C111  1.460769 S    
C107  O91   1.220513 D    
O22   P13   1.796849 S    
C120  H88   1.080217 S    
Ba3   O47   2.873706 S    
N13   O82   1.296023 A    
C8    H8    1.107864 S    
O16   P15   1.536551 D    
C94   H62   1.081282 S    
C26   H34   1.110985 S    
C68   C76   1.384878 A    
C28   H40   1.102153 S    
C62   C94   1.399787 A    
C50   H50   1.080107 S    
C58   H58   1.082172 S    
O12   P15   1.763996 S    
