data_mof_unit_46937.cif
_audit_creation_date              2013-03-05T16:06:01-0500
_audit_creation_method            fapswitch 2.2
_symmetry_space_group_name_H-M    P1
_symmetry_Int_Tables_number       1
_space_group_crystal_system       triclinic
_cell_length_a                    10.826381
_cell_length_b                    9.506832
_cell_length_c                    23.528213
_cell_angle_alpha                 89.951887
_cell_angle_beta                  90.283277
_cell_angle_gamma                 89.953636
_cell_volume                      2421.60031442

loop_
_atom_site_label
_atom_site_type_symbol
_atom_site_description
_atom_site_fract_x
_atom_site_fract_y
_atom_site_fract_z
_atom_type_partial_charge
O1    O     O_R   0.319640 0.618740 0.500000 -0.587117
O2    O     O_R   0.680360 0.381260 0.500000 -0.587114
O3    O     O_R   0.680360 0.618740 0.500000 -0.588486
O4    O     O_R   0.319640 0.381260 0.500000 -0.588482
C1    C     C_R   0.262028 0.500033 0.499957 0.796408
C2    C     C_R   0.737972 0.499967 0.500043 0.796397
O5    O     O_R   0.499960 0.618810 0.417880 -0.584986
O6    O     O_R   0.500040 0.381190 0.582120 -0.584994
O7    O     O_R   0.500040 0.618810 0.582120 -0.581715
O8    O     O_R   0.499960 0.381190 0.417880 -0.581681
C3    C     C_R   0.499576 0.500071 0.390867 0.815350
C4    C     C_R   0.500427 0.499928 0.609134 0.815388
Cu1   Cu    Cu3+1 0.500000 0.640660 0.500000 0.949159
Cu2   Cu    Cu3+1 0.500000 0.359340 0.500000 0.949180
C5    C     C_R   0.612665 0.480317 0.880693 0.550636
C6    C     C_R   0.387460 0.519756 0.119314 0.550673
N1    N     N_R   0.504369 0.502551 0.851923 -0.468164
N2    N     N_R   0.495740 0.497437 0.148084 -0.468173
C7    C     C_R   0.395785 0.525658 0.879530 0.547676
C8    C     C_R   0.604315 0.474273 0.120478 0.547662
C9    C     C_R   0.392072 0.523749 0.938979 -0.026221
C10   C     C_R   0.608036 0.476219 0.061029 -0.026216
C11   C     C_R   0.502109 0.502104 0.969952 -0.013269
C12   C     C_R   0.498004 0.497892 0.030056 -0.013264
C13   C     C_R   0.615865 0.484837 0.940873 -0.086394
C14   C     C_R   0.384253 0.515192 0.059135 -0.086416
C15   C     C_R   0.279868 0.539698 0.967592 -0.195837
C16   C     C_R   0.720241 0.460281 0.032417 -0.195862
C17   C     C_R   0.273623 0.531826 0.026804 -0.032029
C18   C     C_R   0.726494 0.468199 0.973206 -0.032043
O9    O     O_2   0.715161 0.450104 0.850791 -0.498013
O10   O     O_2   0.284992 0.550113 0.149214 -0.497935
O11   O     O_2   0.291300 0.548212 0.849303 -0.515069
O12   O     O_2   0.708784 0.451627 0.150705 -0.515111
H1    H     H_    0.194955 0.553445 0.943570 0.211160
H2    H     H_    0.805152 0.446522 0.056440 0.211157
C19   C     C_R   0.511753 0.628089 0.238571 0.205112
C20   C     C_R   0.489077 0.371799 0.761433 0.205174
C21   C     C_R   0.512474 0.627060 0.298141 -0.197808
C22   C     C_R   0.488311 0.372837 0.701862 -0.197771
H3    H     H_    0.524739 0.725082 0.320966 0.158481
H4    H     H_    0.476632 0.274732 0.679039 0.158449
C23   C     C_R   0.498452 0.500328 0.328268 -0.080728
C24   C     C_R   0.501571 0.499670 0.671735 -0.080779
C25   C     C_R   0.483138 0.374003 0.298163 -0.212964
C26   C     C_R   0.516140 0.626094 0.701842 -0.213016
H5    H     H_    0.471771 0.274912 0.320299 0.162672
H6    H     H_    0.526873 0.725273 0.679711 0.162771
C27   C     C_R   0.481703 0.374305 0.238988 -0.132620
C28   C     C_R   0.517603 0.625790 0.761017 -0.132594
H7    H     H_    0.469760 0.276225 0.216217 0.150528
H8    H     H_    0.528950 0.723952 0.783789 0.150504
C29   C     C_R   0.495943 0.500401 0.209019 0.358125
C30   C     C_R   0.504158 0.499589 0.790987 0.358103
C31   C     C_R   0.063967 0.372169 0.500004 -0.173736
C32   C     C_R   0.936033 0.627831 0.499996 -0.173739
C33   C     C_R   0.936232 0.372131 0.500069 -0.172818
C34   C     C_R   0.063768 0.627869 0.499931 -0.172817
H9    H     H_    0.112111 0.272232 0.500003 0.150570
H10   H     H_    0.887889 0.727768 0.499997 0.150569
H11   H     H_    0.888244 0.272186 0.500129 0.150666
H12   H     H_    0.111756 0.727814 0.499870 0.150664
C35   C     C_R   0.871790 0.499961 0.500049 -0.019516
C36   C     C_R   0.128210 0.500039 0.499950 -0.019516
C37   C     C_R   0.422927 0.074602 0.464677 -0.022911
C38   C     C_R   0.577073 0.925398 0.535323 -0.022979
C39   C     C_R   0.577072 0.074318 0.535323 -0.023657
C40   C     C_R   0.422928 0.925682 0.464677 -0.023635
H13   H     H_    0.361226 0.130934 0.436395 0.119787
H14   H     H_    0.638774 0.869066 0.563605 0.119852
H15   H     H_    0.638772 0.130422 0.563603 0.121794
H16   H     H_    0.361227 0.869578 0.436397 0.121848
N3    N     N_R   0.500000 0.852070 0.500000 -0.157757
N4    N     N_R   0.500000 0.147930 0.500000 -0.157735
C41   C     C_2   0.148234 0.534098 0.051658 0.935774
O13   O     O_2   0.114641 0.438743 0.082879 -0.520398
O14   O     O_R   0.065965 0.641260 0.036441 -0.735951
H17   H     H_    0.982444 0.630517 0.055233 0.337481
C42   C     C_2   0.851887 0.465947 0.948357 0.935767
O15   O     O_2   0.885493 0.561336 0.917157 -0.520310
O16   O     O_R   0.934150 0.358767 0.963559 -0.735980
H18   H     H_    0.017675 0.369522 0.944772 0.337499
C43   C     C_3   0.528542 0.764283 0.206870 -0.814591
H19   H     H_    0.540998 0.854518 0.236311 0.222666
H20   H     H_    0.611464 0.757397 0.179418 0.247479
H21   H     H_    0.446117 0.785459 0.179930 0.251140
C44   C     C_3   0.473063 0.235483 0.793128 -0.814690
H22   H     H_    0.460998 0.145191 0.763683 0.222559
H23   H     H_    0.555652 0.214827 0.820021 0.251507
H24   H     H_    0.390181 0.241798 0.820623 0.247223

loop_
_geom_bond_atom_site_label_1
_geom_bond_atom_site_label_2
_geom_bond_distance
_ccdc_geom_bond_type
C34   H12   1.083298 S    
C44   H22   1.110912 S    
C31   H9    1.083296 S    
C15   C17   1.397063 A    
O3    C2    1.289524 A    
O16   H18   1.013694 S    
C21   H3    1.083860 S    
O14   H17   1.013695 S    
O5    C3    1.295923 A    
C28   C30   1.399188 A    
O1    C1    1.289866 A    
Cu2   N4    2.009840 S    
C7    C9    1.399610 A    
C12   C14   1.421261 A    
C37   H13   1.081772 S    
C5    C13   1.416867 A    
O7    Cu1   1.943096 S    
N2    C29   1.433971 S    
C27   H7    1.083302 S    
C28   H8    1.083231 S    
C11   C12   1.415596 A    
C3    C23   1.472821 S    
C22   C24   1.405995 A    
C39   H15   1.081761 S    
O3    Cu1   1.963566 S    
C40   H16   1.081761 S    
C8    O12   1.350086 S    
C22   H4    1.083790 S    
C38   C39   1.415756 A    
C9    C15   1.399932 A    
C10   C16   1.399925 A    
Cu1   Cu2   2.674462 S    
C6    C14   1.416860 A    
O2    C2    1.289865 A    
C24   C26   1.404220 A    
C33   C35   1.400790 A    
C25   H5    1.083427 S    
C9    C11   1.408324 A    
C34   C36   1.400791 A    
C26   H6    1.083343 S    
O8    Cu2   1.943095 S    
C42   O16   1.397906 S    
C21   C23   1.406069 A    
C15   H1    1.084525 S    
C40   N3    1.366725 A    
C38   N3    1.366751 A    
C37   N4    1.366753 A    
C32   H10   1.083296 S    
C1    C36   1.448763 S    
C2    C35   1.448763 S    
C41   O13   1.222993 D    
C23   C25   1.404297 A    
C43   H19   1.110940 S    
C20   C30   1.409518 A    
C25   C27   1.392306 A    
O6    C4    1.295933 A    
C37   C40   1.415756 A    
C31   C36   1.401041 A    
C32   C35   1.401041 A    
C39   N4    1.366723 A    
C5    O9    1.347725 S    
C41   O14   1.397907 S    
C18   C42   1.480899 S    
C6    N2    1.367105 A    
C43   H20   1.110457 S    
Cu1   N3    2.009839 S    
C31   C33   1.382918 A    
C7    O11   1.350091 S    
C10   C12   1.408322 A    
O1    Cu1   1.963902 S    
C13   C18   1.424337 A    
C5    N1    1.367130 A    
O6    Cu2   1.943442 S    
C8    C10   1.399613 A    
O4    C1    1.289524 A    
C33   H11   1.083299 S    
C17   C41   1.480901 S    
C6    O10   1.347729 S    
C26   C28   1.392299 A    
C20   C44   1.505206 S    
C16   C18   1.397067 A    
C19   C29   1.409578 A    
C19   C21   1.401589 A    
C20   C22   1.401593 A    
C38   H14   1.081771 S    
C27   C29   1.399275 A    
N1    C7    1.363635 A    
C32   C34   1.382918 A    
N2    C8    1.363632 A    
C11   C13   1.421264 A    
O4    Cu2   1.963567 S    
O2    Cu2   1.963901 S    
O7    C4    1.296181 A    
O8    C3    1.296168 A    
C42   O15   1.222981 D    
O5    Cu1   1.943442 S    
C43   H21   1.110179 S    
C16   H2    1.084527 S    
C14   C17   1.424319 A    
C4    C24   1.472871 S    
C44   H24   1.110403 S    
C44   H23   1.110101 S    
C19   C43   1.505285 S    
N1    C30   1.433996 S    
