data_mof_unit_9851.cif
_audit_creation_date              2012-12-10T17:08:20-0500
_audit_creation_method            fapswitch 2.2
_symmetry_space_group_name_H-M    P1
_symmetry_Int_Tables_number       1
_space_group_crystal_system       triclinic
_cell_length_a                    18.309903
_cell_length_b                    18.308005
_cell_length_c                    34.375463
_cell_angle_alpha                 89.999058
_cell_angle_beta                  90.002456
_cell_angle_gamma                 89.999075
_cell_volume                      11523.2669185

loop_
_atom_site_label
_atom_site_type_symbol
_atom_type_description
_atom_site_fract_x
_atom_site_fract_y
_atom_site_fract_z
_atom_type_partial_charge
C1    C     C_R   0.999998 0.500000 0.894426 0.764321
C2    C     C_R   0.500000 0.000000 0.894425 0.764413
C3    C     C_R   0.499998 0.999999 0.394426 0.764279
C4    C     C_R   1.000000 0.500000 0.394425 0.764385
C5    C     C_R   0.500001 0.999999 0.852117 -0.173158
C6    C     C_R   0.999991 0.500001 0.852118 -0.173180
C7    C     C_R   1.000000 0.500002 0.352118 -0.173153
C8    C     C_R   0.499994 1.000000 0.352118 -0.173219
C9    C     C_R   0.566936 0.000621 0.791138 0.077562
C10   C     C_R   0.999363 0.566945 0.791137 0.077526
C11   C     C_R   0.433065 0.999369 0.791135 0.077538
C12   C     C_R   0.000629 0.433062 0.791138 0.077613
C13   C     C_R   0.066935 0.500658 0.291139 0.077556
C14   C     C_R   0.499370 0.066943 0.291137 0.077576
C15   C     C_R   0.933064 0.499351 0.291137 0.077548
C16   C     C_R   0.500625 0.933059 0.291138 0.077597
C17   C     C_R   0.500000 0.999996 0.770579 0.024100
C18   C     C_R   0.000001 0.500004 0.770579 0.024125
C19   C     C_R   1.000000 0.500005 0.270580 0.024089
C20   C     C_R   0.500000 0.000001 0.270579 0.024118
C21   C     C_R   0.632433 0.006989 0.770346 -0.190028
C22   C     C_R   0.992979 0.632447 0.770344 -0.190020
C23   C     C_R   0.367568 0.993001 0.770339 -0.190045
C24   C     C_R   0.007026 0.367561 0.770347 -0.190044
C25   C     C_R   0.132429 0.507057 0.270347 -0.189997
C26   C     C_R   0.492984 0.132445 0.270343 -0.190031
C27   C     C_R   0.867570 0.492957 0.270341 -0.190004
C28   C     C_R   0.507015 0.867557 0.270345 -0.190029
C29   C     C_R   0.133487 0.511231 0.229889 -0.048911
C30   C     C_R   0.488803 0.133503 0.229885 -0.048906
C31   C     C_R   0.866512 0.488784 0.229883 -0.048908
C32   C     C_R   0.511203 0.866500 0.229888 -0.048904
C33   C     C_R   0.633491 0.011170 0.729888 -0.048882
C34   C     C_R   0.988790 0.633507 0.729886 -0.048870
C35   C     C_R   0.366511 0.988823 0.729882 -0.048885
C36   C     C_R   0.011222 0.366500 0.729889 -0.048884
C37   C     C_R   0.066487 0.511156 0.208850 -0.005115
C38   C     C_R   0.488865 0.066498 0.208847 -0.005129
C39   C     C_R   0.933512 0.488852 0.208847 -0.005118
C40   C     C_R   0.511143 0.933505 0.208849 -0.005109
C41   C     C_R   0.566491 0.011130 0.708849 -0.005123
C42   C     C_R   0.988859 0.566500 0.708847 -0.005122
C43   C     C_R   0.433510 0.988867 0.708846 -0.005100
C44   C     C_R   0.011153 0.433506 0.708849 -0.005127
C45   C     C_R   1.000000 0.500004 0.229392 0.053027
C46   C     C_R   0.500003 0.000002 0.229391 0.052993
C47   C     C_R   0.500000 0.999997 0.729391 0.053026
C48   C     C_R   0.000006 0.500004 0.729391 0.053007
C49   C     C_R   0.063120 0.522520 0.168151 -0.127778
C50   C     C_R   0.477505 0.063135 0.168148 -0.127623
C51   C     C_R   0.936880 0.477483 0.168149 -0.127751
C52   C     C_R   0.522506 0.936869 0.168150 -0.127776
C53   C     C_R   0.563127 0.022505 0.668151 -0.127795
C54   C     C_R   0.977496 0.563134 0.668148 -0.127680
C55   C     C_R   0.436874 0.977499 0.668147 -0.127768
C56   C     C_R   0.022515 0.436872 0.668150 -0.127710
C57   C     C_R   0.000000 0.499999 0.147931 -0.115524
C58   C     C_R   0.500005 0.000002 0.147930 -0.115512
C59   C     C_R   0.500002 0.000000 0.647930 -0.115516
C60   C     C_R   0.000005 0.500002 0.647930 -0.115487
C61   C     C_R   0.000000 0.500000 0.105616 0.994787
C62   C     C_R   0.500001 0.000000 0.105615 0.994747
C63   C     C_R   0.500002 1.000000 0.605616 0.994785
C64   C     C_R   0.000001 0.500001 0.605615 0.994744
C65   C     C_R   0.861561 0.642061 0.998251 0.866378
C66   C     C_R   0.357942 0.861559 0.998250 0.866355
C67   C     C_R   0.138434 0.357937 0.998258 0.866796
C68   C     C_R   0.642062 0.138436 0.998249 0.866614
C69   C     C_R   0.142486 0.637703 0.001715 0.886604
C70   C     C_R   0.637708 0.857516 0.001711 0.886752
C71   C     C_R   0.857510 0.362299 0.001715 0.886635
C72   C     C_R   0.362312 0.142504 0.001718 0.886501
C73   C     C_R   0.361563 0.142062 0.498255 0.866634
C74   C     C_R   0.857941 0.361560 0.498248 0.866417
C75   C     C_R   0.638433 0.857936 0.498254 0.866663
C76   C     C_R   0.142060 0.638439 0.498249 0.866499
C77   C     C_R   0.642488 0.137700 0.501715 0.886626
C78   C     C_R   0.137700 0.357507 0.501714 0.886659
C79   C     C_R   0.357512 0.862297 0.501714 0.886663
C80   C     C_R   0.862308 0.642499 0.501716 0.886523
C81   C     C_R   0.298492 0.610822 0.972684 0.019978
C82   C     C_R   0.388958 0.298388 0.972367 0.019894
C83   C     C_R   0.701541 0.389115 0.972602 0.020048
C84   C     C_R   0.610851 0.701485 0.972699 0.019983
C85   C     C_R   0.739406 0.651919 0.936577 0.019682
C86   C     C_R   0.652034 0.260484 0.936520 0.019754
C87   C     C_R   0.260146 0.347682 0.936393 0.019972
C88   C     C_R   0.348092 0.739395 0.936583 0.019731
C89   C     C_R   0.798499 0.110815 0.472689 0.020037
C90   C     C_R   0.888995 0.798419 0.472441 0.019926
C91   C     C_R   0.201524 0.889148 0.472644 0.020024
C92   C     C_R   0.110960 0.201559 0.472517 0.019926
C93   C     C_R   0.239652 0.152145 0.436475 0.019841
C94   C     C_R   0.151967 0.760548 0.436550 0.019731
C95   C     C_R   0.760241 0.847774 0.436431 0.019917
C96   C     C_R   0.848089 0.239386 0.436579 0.019714
C97   C     C_R   0.349222 0.607500 0.942257 -0.245666
C98   C     C_R   0.392066 0.348884 0.941819 -0.246007
C99   C     C_R   0.650891 0.392391 0.942133 -0.245587
C100  C     C_R   0.607525 0.650763 0.942265 -0.245686
C101  C     C_R   0.670875 0.629408 0.923025 -0.264008
C102  C     C_R   0.629569 0.329000 0.922914 -0.263917
C103  C     C_R   0.328578 0.370096 0.922658 -0.263251
C104  C     C_R   0.370600 0.670860 0.923029 -0.263957
C105  C     C_R   0.849223 0.107490 0.442260 -0.245568
C106  C     C_R   0.892152 0.848968 0.441920 -0.245960
C107  C     C_R   0.150836 0.892449 0.442194 -0.245558
C108  C     C_R   0.107749 0.150967 0.442018 -0.245888
C109  C     C_R   0.171173 0.129692 0.422821 -0.263583
C110  C     C_R   0.129485 0.829075 0.422969 -0.263986
C111  C     C_R   0.828695 0.870213 0.422739 -0.263418
C112  C     C_R   0.870593 0.170847 0.423025 -0.264054
C113  C     C_R   0.306001 0.743555 0.971405 0.061092
C114  C     C_R   0.256240 0.305824 0.971304 0.060797
C115  C     C_R   0.694056 0.256384 0.971369 0.061245
C116  C     C_R   0.743568 0.694005 0.971403 0.061138
C117  C     C_R   0.680011 0.731077 0.983483 0.061840
C118  C     C_R   0.731107 0.319967 0.983438 0.061909
C119  C     C_R   0.319884 0.268844 0.983336 0.061896
C120  C     C_R   0.268921 0.679992 0.983481 0.061842
C121  C     C_R   0.806003 0.243550 0.471402 0.061236
C122  C     C_R   0.756277 0.805859 0.471322 0.060875
C123  C     C_R   0.194026 0.756416 0.471387 0.061236
C124  C     C_R   0.243676 0.194105 0.471348 0.060936
C125  C     C_R   0.180073 0.231126 0.483401 0.061867
C126  C     C_R   0.231092 0.819988 0.483459 0.061878
C127  C     C_R   0.819902 0.768860 0.483366 0.061884
C128  C     C_R   0.768926 0.179987 0.483482 0.061868
C129  C     C_R   0.203085 0.689802 0.004658 -0.039731
C130  C     C_R   0.310237 0.203135 0.004658 -0.039662
C131  C     C_R   0.796909 0.310199 0.004654 -0.039768
C132  C     C_R   0.689812 0.796921 0.004657 -0.039702
C133  C     C_R   0.806832 0.700609 0.995386 -0.045322
C134  C     C_R   0.700616 0.193156 0.995384 -0.045290
C135  C     C_R   0.193146 0.299376 0.995414 -0.045227
C136  C     C_R   0.299399 0.806825 0.995386 -0.045364
C137  C     C_R   0.703089 0.189798 0.504658 -0.039758
C138  C     C_R   0.810222 0.703120 0.504653 -0.039667
C139  C     C_R   0.296912 0.810198 0.504655 -0.039766
C140  C     C_R   0.189791 0.296895 0.504656 -0.039676
C141  C     C_R   0.306846 0.200620 0.495402 -0.045283
C142  C     C_R   0.200609 0.693166 0.495385 -0.045318
C143  C     C_R   0.693145 0.799374 0.495403 -0.045242
C144  C     C_R   0.799398 0.306825 0.495380 -0.045327
C145  C     C_R   0.190632 0.755844 0.024152 -0.204319
C146  C     C_R   0.244345 0.190817 0.024310 -0.204248
C147  C     C_R   0.809332 0.244188 0.024183 -0.204227
C148  C     C_R   0.755845 0.809380 0.024154 -0.204315
C149  C     C_R   0.812043 0.759146 0.021456 -0.207225
C150  C     C_R   0.759109 0.187982 0.021482 -0.207228
C151  C     C_R   0.188125 0.241027 0.021617 -0.207287
C152  C     C_R   0.240864 0.812043 0.021452 -0.207152
C153  C     C_R   0.690633 0.255844 0.524145 -0.204287
C154  C     C_R   0.744295 0.690764 0.524267 -0.204256
C155  C     C_R   0.309352 0.744171 0.524166 -0.204266
C156  C     C_R   0.255748 0.309276 0.524240 -0.204286
C157  C     C_R   0.311956 0.259053 0.521545 -0.207244
C158  C     C_R   0.259124 0.687969 0.521467 -0.207190
C159  C     C_R   0.688079 0.740978 0.521571 -0.207274
C160  C     C_R   0.740860 0.312045 0.521442 -0.207182
C161  C     C_R   0.433162 0.005025 0.832113 -0.076287
C162  C     C_R   0.994946 0.433158 0.832115 -0.076630
C163  C     C_R   0.566839 0.994963 0.832116 -0.076393
C164  C     C_R   0.005022 0.566847 0.832115 -0.076240
C165  C     C_R   0.933158 0.505007 0.332114 -0.076327
C166  C     C_R   0.494946 0.933156 0.332115 -0.076534
C167  C     C_R   0.066841 0.494996 0.332117 -0.076374
C168  C     C_R   0.505039 0.066845 0.332114 -0.076439
H1    H     H_    0.142248 0.764064 0.041747 0.175723
H2    H     H_    0.236266 0.142563 0.042030 0.175764
H3    H     H_    0.857683 0.236002 0.041809 0.175744
H4    H     H_    0.764058 0.857768 0.041751 0.175728
H5    H     H_    0.860260 0.767113 0.039215 0.174672
H6    H     H_    0.767045 0.139788 0.039266 0.174681
H7    H     H_    0.140041 0.233191 0.039492 0.174711
H8    H     H_    0.232895 0.860270 0.039206 0.174682
H9    H     H_    0.642249 0.264066 0.541737 0.175739
H10   H     H_    0.736185 0.642478 0.541956 0.175761
H11   H     H_    0.357721 0.735967 0.541777 0.175735
H12   H     H_    0.263889 0.357590 0.541904 0.175745
H13   H     H_    0.360102 0.266946 0.539368 0.174694
H14   H     H_    0.267078 0.639758 0.539235 0.174682
H15   H     H_    0.639962 0.733109 0.539417 0.174702
H16   H     H_    0.732888 0.360274 0.539193 0.174686
H17   H     H_    0.371403 0.555514 0.932882 0.138270
H18   H     H_    0.443977 0.371021 0.932304 0.138098
H19   H     H_    0.628722 0.444363 0.932723 0.138137
H20   H     H_    0.555545 0.628567 0.932895 0.138194
H21   H     H_    0.666333 0.595322 0.897370 0.141471
H22   H     H_    0.595535 0.333499 0.897236 0.141422
H23   H     H_    0.332933 0.404001 0.896926 0.141606
H24   H     H_    0.404693 0.666322 0.897379 0.141503
H25   H     H_    0.871406 0.055502 0.432886 0.138235
H26   H     H_    0.944079 0.871124 0.432441 0.138117
H27   H     H_    0.128663 0.944430 0.432800 0.138197
H28   H     H_    0.055806 0.128805 0.432568 0.138133
H29   H     H_    0.166732 0.095709 0.397123 0.141538
H30   H     H_    0.095421 0.833595 0.397304 0.141430
H31   H     H_    0.833093 0.904163 0.397026 0.141581
H32   H     H_    0.904682 0.166304 0.397373 0.141439
H33   H     H_    0.684259 0.009073 0.785366 0.199268
H34   H     H_    0.990886 0.684277 0.785364 0.199268
H35   H     H_    0.315741 0.990918 0.785357 0.199273
H36   H     H_    0.009125 0.315731 0.785369 0.199263
H37   H     H_    0.184255 0.509169 0.285368 0.199297
H38   H     H_    0.490884 0.184276 0.285362 0.199285
H39   H     H_    0.815743 0.490849 0.285359 0.199297
H40   H     H_    0.509116 0.815725 0.285366 0.199284
O1    O     O_3   0.000000 0.500000 0.999990 -0.497254
O2    O     O_3   0.500000 0.000000 0.999990 -0.497267
O3    O     O_3   0.500000 0.000000 0.499990 -0.497251
O4    O     O_3   0.000000 0.500000 0.499990 -0.497265
O5    O     O_R   0.060750 0.500000 0.912560 -0.642990
O6    O     O_R   0.500000 0.060750 0.912560 -0.642966
O7    O     O_R   0.939250 0.500000 0.912560 -0.642877
O8    O     O_R   0.500000 0.939250 0.912560 -0.642900
O9    O     O_R   0.560750 0.000000 0.412560 -0.642959
O10   O     O_R   0.000000 0.560750 0.412560 -0.642962
O11   O     O_R   0.439250 0.000000 0.412560 -0.642942
O12   O     O_R   0.000000 0.439250 0.412560 -0.642932
O13   O     O_R   0.000000 0.560690 0.087420 -0.627059
O14   O     O_R   0.439310 0.000000 0.087420 -0.627101
O15   O     O_R   0.000000 0.439310 0.087420 -0.627103
O16   O     O_R   0.560690 0.000000 0.087420 -0.627079
O17   O     O_R   0.500000 0.060690 0.587420 -0.627054
O18   O     O_R   0.939310 0.500000 0.587420 -0.627077
O19   O     O_R   0.500000 0.939310 0.587420 -0.627132
O20   O     O_R   0.060690 0.500000 0.587420 -0.627096
O21   O     O_R   0.853830 0.585440 0.977070 -0.650757
O22   O     O_R   0.414560 0.853830 0.977070 -0.650763
O23   O     O_R   0.146170 0.414560 0.977070 -0.650862
O24   O     O_R   0.585440 0.146170 0.977070 -0.650679
O25   O     O_R   0.146170 0.585440 0.977070 -0.650215
O26   O     O_R   0.585440 0.853830 0.977070 -0.650185
O27   O     O_R   0.853830 0.414560 0.977070 -0.650277
O28   O     O_R   0.414560 0.146170 0.977070 -0.650141
O29   O     O_R   0.353830 0.085440 0.477070 -0.650798
O30   O     O_R   0.914560 0.353830 0.477070 -0.650704
O31   O     O_R   0.646170 0.914560 0.477070 -0.650859
O32   O     O_R   0.085440 0.646170 0.477070 -0.650723
O33   O     O_R   0.646170 0.085440 0.477070 -0.650246
O34   O     O_R   0.085440 0.353830 0.477070 -0.650147
O35   O     O_R   0.353830 0.914560 0.477070 -0.650234
O36   O     O_R   0.914560 0.646170 0.477070 -0.650186
O37   O     O_R   0.085460 0.353830 0.022910 -0.652075
O38   O     O_R   0.646170 0.085460 0.022910 -0.652087
O39   O     O_R   0.914540 0.646170 0.022910 -0.652065
O40   O     O_R   0.353830 0.914540 0.022910 -0.651993
O41   O     O_R   0.914540 0.353830 0.022910 -0.644597
O42   O     O_R   0.353830 0.085460 0.022910 -0.644726
O43   O     O_R   0.085460 0.646170 0.022910 -0.644641
O44   O     O_R   0.646170 0.914540 0.022910 -0.644662
O45   O     O_R   0.585460 0.853830 0.522910 -0.652068
O46   O     O_R   0.146170 0.585460 0.522910 -0.652049
O47   O     O_R   0.414540 0.146170 0.522910 -0.652072
O48   O     O_R   0.853830 0.414540 0.522910 -0.652019
O49   O     O_R   0.414540 0.853830 0.522910 -0.644625
O50   O     O_R   0.853830 0.585460 0.522910 -0.644698
O51   O     O_R   0.585460 0.146170 0.522910 -0.644608
O52   O     O_R   0.146170 0.414540 0.522910 -0.644697
Zn1   Zn    Zn3+2 0.000000 0.586740 0.032740 1.041104
Zn2   Zn    Zn3+2 0.413260 1.000000 0.032740 1.041058
Zn3   Zn    Zn3+2 0.000000 0.413260 0.032740 1.041194
Zn4   Zn    Zn3+2 0.586740 1.000000 0.032740 1.041126
Zn5   Zn    Zn3+2 0.500000 0.086740 0.532740 1.041181
Zn6   Zn    Zn3+2 0.913260 0.500000 0.532740 1.041063
Zn7   Zn    Zn3+2 0.500000 0.913260 0.532740 1.041158
Zn8   Zn    Zn3+2 0.086740 0.500000 0.532740 1.041076
Zn9   Zn    Zn3+2 0.913250 0.500000 0.967240 1.004358
Zn10  Zn    Zn3+2 0.500000 0.913250 0.967240 1.004384
Zn11  Zn    Zn3+2 0.086750 0.500000 0.967240 1.004329
Zn12  Zn    Zn3+2 0.500000 0.086750 0.967240 1.004381
Zn13  Zn    Zn3+2 0.413250 0.000000 0.467240 1.004369
Zn14  Zn    Zn3+2 0.000000 0.413250 0.467240 1.004377
Zn15  Zn    Zn3+2 0.586750 0.000000 0.467240 1.004333
Zn16  Zn    Zn3+2 0.000000 0.586750 0.467240 1.004331
C169  C     C_2   0.286353 0.542901 0.995398 0.431501
H41   H     H_    0.299767 0.490264 0.982742 0.064155
O53   O     O_2   0.264316 0.545036 0.028907 -0.558604
C170  C     C_2   0.456987 0.286523 0.995026 0.431679
H42   H     H_    0.509536 0.299986 0.982293 0.064170
O54   O     O_2   0.455033 0.264666 0.028572 -0.558696
C171  C     C_2   0.713580 0.457049 0.995318 0.431434
H43   H     H_    0.700140 0.509670 0.982654 0.064228
O55   O     O_2   0.735556 0.454932 0.028839 -0.558578
C172  C     C_2   0.542961 0.713578 0.995440 0.431275
H44   H     H_    0.490333 0.699999 0.982833 0.064210
O56   O     O_2   0.545119 0.735744 0.028926 -0.558542
C173  C     C_2   0.802427 0.641287 0.910047 0.458877
H45   H     H_    0.800010 0.600069 0.887374 0.049725
O57   O     O_2   0.856357 0.680307 0.912203 -0.600186
C174  C     C_2   0.641418 0.197397 0.910027 0.458580
H46   H     H_    0.600234 0.199772 0.887336 0.049721
O58   O     O_2   0.680418 0.143456 0.912235 -0.600258
C175  C     C_2   0.196914 0.358181 0.909987 0.458238
H47   H     H_    0.199179 0.399228 0.887221 0.049749
O59   O     O_2   0.142967 0.319225 0.912347 -0.600411
C176  C     C_2   0.358728 0.802424 0.910053 0.458897
H48   H     H_    0.399966 0.800019 0.887393 0.049751
O60   O     O_2   0.319691 0.856347 0.912196 -0.600177
C177  C     C_2   0.786376 0.042899 0.495409 0.431481
H49   H     H_    0.799806 0.990260 0.482759 0.064160
O61   O     O_2   0.764340 0.045045 0.528917 -0.558579
C178  C     C_2   0.956990 0.786507 0.495121 0.431568
H50   H     H_    0.009559 0.799974 0.482414 0.064189
O62   O     O_2   0.954982 0.764610 0.528659 -0.558661
C179  C     C_2   0.213606 0.957072 0.495362 0.431489
H51   H     H_    0.200148 0.009701 0.482710 0.064158
O63   O     O_2   0.235639 0.954942 0.528873 -0.558574
C180  C     C_2   0.043000 0.213518 0.495219 0.431472
H52   H     H_    0.990416 0.199970 0.482552 0.064198
O64   O     O_2   0.045052 0.235541 0.528733 -0.558629
C181  C     C_2   0.302787 0.141582 0.410013 0.458520
H53   H     H_    0.300448 0.100461 0.387288 0.049734
O65   O     O_2   0.356733 0.180559 0.412283 -0.600304
C182  C     C_2   0.141336 0.697491 0.410041 0.458704
H54   H     H_    0.100113 0.699875 0.387370 0.049723
O66   O     O_2   0.180363 0.643564 0.412212 -0.600203
C183  C     C_2   0.697054 0.858307 0.409998 0.458380
H55   H     H_    0.699346 0.899405 0.387259 0.049760
O67   O     O_2   0.643117 0.819329 0.412308 -0.600351
C184  C     C_2   0.858723 0.302415 0.410050 0.458813
H56   H     H_    0.899957 0.300013 0.387387 0.049724
O68   O     O_2   0.819686 0.356337 0.412195 -0.600165
C185  C     C_2   0.364727 0.016887 0.854820 0.408099
H57   H     H_    0.356696 0.989193 0.882376 0.107022
O69   O     O_2   0.318947 0.061050 0.844148 -0.556880
C186  C     C_2   0.983014 0.364722 0.854819 0.408101
H58   H     H_    0.010613 0.356697 0.882401 0.107115
O70   O     O_2   0.938887 0.318936 0.844115 -0.556733
C187  C     C_2   0.635271 0.983077 0.854825 0.408123
H59   H     H_    0.643301 0.010744 0.882389 0.107039
O71   O     O_2   0.681050 0.938919 0.844148 -0.556808
C188  C     C_2   0.016884 0.635289 0.854823 0.408122
H60   H     H_    0.989200 0.643321 0.882381 0.107008
O72   O     O_2   0.061035 0.681077 0.844150 -0.556821
C189  C     C_2   0.864718 0.516850 0.354822 0.408144
H61   H     H_    0.856706 0.489177 0.382385 0.107021
O73   O     O_2   0.818909 0.560976 0.344142 -0.556868
C190  C     C_2   0.483026 0.864719 0.354821 0.408166
H62   H     H_    0.510629 0.856699 0.382403 0.107070
O74   O     O_2   0.438906 0.818924 0.344118 -0.556763
C191  C     C_2   0.135280 0.483144 0.354827 0.408146
H63   H     H_    0.143292 0.510805 0.382394 0.107052
O75   O     O_2   0.181090 0.439023 0.344146 -0.556846
C192  C     C_2   0.516938 0.135283 0.354821 0.408152
H64   H     H_    0.489310 0.143305 0.382395 0.107065
O76   O     O_2   0.561065 0.181079 0.344129 -0.556775
C193  C     C_R   0.206466 0.506997 0.211156 0.095625
C194  C     C_R   0.223274 0.449608 0.185474 -0.090336
C195  C     C_R   0.291713 0.446606 0.167498 -0.099326
C196  C     C_R   0.344348 0.499707 0.175729 -0.117588
C197  C     C_R   0.328755 0.555609 0.202117 -0.122274
C198  C     C_R   0.260105 0.559488 0.219703 -0.169103
H65   H     H_    0.183063 0.407937 0.179033 0.135663
H66   H     H_    0.304129 0.402868 0.147371 0.148129
H67   H     H_    0.397437 0.497086 0.161969 0.120870
H68   H     H_    0.369764 0.595998 0.209040 0.149548
H69   H     H_    0.248507 0.603650 0.239740 0.140702
C199  C     C_R   0.493039 0.206487 0.211150 0.095669
C200  C     C_R   0.550437 0.223300 0.185479 -0.090276
C201  C     C_R   0.553439 0.291744 0.167499 -0.099375
C202  C     C_R   0.500328 0.344378 0.175716 -0.117599
C203  C     C_R   0.444417 0.328779 0.202094 -0.122300
C204  C     C_R   0.440540 0.260125 0.219685 -0.169156
H70   H     H_    0.592113 0.183089 0.179048 0.135684
H71   H     H_    0.597184 0.304165 0.147380 0.148186
H72   H     H_    0.502947 0.397471 0.161952 0.120893
H73   H     H_    0.404019 0.369785 0.209005 0.149533
H74   H     H_    0.396373 0.248522 0.239713 0.140674
C205  C     C_R   0.793534 0.493024 0.211145 0.095618
C206  C     C_R   0.776735 0.550411 0.185458 -0.090345
C207  C     C_R   0.708298 0.553419 0.167478 -0.099305
C208  C     C_R   0.655655 0.500328 0.175710 -0.117600
C209  C     C_R   0.671239 0.444429 0.202104 -0.122298
C210  C     C_R   0.739887 0.440544 0.219694 -0.169094
H75   H     H_    0.816953 0.592074 0.179015 0.135686
H76   H     H_    0.695889 0.597155 0.147347 0.148169
H77   H     H_    0.602567 0.502952 0.161947 0.120887
H78   H     H_    0.630223 0.404048 0.209029 0.149549
H79   H     H_    0.751477 0.396385 0.239735 0.140706
C211  C     C_R   0.506968 0.793516 0.211153 0.095647
C212  C     C_R   0.449573 0.776704 0.185478 -0.090284
C213  C     C_R   0.446573 0.708261 0.167498 -0.099333
C214  C     C_R   0.499684 0.655628 0.175718 -0.117567
C215  C     C_R   0.555595 0.671227 0.202099 -0.122263
C216  C     C_R   0.559468 0.739879 0.219690 -0.169149
H80   H     H_    0.407897 0.816915 0.179045 0.135685
H81   H     H_    0.402829 0.695841 0.147377 0.148154
H82   H     H_    0.497067 0.602536 0.161953 0.120864
H83   H     H_    0.595994 0.630221 0.209012 0.149538
H84   H     H_    0.603635 0.751482 0.239721 0.140670
C217  C     C_R   0.706465 0.006912 0.711151 0.095621
C218  C     C_R   0.723237 0.949536 0.685454 -0.090425
C219  C     C_R   0.791663 0.946526 0.667464 -0.099187
C220  C     C_R   0.844318 0.999607 0.675696 -0.117630
C221  C     C_R   0.828763 0.055490 0.702101 -0.122372
C222  C     C_R   0.760127 0.059375 0.719703 -0.169082
H85   H     H_    0.683005 0.907888 0.679008 0.135682
H86   H     H_    0.804048 0.902804 0.647323 0.148182
H87   H     H_    0.897394 0.996985 0.661921 0.120916
H88   H     H_    0.869788 0.095863 0.709025 0.149538
H89   H     H_    0.748557 0.103525 0.739751 0.140705
C223  C     C_R   0.993007 0.706499 0.711154 0.095586
C224  C     C_R   0.050377 0.723322 0.685468 -0.090251
C225  C     C_R   0.053376 0.791784 0.667506 -0.099332
C226  C     C_R   0.000293 0.844426 0.675757 -0.117697
C227  C     C_R   0.944408 0.828816 0.702149 -0.122271
C228  C     C_R   0.940532 0.760144 0.719720 -0.169107
H90   H     H_    0.092037 0.683108 0.679013 0.135699
H91   H     H_    0.097100 0.804212 0.647375 0.148179
H92   H     H_    0.002914 0.897533 0.662009 0.120858
H93   H     H_    0.904034 0.869831 0.709088 0.149588
H94   H     H_    0.896387 0.748537 0.739763 0.140710
C229  C     C_R   0.293537 0.993083 0.711143 0.095624
C230  C     C_R   0.276756 0.050473 0.685455 -0.090389
C231  C     C_R   0.208327 0.053489 0.667465 -0.099199
C232  C     C_R   0.155677 0.000400 0.675689 -0.117613
C233  C     C_R   0.171242 0.944500 0.702085 -0.122377
C234  C     C_R   0.239880 0.940610 0.719686 -0.169093
H95   H     H_    0.316984 0.092129 0.679016 0.135679
H96   H     H_    0.195935 0.097225 0.647332 0.148177
H97   H     H_    0.102598 0.003027 0.661915 0.120915
H98   H     H_    0.130220 0.904121 0.709002 0.149534
H99   H     H_    0.251457 0.896449 0.739727 0.140715
C235  C     C_R   0.007003 0.293508 0.711159 0.095613
C236  C     C_R   0.949627 0.276683 0.685474 -0.090209
C237  C     C_R   0.946622 0.208220 0.667516 -0.099329
C238  C     C_R   0.999706 0.155578 0.675768 -0.117698
C239  C     C_R   0.055598 0.171189 0.702158 -0.122254
C240  C     C_R   0.059479 0.239863 0.719726 -0.169134
H100  H     H_    0.907967 0.316898 0.679019 0.135702
H101  H     H_    0.902894 0.195790 0.647387 0.148173
H102  H     H_    0.997081 0.102469 0.662023 0.120844
H103  H     H_    0.095973 0.130174 0.709098 0.149578
H104  H     H_    0.103628 0.251471 0.739768 0.140656
C241  C     C_2   0.122714 0.562443 0.147517 0.410743
H105  H     H_    0.149384 0.608086 0.161789 0.076237
O77   O     O_2   0.144168 0.543629 0.115406 -0.553856
C242  C     C_2   0.437605 0.122745 0.147509 0.410612
H106  H     H_    0.391958 0.149417 0.161772 0.076220
O78   O     O_2   0.456446 0.144210 0.115404 -0.554196
C243  C     C_2   0.877285 0.437559 0.147514 0.410712
H107  H     H_    0.850610 0.391922 0.161789 0.076243
O79   O     O_2   0.855835 0.456367 0.115400 -0.553929
C244  C     C_2   0.562407 0.877260 0.147515 0.410764
H108  H     H_    0.608055 0.850589 0.161781 0.076217
O80   O     O_2   0.543568 0.855794 0.115409 -0.553795
C245  C     C_2   0.622729 0.062424 0.647521 0.410734
H109  H     H_    0.649422 0.108045 0.661801 0.076262
O81   O     O_2   0.644170 0.043626 0.615404 -0.553859
C246  C     C_2   0.937588 0.622740 0.647510 0.410614
H110  H     H_    0.891942 0.649411 0.661775 0.076246
O82   O     O_2   0.956422 0.644204 0.615403 -0.554121
C247  C     C_2   0.377266 0.937598 0.647510 0.410725
H111  H     H_    0.350585 0.891959 0.661779 0.076250
O83   O     O_2   0.355810 0.956433 0.615402 -0.553886
C248  C     C_2   0.062418 0.377263 0.647515 0.410634
H112  H     H_    0.108066 0.350593 0.661781 0.076226
O84   O     O_2   0.043576 0.355796 0.615410 -0.554014

loop_
_geom_bond_atom_site_label_1
_geom_bond_atom_site_label_2
_ccdc_geom_bond_type
O2    Zn2   S    
C79   C139  S    
C236  C237  A    
C2    O8    A    
C55   C59   A    
C130  C146  A    
C184  O68   D    
C215  H83   S    
C34   C42   A    
O50   Zn6   S    
C95   C183  S    
C99   H19   S    
C189  H61   S    
C52   C244  S    
C241  H105  S    
O45   Zn7   S    
C97   H17   S    
O46   Zn8   S    
C49   C241  S    
C100  H20   S    
C101  H21   S    
C199  C204  A    
C21   C33   A    
C104  H24   S    
O28   Zn12  S    
C119  C130  A    
C108  C109  A    
C30   C38   A    
C117  C132  A    
C118  C131  A    
C8    C168  A    
C109  H29   S    
C84   C117  A    
C245  O81   D    
C51   C57   A    
C79   O35   A    
C144  C160  A    
C14   C26   A    
C129  C145  A    
C231  H96   S    
C167  C191  S    
C138  C154  A    
C67   O23   A    
C155  C158  A    
C82   C98   A    
C26   H38   S    
C142  C158  A    
C136  C152  A    
O26   Zn10  S    
O40   Zn2   S    
C25   C29   A    
C180  O64   D    
C51   C243  S    
C27   C31   A    
C1    C6    S    
C84   C100  A    
C91   C107  A    
C28   C32   A    
C147  C150  A    
C190  H62   S    
C121  C128  A    
C3    C8    S    
C248  H112  S    
C195  H66   S    
C123  C126  A    
C66   O40   A    
C116  C133  A    
O22   Zn10  S    
C68   O38   A    
C177  H49   S    
C72   O28   A    
C182  H54   S    
C5    C161  A    
C40   C46   A    
C224  H90   S    
C113  C120  A    
C15   C27   A    
C161  C185  S    
C16   C20   A    
C115  C118  A    
C196  C197  A    
O5    Zn11  S    
O6    Zn12  S    
O41   Zn3   S    
C75   C143  S    
C221  H88   S    
C140  C156  A    
C87   C103  A    
C95   C122  A    
C141  C157  A    
C105  C112  A    
C2    O6    A    
O4    Zn14  S    
C28   H40   S    
C107  C110  A    
C81   C169  S    
C36   C44   A    
C176  H48   S    
C37   C45   A    
C212  C213  A    
C244  O80   D    
C85   C116  A    
C82   C170  S    
C190  O74   D    
C209  C210  A    
C57   C61   S    
C115  C134  A    
O27   Zn9   S    
C217  C218  A    
C59   C63   S    
C60   C64   S    
C230  C231  A    
C174  O58   D    
C224  C225  A    
C172  O56   D    
C156  H12   S    
C9    C21   A    
C10   C18   A    
C11   C23   A    
C208  H77   S    
C194  C195  A    
C243  O79   D    
C218  C219  A    
C69   O43   A    
C232  H97   S    
O32   Zn16  S    
O4    Zn8   S    
C71   C131  S    
O2    Zn12  S    
C205  C210  A    
C247  O83   D    
C166  C190  S    
C43   C47   A    
C71   O41   A    
C98   C103  A    
C91   C179  S    
C39   C51   A    
C200  H70   S    
C183  O67   D    
C193  C194  A    
O31   Zn15  S    
C202  H72   S    
C233  C234  A    
O49   Zn7   S    
O3    Zn5   S    
C128  C137  A    
O19   Zn7   S    
C92   C125  A    
C175  O59   D    
C209  H78   S    
C206  C207  A    
C24   C36   A    
C96   C121  A    
C77   O33   A    
C5    C163  A    
C181  O65   D    
C201  C202  A    
O11   Zn13  S    
C49   C57   A    
C203  C204  A    
C88   C113  A    
C185  O69   D    
C153  H9    S    
C69   O25   A    
C208  C209  A    
O42   Zn2   S    
C92   C108  A    
C93   C181  S    
C131  C147  A    
C62   O16   A    
O52   Zn8   S    
C35   C43   A    
C114  C119  A    
O2    Zn10  S    
C39   C45   A    
C178  O62   D    
C169  H41   S    
C29   C193  S    
C121  C144  A    
C234  H99   S    
O21   Zn9   S    
C122  C143  A    
C4    C7    S    
O17   Zn5   S    
C199  C200  A    
C88   C104  A    
C96   C184  S    
C106  C111  A    
C125  C140  A    
C22   C34   A    
C35   C229  S    
C126  C139  A    
C206  H75   S    
C120  C129  A    
C79   O49   A    
C54   C246  S    
C170  H42   S    
C188  H60   S    
C226  H92   S    
C86   C115  A    
C203  H73   S    
C74   O30   A    
C158  H14   S    
C219  H86   S    
C192  O76   D    
C139  C155  A    
C202  C203  A    
C70   C132  S    
C173  H45   S    
C41   C47   A    
C42   C48   A    
C148  H4    S    
C41   C53   A    
O39   Zn1   S    
C8    C166  A    
O43   Zn1   S    
C43   C55   A    
C26   C30   A    
C4    O10   A    
C191  O75   D    
C124  C141  A    
C2    C5    S    
C56   C248  S    
O37   Zn3   S    
C70   O44   A    
O38   Zn4   S    
C237  C238  A    
O9    Zn15  S    
C7    C167  A    
C227  H93   S    
C225  C226  A    
C34   C223  S    
O29   Zn13  S    
C17   C47   A    
C33   C217  S    
C246  H110  S    
C75   O45   A    
C18   C48   A    
C19   C45   A    
O1    Zn1   S    
C12   C24   A    
C65   O21   A    
C153  C160  A    
C169  O53   D    
C154  C159  A    
O30   Zn14  S    
C213  H81   S    
C67   O37   A    
C194  H65   S    
C80   C138  S    
C100  C101  A    
C94   C182  S    
C62   O14   A    
C38   C46   A    
C145  C152  A    
O44   Zn4   S    
O4    Zn6   S    
C146  C151  A    
C162  C186  S    
C103  H23   S    
C245  H109  S    
C77   O51   A    
C89   C105  A    
C171  H43   S    
O36   Zn16  S    
C78   O52   A    
C15   C165  A    
C239  H103  S    
C20   C46   A    
C68   O24   A    
C93   C109  A    
C86   C102  A    
C237  H101  S    
C58   C62   S    
C217  C222  A    
C211  C212  A    
C164  C188  S    
C110  H30   S    
C75   O31   A    
O15   Zn3   S    
C197  C198  A    
C85   C101  A    
O16   Zn4   S    
C73   C141  S    
C10   C22   A    
C15   C19   A    
C176  O60   D    
C77   C137  S    
O13   Zn1   S    
C218  H85   S    
C235  C236  A    
C205  C206  A    
C11   C161  A    
C242  H106  S    
C182  O66   D    
C228  H94   S    
C9    C163  A    
C84   C172  S    
C189  O73   D    
C50   C242  S    
C195  C196  A    
C4    O12   A    
C90   C127  A    
C127  C138  A    
C108  H28   S    
O35   Zn13  S    
C36   C235  S    
C94   C123  A    
C241  O77   D    
C184  H56   S    
C7    C165  A    
C247  H111  S    
C83   C99   A    
C163  C187  S    
C157  H13   S    
C82   C119  A    
C25   H37   S    
C64   O18   A    
O14   Zn2   S    
C155  H11   S    
O1    Zn3   S    
C201  H71   S    
C177  O61   D    
C145  H1    S    
O20   Zn8   S    
C22   H34   S    
O12   Zn14  S    
C179  H51   S    
C50   C58   A    
C14   C20   A    
C151  H7    S    
C220  C221  A    
C90   C106  A    
C106  H26   S    
C30   C199  S    
C175  H47   S    
C13   C19   A    
C210  H79   S    
C186  H58   S    
C54   C60   A    
O47   Zn5   S    
C238  C239  A    
C94   C110  A    
C56   C60   A    
O3    Zn7   S    
C67   C135  S    
C187  H59   S    
C21   H33   S    
C37   C49   A    
C44   C56   A    
C31   C39   A    
C6    C164  A    
C23   C35   A    
C225  H91   S    
C154  H10   S    
C1    O5    A    
C80   O50   A    
C223  C228  A    
C214  C215  A    
C74   C144  S    
C180  H52   S    
C11   C17   A    
O10   Zn16  S    
C222  H89   S    
C55   C247  S    
C78   C140  S    
C220  H87   S    
C63   O19   A    
C219  C220  A    
C143  C159  A    
C240  H104  S    
C112  H32   S    
C85   C173  S    
C236  H100  S    
C76   O32   A    
C33   C41   A    
O33   Zn15  S    
C68   C134  S    
C215  C216  A    
C98   H18   S    
C42   C54   A    
C181  H53   S    
C135  C151  A    
C123  C142  A    
C102  H22   S    
C185  H57   S    
C61   O13   A    
C97   C104  A    
C83   C171  S    
C183  H55   S    
C99   C102  A    
C227  C228  A    
C3    O11   A    
C29   C37   A    
C229  C234  A    
C72   O42   A    
C221  C222  A    
C89   C128  A    
C16   C28   A    
C44   C48   A    
C191  H63   S    
C244  H108  S    
C91   C126  A    
C171  O55   D    
C93   C124  A    
C213  C214  A    
C107  H27   S    
C231  C232  A    
C53   C59   A    
C92   C180  S    
C105  H25   S    
C96   C112  A    
C81   C120  A    
C78   O34   A    
C248  O84   D    
O3    Zn15  S    
C211  C216  A    
C83   C118  A    
C174  H46   S    
C170  O54   D    
C172  H44   S    
C188  O72   D    
C13   C167  A    
C198  H69   S    
C134  C150  A    
C122  C127  A    
C116  C117  A    
C70   O26   A    
C88   C176  S    
C239  C240  A    
C87   C114  A    
C111  H31   S    
C212  H80   S    
C6    C162  A    
C16   C166  A    
C113  C136  A    
O23   Zn11  S    
C1    O7    A    
C114  C135  A    
O24   Zn12  S    
C149  H5    S    
C197  H68   S    
C168  C192  S    
O1    Zn9   S    
C65   O39   A    
C73   O47   A    
C196  H67   S    
C13   C25   A    
O8    Zn10  S    
C147  H3    S    
C235  C240  A    
O4    Zn16  S    
O2    Zn4   S    
C86   C174  S    
C137  C153  A    
C132  C148  A    
C133  C149  A    
C148  C149  A    
O34   Zn14  S    
C186  O70   D    
C216  H84   S    
C63   O17   A    
C40   C52   A    
C12   C162  A    
C87   C175  S    
C80   O36   A    
C23   H35   S    
C179  O63   D    
C156  C157  A    
C207  H76   S    
C61   O15   A    
C73   O29   A    
O51   Zn5   S    
C90   C178  S    
C53   C245  S    
C229  C230  A    
C226  C227  A    
O7    Zn9   S    
C230  H95   S    
C187  O71   D    
C165  C189  S    
C52   C58   A    
C204  H74   S    
O18   Zn6   S    
C9    C17   A    
C178  H50   S    
C150  H6    S    
C71   O27   A    
C146  H2    S    
C66   C136  S    
C64   O20   A    
C76   O46   A    
C232  C233  A    
C32   C211  S    
C223  C224  A    
O48   Zn6   S    
C24   H36   S    
C10   C164  A    
O3    Zn13  S    
O25   Zn11  S    
C72   C130  S    
C38   C50   A    
C89   C177  S    
C200  C201  A    
C66   O22   A    
C246  O82   D    
C233  H98   S    
C243  H107  S    
C95   C111  A    
C207  C208  A    
C3    O9    A    
C192  H64   S    
C81   C97   A    
C238  H102  S    
C69   C129  S    
C193  C198  A    
C31   C205  S    
C173  O57   D    
C242  O78   D    
C27   H39   S    
C32   C40   A    
C65   C133  S    
C214  H82   S    
C152  H8    S    
O1    Zn11  S    
C12   C18   A    
C159  H15   S    
C14   C168  A    
C160  H16   S    
C74   O48   A    
C124  C125  A    
C76   C142  S    
