data_mof_unit_51813.cif
_audit_creation_date              2012-12-11T14:50:45-0500
_audit_creation_method            fapswitch 2.2
_symmetry_space_group_name_H-M    P1
_symmetry_Int_Tables_number       1
_space_group_crystal_system       triclinic
_cell_length_a                    11.325493
_cell_length_b                    11.125096
_cell_length_c                    18.774501
_cell_angle_alpha                 90.097793
_cell_angle_beta                  89.412584
_cell_angle_gamma                 59.812118
_cell_volume                      2044.5515845

loop_
_atom_site_label
_atom_site_type_symbol
_atom_type_description
_atom_site_fract_x
_atom_site_fract_y
_atom_site_fract_z
_atom_type_partial_charge
C1    C     C_R   0.242020 0.643045 0.609658 0.560658
C2    C     C_R   0.554993 0.267379 0.811710 0.144544
C3    C     C_R   0.521305 0.309824 0.740351 -0.071861
C4    C     C_R   0.632190 0.595141 0.608852 0.542693
C5    C     C_R   0.620076 0.252663 0.685221 -0.040119
C6    C     C_R   0.187090 0.550400 0.719131 0.076670
C7    C     C_R   0.161893 0.565813 0.792579 0.092448
C8    C     C_R   0.155722 0.682663 0.829511 0.033074
C9    C     C_R   0.172798 0.784334 0.791155 0.022395
C10   C     C_R   0.203755 0.761196 0.720365 -0.118428
C11   C     C_R   0.204596 0.652464 0.683567 -0.004796
C12   C     C_3   0.707819 0.514443 0.808337 0.073904
C13   C     C_R   0.791048 0.611605 0.294540 -0.031078
C14   C     C_R   0.801227 0.595203 0.220431 -0.016431
C15   C     C_R   0.682474 0.675701 0.177008 -0.038672
C16   C     C_R   0.591899 0.290887 0.609907 0.514452
C17   C     C_R   0.552719 0.753084 0.209728 -0.028940
C18   C     C_R   0.543578 0.750596 0.283765 -0.121668
C19   C     C_R   0.660592 0.675079 0.325391 -0.053101
C20   C     C_R   0.541264 0.163326 0.284573 -0.012813
C21   C     C_R   0.527287 0.184362 0.210979 -0.023860
C22   C     C_R   0.638121 0.178034 0.172169 -0.048319
C23   C     C_3   0.685734 0.665086 0.818178 -0.042632
C24   C     C_R   0.739196 0.191408 0.207479 -0.137771
C25   C     C_R   0.737060 0.199559 0.280811 -0.131639
C26   C     C_R   0.639719 0.184361 0.320177 -0.027744
C27   C     C_R   0.032516 0.772765 0.317840 0.069062
C28   C     C_R   0.224372 0.648377 0.401459 0.571751
C29   C     C_R   0.987198 0.795512 0.247650 -0.123531
C30   C     C_R   0.074717 0.710987 0.192703 0.010929
C31   C     C_R   0.205414 0.601669 0.207609 -0.104155
C32   C     C_R   0.250413 0.578926 0.277132 -0.096689
C33   C     C_R   0.165380 0.666099 0.331884 0.080015
C34   C     C_3   0.649282 0.630197 0.683133 -0.026624
C35   C     C_R   0.708734 0.087565 0.893089 0.548977
C36   C     C_R   0.721106 0.685066 0.890958 0.537585
C37   C     C_R   0.106694 0.712769 0.902861 0.575367
C38   C     C_R   0.672584 0.110278 0.102314 0.531653
C39   C     C_R   0.703386 0.692720 0.100645 0.508852
C40   C     C_R   0.643169 0.626552 0.394620 0.543292
C41   C     C_R   0.033443 0.743345 0.119437 0.522950
C42   C     C_R   0.614702 0.232538 0.394234 0.561051
C43   C     C_3   0.532447 0.779861 0.797984 0.086531
C44   C     C_3   0.507962 0.734970 0.721466 -0.236557
C45   C     C_3   0.737112 0.702188 0.686106 0.095982
C46   C     C_3   0.782519 0.684701 0.765788 -0.274433
C47   C     C_2   0.506182 0.928165 0.794007 0.270791
C48   C     C_2   0.117418 0.935478 0.812506 0.314447
C49   C     C_2   0.912881 0.558339 0.342079 0.258578
C50   C     C_2   0.933089 0.482199 0.191084 0.368046
C51   C     C_2   0.424820 0.821496 0.167741 0.293649
C52   C     C_2   0.458068 0.115364 0.324047 0.337967
C53   C     C_2   0.399236 0.214899 0.173958 0.313337
C54   C     C_2   0.656125 0.853058 0.660458 0.287837
C55   C     C_2   0.589511 0.513500 0.843504 0.229836
C56   C     C_3   0.716129 0.488684 0.726160 -0.012368
C57   C     C_R   0.753706 0.167129 0.703542 -0.067753
C58   C     C_R   0.783210 0.109107 0.769795 0.012167
C59   C     C_R   0.686574 0.160105 0.825625 0.025843
Cr1   Cr    Cr6+3 0.392930 0.397900 0.502230 1.124767
Cr2   Cr    Cr6+3 0.398240 0.708600 0.501260 1.091136
Cr3   Cr    Cr6+3 0.708800 0.393470 0.496460 1.101084
Cr4   Cr    Cr6+3 0.937620 0.938540 0.007640 1.083967
Cr5   Cr    Cr6+3 0.625150 0.937450 0.994520 1.086586
Cr6   Cr    Cr6+3 0.937990 0.625080 0.001190 1.101676
H1    H     H_    0.887553 0.596253 0.769457 0.209012
H2    H     H_    0.273822 0.537563 0.165190 0.120962
H3    H     H_    0.353714 0.496735 0.287965 0.117595
H4    H     H_    0.445788 0.827651 0.688044 0.195264
H5    H     H_    0.782118 0.774023 0.787174 0.104922
H6    H     H_    0.654629 0.441993 0.714139 0.115937
H7    H     H_    0.580822 0.954322 0.811688 0.124679
H8    H     H_    0.033910 0.989537 0.849866 0.188194
H9    H     H_    0.899613 0.601468 0.395416 0.159004
H10   H     H_    0.024270 0.490401 0.192710 0.148274
H11   H     H_    0.426650 0.802496 0.111009 0.140181
H12   H     H_    0.832709 0.129385 0.662237 0.215401
H13   H     H_    0.509248 0.022912 0.356635 0.110965
H14   H     H_    0.361893 0.290418 0.131306 0.109280
H15   H     H_    0.642419 0.939258 0.692655 0.134692
H16   H     H_    0.588531 0.502466 0.900990 0.166844
H17   H     H_    0.426388 0.397724 0.729155 0.153670
H18   H     H_    0.214315 0.839909 0.691897 0.207969
H19   H     H_    0.443192 0.798565 0.308693 0.199278
H20   H     H_    0.822847 0.190541 0.178504 0.203604
H21   H     H_    0.812315 0.216992 0.306641 0.193701
H22   H     H_    0.446412 0.685566 0.722824 0.165594
H23   H     H_    0.885075 0.878819 0.235880 0.116969
I1    I     I_    0.922246 0.331715 0.689814 -0.162445
I2    I     I_    0.908723 0.634157 0.612716 -0.171981
I3    I     I_    0.885094 0.909586 0.738813 -0.504228
I4    I     I_    0.423246 0.369998 0.904254 -0.236915
I5    I     I_    0.227886 0.354296 0.667917 -0.095537
I6    I     I_    0.128351 0.407488 0.840622 -0.093049
I7    I     I_    0.391886 0.815233 0.889070 -0.196278
I8    I     I_    0.899010 0.892270 0.402191 -0.322264
I9    I     I_    0.863441 0.333493 0.867817 -0.223416
O1    O     O_R   0.507430 0.255570 0.581420 -0.442055
O2    O     O_R   0.837200 0.593290 0.915250 -0.469400
O3    O     O_R   0.065330 0.635370 0.931590 -0.465645
O4    O     O_R   0.280190 0.527390 0.578910 -0.492506
O5    O     O_R   0.068300 0.828790 0.091860 -0.459709
O6    O     O_R   0.798730 0.057480 0.079370 -0.506426
O7    O     O_R   0.584680 0.080480 0.076790 -0.499643
O8    O     O_R   0.626790 0.809640 0.067050 -0.502498
O9    O     O_R   0.816010 0.596460 0.076500 -0.488151
O10   O     O_R   0.045680 0.638310 0.081070 -0.518244
O11   O     O_3   0.833590 0.833690 0.001120 -0.321843
O12   O     O_R   0.524460 0.695920 0.424060 -0.497912
O13   O     O_R   0.260310 0.739740 0.584580 -0.522394
O14   O     O_R   0.532250 0.695150 0.573830 -0.466460
O15   O     O_R   0.744930 0.503430 0.576380 -0.450305
O16   O     O_R   0.699250 0.276390 0.571950 -0.495905
O17   O     O_R   0.499020 0.256400 0.419850 -0.490326
O18   O     O_R   0.272400 0.528160 0.429140 -0.475440
O19   O     O_R   0.251910 0.740570 0.423020 -0.486560
O20   O     O_2   0.397903 0.022510 0.772083 -0.402255
O21   O     O_2   0.157231 0.006770 0.783037 -0.407884
O22   O     O_2   0.026769 0.466227 0.324099 -0.460933
O23   O     O_R   0.736530 0.504260 0.414810 -0.494825
O24   O     O_2   0.940286 0.377144 0.166279 -0.449002
O25   O     O_2   0.314375 0.897537 0.196500 -0.429000
O26   O     O_2   0.333450 0.183746 0.325006 -0.381871
O27   O     O_2   0.339969 0.151165 0.186804 -0.389891
O28   O     O_2   0.608317 0.880641 0.600710 -0.421546
O29   O     O_2   0.486813 0.540764 0.811166 -0.569957
O30   O     O_R   0.691460 0.277160 0.422180 -0.482098
O31   O     O_3   0.499990 0.499990 0.499980 -0.351918
O32   O     O_R   0.089490 0.825610 0.930610 -0.526649
O33   O     O_R   0.818370 0.054540 0.929880 -0.496600
O34   O     O_R   0.605870 0.077310 0.915530 -0.486791
O35   O     O_R   0.646440 0.806700 0.917570 -0.507804

loop_
_geom_bond_atom_site_label_1
_geom_bond_atom_site_label_2
_ccdc_geom_bond_type
C39   O9    A    
Cr3   O31   S    
C34   C56   S    
C35   O34   A    
C27   C29   A    
C36   O2    A    
Cr1   O17   S    
C1    C11   S    
Cr2   O12   S    
C16   O16   A    
C17   C51   S    
C7    C8    A    
C14   C50   S    
C45   C46   S    
C27   C33   A    
C31   H2    S    
C12   C23   S    
C29   C30   A    
C53   H14   S    
C46   H1    S    
Cr1   O1    S    
C36   O35   A    
C30   C31   A    
C52   O26   D    
C22   C38   S    
C10   H18   S    
C23   C43   S    
C41   O5    A    
C35   C59   S    
C18   C19   A    
Cr4   O33   S    
C29   H23   S    
C38   O7    A    
C28   O19   A    
C42   O17   A    
Cr5   O35   S    
C8    C9    A    
C5    C16   S    
C43   I7    S    
Cr5   O34   S    
C30   C41   S    
C55   H16   S    
C44   H22   S    
C58   I3    S    
Cr6   O11   S    
Cr3   O23   S    
C32   H3    S    
C6    I5    S    
C4    O15   A    
C23   C46   S    
C13   C14   A    
C27   I8    S    
C50   O24   D    
Cr2   O19   S    
Cr4   O5    S    
C52   H13   S    
Cr2   O13   S    
C9    C10   A    
Cr5   O11   S    
C54   H15   S    
C54   O28   D    
C4    C34   S    
C13   C19   A    
C57   H12   S    
Cr1   O31   S    
C34   C44   S    
C51   H11   S    
Cr6   O2    S    
Cr3   O16   S    
Cr4   O6    S    
C19   C40   S    
C6    C11   A    
C2    C59   A    
C48   O21   D    
C58   C59   A    
C43   C44   S    
C38   O6    A    
C28   O18   A    
C1    O13   A    
C18   H19   S    
C31   C32   A    
C55   O29   D    
C56   H6    S    
C3    H17   S    
C17   C18   A    
C40   O12   A    
C44   H4    S    
C34   C45   S    
C24   C25   A    
C2    I4    S    
C45   I2    S    
C35   O33   A    
C15   C39   S    
C12   I9    S    
C12   C56   S    
C42   O30   A    
C13   C49   S    
C56   I1    S    
C40   O23   A    
C4    O14   A    
C28   C33   S    
C22   C24   A    
C8    C37   S    
Cr1   O4    S    
Cr2   O14   S    
C1    O4    A    
Cr6   O9    S    
C26   C42   S    
C24   H20   S    
C39   O8    A    
C7    I6    S    
C41   O10   A    
Cr5   O8    S    
C49   H9    S    
C48   H8    S    
Cr5   O7    S    
Cr6   O3    S    
C3    C5    A    
C53   O27   D    
C45   C54   S    
C15   C17   A    
C6    C7    A    
C5    C57   A    
C32   C33   A    
C2    C3    A    
C25   C26   A    
C20   C52   S    
C50   H10   S    
C21   C53   S    
C16   O1    A    
C57   C58   A    
C49   O22   D    
C20   C26   A    
C25   H21   S    
C37   O32   A    
Cr2   O31   S    
Cr4   O32   S    
C47   H7    S    
C46   H5    S    
C12   C55   S    
C10   C11   A    
Cr3   O30   S    
C47   O20   D    
Cr3   O15   S    
C20   C21   A    
C9    C48   S    
C23   C36   S    
C51   O25   D    
C14   C15   A    
Cr1   O18   S    
Cr4   O11   S    
C21   C22   A    
C43   C47   S    
Cr6   O10   S    
C37   O3    A    
