data_mof_unit_27430.cif
_audit_creation_date              2012-10-26T20:03:40-0400
_audit_creation_method            fapswitch 2.2
_symmetry_space_group_name_H-M    P1
_symmetry_Int_Tables_number       1
_space_group_crystal_system       triclinic
_cell_length_a                    12.341212
_cell_length_b                    13.17852
_cell_length_c                    15.853836
_cell_angle_alpha                 77.784042
_cell_angle_beta                  101.12585
_cell_angle_gamma                 116.501328
_cell_volume                      2240.90827415

loop_
_atom_site_label
_atom_site_type_symbol
_atom_type_description
_atom_site_fract_x
_atom_site_fract_y
_atom_site_fract_z
_atom_type_partial_charge
C1    C     C_R   0.854952 0.286600 0.507144 0.525143
C2    C     C_R   0.228503 0.834891 0.471498 -0.003724
C3    C     C_R   0.816325 0.084608 0.560437 -0.133180
C4    C     C_R   0.999453 0.499723 0.659933 0.543638
C5    C     C_R   0.738076 0.969537 0.576547 -0.141728
C6    C     C_R   0.614587 0.932080 0.547601 -0.121593
C7    C     C_R   0.567024 0.009299 0.498318 0.031839
C8    C     C_R   0.649846 0.124133 0.473294 0.023999
C9    C     C_R   0.440221 0.976283 0.472396 0.027940
C10   C     C_R   0.399692 0.054960 0.416332 0.050307
C11   C     C_R   0.484066 0.162410 0.384036 -0.139102
C12   C     C_3   0.998816 0.499581 0.916930 0.030421
C13   C     C_R   0.607330 0.195674 0.410587 -0.122129
C14   C     C_R   0.352018 0.867642 0.501052 -0.136850
C15   C     C_R   0.189773 0.914605 0.418649 -0.133263
C16   C     C_R   0.145141 0.713484 0.487873 0.548002
C17   C     C_R   0.773216 0.163560 0.510977 -0.001509
C18   C     C_R   0.345747 0.327602 0.637578 -0.149395
C19   C     C_R   0.758295 0.645247 0.382470 0.290248
C20   C     C_R   0.660424 0.676345 0.356971 0.077542
C21   C     C_R   0.557929 0.620516 0.402003 -0.139726
C22   C     C_R   0.551156 0.533697 0.472498 -0.036099
C23   C     C_3   0.115835 0.552717 0.035454 -0.115245
C24   C     C_R   0.653026 0.504985 0.496346 0.142165
C25   C     C_R   0.446822 0.474470 0.520084 -0.005568
C26   C     C_R   0.446192 0.387312 0.590024 0.039692
C27   C     C_R   0.545890 0.360443 0.612399 -0.167166
C28   C     C_R   0.000493 0.500237 0.340070 0.550243
C29   C     C_R   0.647060 0.418286 0.567001 -0.090434
C30   C     C_R   0.342189 0.497665 0.501622 0.042443
C31   C     C_R   0.246165 0.354550 0.616126 0.043306
C32   C     C_3   0.950139 0.395107 0.038540 0.133594
C33   C     C_3   0.883450 0.448141 0.963789 -0.103897
C34   C     C_3   0.001085 0.501522 0.082869 0.073308
C35   C     C_1   0.998640 0.499612 0.749591 -0.033918
C36   C     C_1   0.001236 0.500512 0.250390 -0.029633
C37   C     C_3   0.063991 0.443393 0.991008 -0.068530
C38   C     C_3   0.051060 0.608913 0.959729 -0.112982
C39   C     C_3   0.936135 0.557429 0.008437 -0.123465
C40   C     C_1   0.998441 0.499536 0.825178 -0.063407
C41   C     C_1   0.001377 0.500946 0.174742 -0.042311
C42   C     C_R   0.274962 0.024260 0.391342 -0.131025
Cu1   Cu    Cu3+1 0.098270 0.475420 0.519690 0.934317
Cu2   Cu    Cu3+1 0.901730 0.524580 0.480310 0.947543
H1    H     H_    0.788349 0.403627 0.934099 0.101474
H2    H     H_    0.334311 0.562372 0.449865 0.120385
H3    H     H_    0.485079 0.647056 0.380474 0.098214
H4    H     H_    0.718772 0.391955 0.590024 0.183142
H5    H     H_    0.884479 0.604665 0.016726 0.109032
H6    H     H_    0.092942 0.697786 0.925508 0.112188
H7    H     H_    0.210813 0.596039 0.065767 0.108455
H8    H     H_    0.114691 0.395010 0.983228 0.109947
H9    H     H_    0.094605 0.891154 0.395778 0.127921
H10   H     H_    0.454707 0.221157 0.337814 0.111300
H11   H     H_    0.243577 0.084182 0.348828 0.112299
H12   H     H_    0.376801 0.805757 0.545930 0.120529
H13   H     H_    0.834298 0.687222 0.270928 0.230161
H14   H     H_    0.897652 0.789398 0.336769 0.200375
H15   H     H_    0.866629 0.223461 0.036673 0.222524
H16   H     H_    0.817767 0.268324 0.107047 0.226434
H17   H     H_    0.727192 0.843063 0.305270 0.226676
H18   H     H_    0.581800 0.768458 0.267314 0.231096
H19   H     H_    0.910489 0.112165 0.588602 0.127920
H20   H     H_    0.559631 0.841723 0.563487 0.104510
H21   H     H_    0.772699 0.909309 0.614197 0.119851
H22   H     H_    0.668461 0.277235 0.379316 0.152471
H23   H     H_    0.168337 0.308722 0.652589 0.119885
H24   H     H_    0.546098 0.294041 0.666089 0.107305
H25   H     H_    0.344374 0.260626 0.691107 0.090803
N1    N     N_R   0.246280 0.438200 0.549540 -0.234038
N2    N     N_R   0.754330 0.561180 0.450980 -0.227298
N3    N     N_3   0.862681 0.701415 0.335615 -0.538684
N4    N     N_3   0.895849 0.278419 0.083312 -0.627139
N5    N     N_3   0.666239 0.764728 0.284690 -0.653619
O1    O     O_R   0.972510 0.318130 0.524770 -0.503344
O2    O     O_R   0.806530 0.359650 0.491510 -0.532490
O3    O     O_R   0.082970 0.479240 0.637550 -0.496173
O4    O     O_R   0.916990 0.520750 0.604290 -0.515601
O5    O     O_R   0.193470 0.640350 0.508490 -0.513480
O6    O     O_R   0.027490 0.681870 0.475230 -0.470765
O7    O     O_R   0.083010 0.479250 0.395710 -0.497671
O8    O     O_R   0.917030 0.520760 0.362450 -0.474402

loop_
_geom_bond_atom_site_label_1
_geom_bond_atom_site_label_2
_ccdc_geom_bond_type
C14   H12   S    
C8    C13   A    
C10   C42   A    
C33   H1    S    
C19   N2    A    
C19   C20   A    
C18   C26   A    
Cu1   Cu2   S    
C19   N3    S    
C7    C8    A    
C31   H23   S    
C26   C27   A    
C33   C39   S    
C15   H9    S    
Cu2   O8    S    
C5    C6    A    
C27   C29   A    
Cu1   O5    S    
H16   N4    S    
Cu2   N2    S    
C6    H20   S    
C12   C37   S    
Cu2   O2    S    
C24   C29   A    
C27   H24   S    
C31   N1    A    
C22   C25   A    
C2    C16   S    
C9    C10   A    
H15   N4    S    
C18   H25   S    
C4    C35   S    
C21   C22   A    
C36   C41   T    
C34   C41   S    
C30   N1    A    
C13   H22   S    
Cu1   O1    S    
C29   H4    S    
C28   O8    A    
C34   C39   S    
C1    O1    A    
Cu2   O6    S    
C5    H21   S    
C32   N4    S    
C37   H8    S    
C25   C26   A    
C23   C37   S    
C16   O6    A    
C32   C34   S    
C12   C40   S    
C9    C14   A    
C4    O4    A    
C42   H11   S    
C23   H7    S    
C23   C34   S    
C20   N5    S    
C32   C37   S    
C2    C15   A    
C11   H10   S    
C39   H5    S    
Cu1   N1    S    
Cu1   O7    S    
C22   C24   A    
C25   C30   A    
C7    C9    A    
C28   O7    A    
C1    O2    A    
C30   H2    S    
C15   C42   A    
C3    C5    A    
C6    C7    A    
C38   H6    S    
C3    H19   S    
H17   N5    S    
Cu1   O3    S    
C23   C38   S    
C1    C17   S    
C8    C17   A    
C16   O5    A    
C32   C33   S    
Cu2   O4    S    
C35   C40   T    
C4    O3    A    
C11   C13   A    
H14   N3    S    
C38   C39   S    
C3    C17   A    
H13   N3    S    
C12   C38   S    
C2    C14   A    
C10   C11   A    
C20   C21   A    
C28   C36   S    
H18   N5    S    
C18   C31   A    
C12   C33   S    
C24   N2    A    
C21   H3    S    
