data_mof_unit_30378.cif
_audit_creation_date              2012-12-10T19:11:04-0500
_audit_creation_method            fapswitch 2.2
_symmetry_space_group_name_H-M    P1
_symmetry_Int_Tables_number       1
_space_group_crystal_system       triclinic
_cell_length_a                    11.096224
_cell_length_b                    9.110401
_cell_length_c                    8.036065
_cell_angle_alpha                 90.900942
_cell_angle_beta                  89.92796
_cell_angle_gamma                 89.813805
_cell_volume                      812.26883549

loop_
_atom_site_label
_atom_site_type_symbol
_atom_type_description
_atom_site_fract_x
_atom_site_fract_y
_atom_site_fract_z
_atom_type_partial_charge
C1    C     C_R   0.499688 0.220997 0.499204 0.895467
C2    C     C_R   0.260685 0.505651 0.500669 0.842456
C3    C     C_R   0.739551 0.501934 0.499748 0.957448
C4    C     C_R   0.499525 0.779019 0.500723 0.916137
C5    C     C_1   0.499465 0.065550 0.498862 -0.060299
C6    C     C_3   0.072509 0.422061 0.662041 -0.186645
C7    C     C_3   0.073128 0.420392 0.341151 -0.195029
C8    C     C_3   0.929152 0.452056 0.678842 -0.232742
C9    C     C_3   0.930144 0.394761 0.357671 -0.098322
C10   C     C_1   0.499408 0.934466 0.500964 -0.082920
C11   C     C_3   0.073132 0.683627 0.500796 -0.269930
C12   C     C_3   0.924129 0.680821 0.469902 -0.295784
C13   C     C_3   0.122684 0.510366 0.502204 -0.105753
C14   C     C_3   0.877460 0.508766 0.499449 -0.111293
Cu1   Cu    Cu3+1 0.500000 0.500010 0.669080 1.174737
Cu2   Cu    Cu3+1 0.500000 0.500010 0.330920 1.113750
N1    N     N_1   0.500000 0.499970 0.076820 -0.002764
N2    N     N_1   0.500000 0.499970 0.923180 0.013859
O1    O     O_R   0.500000 0.288400 0.642760 -0.546930
O2    O     O_R   0.500000 0.288400 0.357240 -0.597801
O3    O     O_R   0.317700 0.499990 0.642790 -0.502565
O4    O     O_R   0.317700 0.499990 0.357210 -0.630970
O5    O     O_R   0.682300 0.499990 0.642790 -0.484529
O6    O     O_R   0.682300 0.499990 0.357210 -0.517953
O7    O     O_R   0.500000 0.711620 0.642810 -0.542980
O8    O     O_R   0.500000 0.711620 0.357190 -0.555429
C15   C     C_2   0.130744 0.450543 0.830494 0.405333
H1    H     H_    0.122272 0.366089 0.923430 0.087237
O9    O     O_2   0.184602 0.562367 0.867490 -0.519876
C16   C     C_2   0.108069 0.507397 0.192178 0.403280
H2    H     H_    0.196658 0.493875 0.138978 0.180841
O10   O     O_2   0.042746 0.596574 0.129707 -0.542691
C17   C     C_2   0.902762 0.569885 0.812473 0.424945
H3    H     H_    0.971835 0.631451 0.869050 0.194632
O11   O     O_2   0.801823 0.600593 0.861100 -0.407137
C18   C     C_2   0.877701 0.391789 0.182870 0.519901
H4    H     H_    0.899051 0.299796 0.101771 0.068678
O12   O     O_2   0.814367 0.487124 0.128459 -0.461818
C19   C     C_2   0.108607 0.257379 0.645262 0.235942
H5    H     H_    0.043975 0.169929 0.640081 0.145123
O13   O     O_2   0.214259 0.218685 0.651335 -0.544333
C20   C     C_2   0.140291 0.275491 0.298802 0.233511
H6    H     H_    0.224972 0.247636 0.356699 0.164432
O14   O     O_2   0.106649 0.195188 0.184775 -0.541830
C21   C     C_2   0.872714 0.313526 0.756117 0.394813
H7    H     H_    0.924976 0.252388 0.844842 0.040774
O15   O     O_2   0.771192 0.268992 0.728680 -0.487465
C22   C     C_2   0.894362 0.237354 0.401961 0.278804
H8    H     H_    0.958994 0.149546 0.405159 0.205019
O16   O     O_2   0.788390 0.201793 0.411490 -0.524234
C23   C     C_2   0.121152 0.764723 0.659798 0.905003
O17   O     O_2   0.056678 0.827567 0.761207 -0.556410
O18   O     O_R   0.246001 0.782882 0.678114 -0.738518
H9    H     H_    0.268616 0.843341 0.780391 0.368472
C24   C     C_2   0.136159 0.789220 0.377648 0.972144
O19   O     O_2   0.108814 0.919798 0.381662 -0.523165
O20   O     O_R   0.233992 0.747817 0.278133 -0.736340
H10   H     H_    0.267076 0.831454 0.210106 0.353487
C25   C     C_2   0.859207 0.798682 0.578282 0.849065
O21   O     O_2   0.758722 0.778224 0.634822 -0.563066
O22   O     O_R   0.902706 0.942159 0.581869 -0.721588
H11   H     H_    0.851809 0.009493 0.654831 0.368798
C26   C     C_2   0.875050 0.743756 0.301696 0.998146
O23   O     O_2   0.766916 0.738938 0.272966 -0.542062
O24   O     O_R   0.942886 0.831583 0.195632 -0.650538
H12   H     H_    0.895302 0.869793 0.097561 0.369478

loop_
_geom_bond_atom_site_label_1
_geom_bond_atom_site_label_2
_ccdc_geom_bond_type
C2    O4    A    
Cu1   N2    S    
C8    C14   S    
C9    C14   S    
C26   O24   S    
O18   H9    S    
C7    C20   S    
C15   O9    D    
C3    O5    A    
C6    C15   S    
Cu2   O2    S    
C11   C12   S    
C7    C13   S    
C2    O3    A    
C18   O12   D    
N1    N2    T    
C3    O6    A    
C11   C24   S    
C25   O21   D    
C19   O13   D    
C7    C16   S    
C21   H7    S    
C6    C13   S    
Cu1   O1    S    
C22   O16   D    
C11   C13   S    
O20   H10   S    
O22   H11   S    
C3    C14   S    
C20   O14   D    
C1    C5    S    
Cu1   O5    S    
C18   H4    S    
C17   O11   D    
C12   C14   S    
C17   H3    S    
C19   H5    S    
C8    C17   S    
C24   O20   S    
Cu2   O8    S    
C16   H2    S    
C4    O8    A    
C1    O1    A    
C25   O22   S    
C20   H6    S    
C24   O19   D    
C4    C10   S    
Cu1   Cu2   S    
C16   O10   D    
C9    C18   S    
C4    O7    A    
Cu1   O3    S    
C2    C13   S    
C11   C23   S    
C9    C22   S    
Cu2   O6    S    
O24   H12   S    
C21   O15   D    
C15   H1    S    
C7    C9    S    
C12   C26   S    
C8    C21   S    
C22   H8    S    
C1    O2    A    
C6    C8    S    
Cu1   O7    S    
C5    C10   T    
C6    C19   S    
C12   C25   S    
C23   O17   D    
Cu2   N1    S    
Cu2   O4    S    
C26   O23   D    
C23   O18   S    
