data_mof_unit_29040.cif
_audit_creation_date              2013-03-05T16:08:21-0500
_audit_creation_method            fapswitch 2.2
_symmetry_space_group_name_H-M    P1
_symmetry_Int_Tables_number       1
_space_group_crystal_system       triclinic
_cell_length_a                    6.962657
_cell_length_b                    14.522935
_cell_length_c                    16.091456
_cell_angle_alpha                 90.000134
_cell_angle_beta                  89.939808
_cell_angle_gamma                 90.044872
_cell_volume                      1627.13791119

loop_
_atom_site_label
_atom_site_type_symbol
_atom_site_description
_atom_site_fract_x
_atom_site_fract_y
_atom_site_fract_z
_atom_type_partial_charge
O1    O     O_R   0.505700 0.583890 0.413310 -0.602997
O2    O     O_R   0.175960 0.594920 0.586080 -0.604033
O3    O     O_R   0.005660 0.416110 0.586690 -0.596279
C1    C     C_R   0.344720 0.616876 0.614869 0.923927
O4    O     O_R   0.175980 0.594920 0.413930 -0.562978
O5    O     O_R   0.005680 0.416110 0.413310 -0.586560
C2    C     C_R   0.344777 0.616558 0.384895 0.968121
O6    O     O_R   0.505680 0.583890 0.586690 -0.594529
O7    O     O_3   0.339200 0.441330 0.500000 -0.284428
V1    V     V_3+5 0.064350 0.510880 0.500000 1.168554
O8    O     O_R   0.675960 0.405080 0.413920 -0.596422
C3    C     C_R   0.845027 0.383072 0.385156 1.015511
O9    O     O_R   0.675940 0.405080 0.586070 -0.602109
C4    C     C_R   0.844632 0.383113 0.614860 0.921736
V2    V     V_3+5 0.564340 0.489120 0.500000 1.153460
O10   O     O_3   0.839360 0.558670 0.500000 -0.277902
C5    C     C_R   0.006929 0.317458 0.741392 0.171423
C6    C     C_R   0.852501 0.317713 0.685583 -0.225047
C7    C     C_R   0.700948 0.255826 0.701386 -0.161852
H1    H     H_    0.578397 0.253583 0.660326 0.137699
C8    C     C_R   0.712281 0.191605 0.766864 -0.158174
H2    H     H_    0.597437 0.142145 0.774436 0.131526
C9    C     C_R   0.875841 0.187070 0.818346 -0.228243
C10   C     C_R   0.018588 0.253654 0.805948 0.180431
C11   C     C_3   0.229218 0.241476 0.793967 -0.477999
C12   C     C_3   0.216658 0.311397 0.723960 -0.461726
H3    H     H_    0.265406 0.170971 0.772185 0.184511
H4    H     H_    0.313292 0.266417 0.848177 0.202984
H5    H     H_    0.246409 0.281688 0.661602 0.189801
H6    H     H_    0.292694 0.376946 0.737855 0.192461
C13   C     C_R   0.726563 0.183402 0.240834 0.159559
C14   C     C_R   0.881716 0.182706 0.185284 -0.222848
C15   C     C_R   0.033621 0.244325 0.201176 -0.160154
H7    H     H_    0.156425 0.246380 0.160150 0.144871
C16   C     C_R   0.022493 0.308424 0.266760 -0.078963
H8    H     H_    0.137703 0.357640 0.274456 0.152125
C17   C     C_R   0.858757 0.313117 0.318243 -0.219362
C18   C     C_R   0.715081 0.247135 0.305480 0.131467
C19   C     C_3   0.505036 0.260503 0.292903 -0.459408
C20   C     C_3   0.517361 0.190688 0.222825 -0.448216
H9    H     H_    0.419285 0.235911 0.346826 0.181423
H10   H     H_    0.489564 0.220718 0.160443 0.202552
H11   H     H_    0.439461 0.125536 0.236372 0.178507
C21   C     C_R   0.506843 0.682517 0.741520 0.171428
C22   C     C_R   0.352639 0.682277 0.685598 -0.226387
C23   C     C_R   0.201158 0.744120 0.701339 -0.162137
H12   H     H_    0.078733 0.746350 0.660212 0.136893
C24   C     C_R   0.212403 0.808314 0.766847 -0.157474
H13   H     H_    0.097670 0.857759 0.774351 0.131374
C25   C     C_R   0.375790 0.812860 0.818429 -0.229474
C26   C     C_R   0.518412 0.746296 0.806107 0.182848
C27   C     C_3   0.729133 0.758487 0.794308 -0.476202
C28   C     C_3   0.716662 0.688604 0.724256 -0.463351
H14   H     H_    0.812884 0.733519 0.848578 0.204455
H15   H     H_    0.765629 0.829007 0.772592 0.183906
H16   H     H_    0.792449 0.623054 0.738179 0.192868
H17   H     H_    0.746743 0.718351 0.661934 0.189372
C29   C     C_R   0.497145 0.677693 0.253728 0.111021
C30   C     C_R   0.352081 0.681875 0.314118 -0.249707
C31   C     C_R   0.204696 0.747019 0.301440 -0.090906
H18   H     H_    0.085717 0.751299 0.344550 0.114900
C32   C     C_R   0.215617 0.811452 0.235938 -0.173708
H19   H     H_    0.104393 0.863125 0.230634 0.123161
C33   C     C_R   0.374765 0.812998 0.181491 -0.209806
C34   C     C_R   0.509163 0.742107 0.189963 0.150737
C35   C     C_3   0.723135 0.743777 0.191715 -0.585332
C36   C     C_3   0.710930 0.672055 0.260921 0.198354
H20   H     H_    0.779406 0.811232 0.213300 0.169813
H21   H     H_    0.766781 0.695747 0.321994 0.062521
O11   O     O_R   0.229000 0.916070 0.913330 -0.594065
O12   O     O_R   0.558770 0.905070 0.086080 -0.592588
O13   O     O_R   0.729000 0.083900 0.086690 -0.591894
C37   C     C_R   0.389542 0.883201 0.114924 0.945994
O14   O     O_R   0.558720 0.905070 0.913930 -0.595324
O15   O     O_R   0.728960 0.083900 0.913310 -0.594997
C38   C     C_R   0.389688 0.883126 0.885097 0.937163
O16   O     O_R   0.229050 0.916070 0.086710 -0.592862
O17   O     O_3   0.395460 0.058650 0.000020 -0.278373
V3    V     V_3+5 0.670340 0.989120 0.000000 1.146870
O18   O     O_R   0.058670 0.094960 0.913900 -0.595997
C39   C     C_R   0.889689 0.116846 0.885043 0.935045
O19   O     O_R   0.058720 0.094960 0.086050 -0.601634
C40   C     C_R   0.889885 0.117074 0.114726 0.938285
V4    V     V_3+5 0.170330 0.010930 0.999970 1.143461
O20   O     O_3   0.895340 0.941350 0.999980 -0.272007
H22   H     H_    0.787066 0.718040 0.132788 0.232770
N1    N     N_R   0.785750 0.582345 0.235042 0.253243
O21   O     O_R   0.704891 0.536090 0.175195 -0.404653
O22   O     O_R   0.944871 0.552034 0.267055 -0.413166
H23   H     H_    0.470970 0.331264 0.271140 0.213139

loop_
_geom_bond_atom_site_label_1
_geom_bond_atom_site_label_2
_geom_bond_distance
_ccdc_geom_bond_type
C35   H20   1.110650 S    
N1    O21   1.302380 A    
C4    C6    1.483403 S    
C7    H1    1.080196 S    
O18   V4    2.003915 S    
O12   V3    2.002086 S    
C19   H9    1.111541 S    
C22   C23   1.408592 A    
C21   C22   1.401625 A    
C11   H4    1.111547 S    
C17   C18   1.400030 A    
O14   C38   1.304805 A    
C5    C12   1.489353 S    
C7    C8    1.409460 A    
O13   V3    2.001940 S    
O5    C3    1.298805 A    
C18   C19   1.489474 S    
V2    O10   2.164241 S    
C13   C20   1.489296 S    
C31   C32   1.411426 A    
C6    C7    1.408504 A    
C3    C17   1.483421 S    
C32   C33   1.412058 A    
O8    V2    2.002874 S    
C21   C28   1.489345 S    
C20   H11   1.111726 S    
C16   H8    1.081195 S    
C33   C37   1.482250 S    
O1    V2    2.002257 S    
O11   V4    2.002036 S    
O7    V1    2.164594 S    
C19   H23   1.111544 S    
C27   H15   1.111300 S    
C1    O6    1.300336 A    
C20   H10   1.111693 S    
C35   C36   1.527092 S    
C30   C31   1.411287 A    
O9    C4    1.302948 A    
C2    C30   1.483005 S    
C27   H14   1.111556 S    
C5    C6    1.401668 A    
C1    C22   1.483436 S    
C23   C24   1.409430 A    
C5    C10   1.394489 A    
C26   C27   1.489637 S    
C10   C11   1.489634 S    
C19   C20   1.518862 S    
O4    C2    1.302533 A    
C28   H17   1.111576 S    
O17   V3    2.164643 S    
O15   C39   1.298579 A    
O16   V4    2.003830 S    
C25   C26   1.400367 A    
C29   C30   1.402218 A    
C31   H18   1.081768 S    
C36   H21   1.111749 S    
O2    C1    1.302886 A    
O5    V1    2.001856 S    
C32   H19   1.082225 S    
C25   C38   1.483780 S    
C29   C34   1.390911 A    
C13   C14   1.401471 A    
C9    C10   1.400280 A    
C15   H7    1.080090 S    
V4    O20   2.164259 S    
O3    C4    1.300100 A    
C21   C26   1.394505 A    
C24   H13   1.081242 S    
C12   H6    1.111733 S    
O6    V2    2.001680 S    
O19   V4    2.002756 S    
O14   V3    2.003238 S    
C8    C9    1.410535 A    
O11   C38   1.298781 A    
O2    V1    2.003232 S    
V3    O20   1.713835 S    
C27   C28   1.519310 S    
O12   C37   1.304952 A    
C28   H16   1.111732 S    
C14   C40   1.483508 S    
C23   H12   1.080208 S    
C9    C39   1.483808 S    
C16   C17   1.410244 A    
O1    C2    1.300565 A    
O18   C39   1.304859 A    
C35   H22   1.111910 S    
O8    C3    1.304428 A    
C11   H3    1.111314 S    
C36   N1    1.463847 S    
C13   C18   1.394699 A    
C14   C15   1.408529 A    
O9    V2    2.003839 S    
C11   C12   1.519276 S    
O4    V1    2.002050 S    
O3    V1    2.001289 S    
V1    O10   1.713890 S    
C33   C34   1.398575 A    
C24   C25   1.410440 A    
C15   C16   1.409358 A    
C34   C35   1.490288 S    
O7    V2    1.713851 S    
O13   C40   1.300260 A    
O17   V4    1.713379 S    
C29   C36   1.495434 S    
C12   H5    1.111597 S    
O19   C40   1.302851 A    
N1    O22   1.299444 A    
C37   O16   1.297914 A    
C8    H2    1.081252 S    
O15   V3    2.001292 S    
