data_mof_unit_34347.cif
_audit_creation_date              2012-10-26T18:50:24-0400
_audit_creation_method            fapswitch 2.2
_symmetry_space_group_name_H-M    P1
_symmetry_Int_Tables_number       1
_space_group_crystal_system       triclinic
_cell_length_a                    9.618195
_cell_length_b                    10.773868
_cell_length_c                    15.49906
_cell_angle_alpha                 87.395262
_cell_angle_beta                  74.134803
_cell_angle_gamma                 89.756245
_cell_volume                      1543.26065305

loop_
_atom_site_label
_atom_site_type_symbol
_atom_type_description
_atom_site_fract_x
_atom_site_fract_y
_atom_site_fract_z
_atom_type_partial_charge
C1    C     C_R   0.999490 0.262848 0.501901 0.541074
C2    C     C_R   0.223544 0.487515 0.042612 0.049924
C3    C     C_R   0.324241 0.517096 0.090609 0.032858
C4    C     C_R   0.918099 0.501394 0.671886 0.523710
C5    C     C_R   0.076807 0.469062 0.087715 -0.144384
C6    C     C_R   0.028687 0.476934 0.180509 -0.142033
C7    C     C_R   0.273426 0.520845 0.184526 -0.136555
C8    C     C_R   0.027122 0.118185 0.659583 -0.104484
C9    C     C_R   0.039904 0.047568 0.734668 -0.120646
C10   C     C_R   0.038968 0.918413 0.734323 -0.113484
C11   C     C_R   0.025476 0.859149 0.658835 -0.099433
C12   C     C_R   0.670317 0.526815 0.904688 0.035472
C13   C     C_R   0.013313 0.928779 0.581693 -0.001891
C14   C     C_R   0.014040 0.059918 0.582215 0.015138
C15   C     C_R   0.998584 0.129007 0.505859 -0.013622
C16   C     C_R   0.999521 0.737163 0.500729 0.568436
C17   C     C_R   0.982521 0.070410 0.430887 -0.134859
C18   C     C_R   0.983461 0.941824 0.429322 0.068308
C19   C     C_R   0.998043 0.871017 0.504500 0.047541
C20   C     C_R   0.697257 0.660617 0.377836 -0.082404
C21   C     C_R   0.651855 0.738085 0.316991 -0.173852
C22   C     C_R   0.508051 0.740838 0.318475 -0.183271
C23   C     C_R   0.768532 0.569946 0.950426 0.050278
C24   C     C_R   0.409121 0.664381 0.379574 -0.088379
C25   C     C_R   0.451212 0.580307 0.440636 0.160915
C26   C     C_R   0.600803 0.579444 0.440233 0.151463
C27   C     C_R   0.549106 0.424189 0.556875 -0.001667
C28   C     C_R   0.081898 0.500530 0.327995 0.542704
C29   C     C_R   0.401405 0.424046 0.556732 -0.004609
C30   C     C_R   0.871988 0.515397 0.769269 -0.005121
C31   C     C_R   0.127414 0.500576 0.229519 -0.000368
C32   C     C_R   0.915558 0.586432 0.905272 -0.149391
C33   C     C_R   0.966985 0.559805 0.815074 -0.155021
C34   C     C_R   0.520102 0.516363 0.950130 0.034078
C35   C     C_R   0.726344 0.495486 0.814834 -0.126467
C36   C     C_R   0.472625 0.537566 0.043623 0.031649
C37   C     C_R   0.574530 0.580521 0.086574 -0.141637
C38   C     C_R   0.719113 0.597312 0.040474 -0.139721
C39   C     C_R   0.415432 0.488600 0.904754 -0.138706
C40   C     C_R   0.270192 0.475384 0.950240 -0.141247
Cu1   Cu    Cu3+1 0.140660 0.499990 0.500010 0.919018
Cu2   Cu    Cu3+1 0.859340 0.500010 0.499990 0.930823
H1    H     H_    0.793004 0.631501 0.075900 0.109404
H2    H     H_    0.728692 0.797280 0.268710 0.120410
H3    H     H_    0.346374 0.535257 0.224781 0.122318
H4    H     H_    0.472558 0.802690 0.271802 0.121681
H5    H     H_    0.301505 0.675371 0.375368 0.187275
H6    H     H_    0.326094 0.361678 0.603248 0.112490
H7    H     H_    0.915244 0.461013 0.214017 0.133131
H8    H     H_    0.194034 0.453680 0.912769 0.107250
H9    H     H_    0.990321 0.622270 0.939357 0.108342
H10   H     H_    0.079857 0.577033 0.780727 0.124439
H11   H     H_    0.659020 0.454780 0.778302 0.115390
H12   H     H_    0.999512 0.446373 0.051356 0.113572
H13   H     H_    0.545650 0.606094 0.155456 0.112362
H14   H     H_    0.441161 0.479709 0.833220 0.101430
H15   H     H_    0.061725 0.912522 0.297187 0.225261
H16   H     H_    0.879782 0.914827 0.334936 0.226673
H17   H     H_    0.971735 0.125025 0.372534 0.120358
H18   H     H_    0.026420 0.218274 0.663050 0.120749
H19   H     H_    0.049767 0.093255 0.793529 0.110887
H20   H     H_    0.048066 0.863851 0.792917 0.115440
H21   H     H_    0.023734 0.758798 0.661834 0.132497
H22   H     H_    0.583762 0.361936 0.603555 0.115095
H23   H     H_    0.808834 0.668446 0.373323 0.207656
N1    N     N_R   0.648320 0.501210 0.499140 -0.245626
N2    N     N_R   0.352470 0.501290 0.499110 -0.242516
N3    N     N_3   0.973473 0.882960 0.350162 -0.655126
O1    O     O_R   0.118810 0.319640 0.500010 -0.495167
O2    O     O_R   0.881240 0.319660 0.500000 -0.496870
O3    O     O_R   0.055570 0.499980 0.629840 -0.515846
O4    O     O_R   0.818000 0.500010 0.629830 -0.505112
O5    O     O_R   0.118760 0.680340 0.500000 -0.527776
O6    O     O_R   0.881190 0.680360 0.499990 -0.497516
O7    O     O_R   0.182000 0.499990 0.370170 -0.520597
O8    O     O_R   0.944430 0.500020 0.370160 -0.522096

loop_
_geom_bond_atom_site_label_1
_geom_bond_atom_site_label_2
_ccdc_geom_bond_type
C35   H11   S    
Cu1   Cu2   S    
C25   N2    A    
C11   H21   S    
Cu1   N2    S    
C33   H10   S    
C12   C23   A    
C30   C35   A    
C16   O6    A    
C7    H3    S    
C36   C37   A    
C3    C7    A    
C5    C6    A    
C27   C29   A    
C18   N3    S    
Cu2   O2    S    
C18   C19   A    
C29   N2    A    
C8    C9    A    
C1    C15   S    
C9    C10   A    
Cu1   O3    S    
C6    C31   A    
C13   C14   A    
C10   H20   S    
Cu2   O6    S    
C7    C31   A    
C13   C19   A    
C29   H6    S    
C16   O5    A    
C26   N1    A    
C20   H23   S    
C24   C25   A    
C27   H22   S    
C39   C40   A    
C25   C26   A    
C1    O1    A    
C34   C39   A    
C32   H9    S    
C37   C38   A    
C9    H19   S    
Cu1   O7    S    
C21   H2    S    
C5    H12   S    
C39   H14   S    
Cu2   O4    S    
C17   C18   A    
C12   C35   A    
C17   H17   S    
H16   N3    S    
C22   H4    S    
C22   C24   A    
C2    C5    A    
H15   N3    S    
C12   C34   A    
C28   O8    A    
C4    O4    A    
Cu1   O1    S    
C15   C17   A    
C8    C14   A    
C30   C33   A    
C24   H5    S    
C28   C31   S    
C23   C32   A    
C23   C38   A    
Cu2   O8    S    
C1    O2    A    
C32   C33   A    
C2    C3    A    
C38   H1    S    
C27   N1    A    
C8    H18   S    
C11   C13   A    
C20   C26   A    
C3    C36   A    
C16   C19   S    
C40   H8    S    
C34   C36   A    
C6    H7    S    
C10   C11   A    
Cu1   O5    S    
C37   H13   S    
C2    C40   A    
C20   C21   A    
Cu2   N1    S    
C14   C15   A    
C21   C22   A    
C28   O7    A    
C4    O3    A    
C4    C30   S    
