data_mof_unit_48388.cif
_audit_creation_date              2012-12-10T16:59:16-0500
_audit_creation_method            fapswitch 2.2
_symmetry_space_group_name_H-M    P1
_symmetry_Int_Tables_number       1
_space_group_crystal_system       triclinic
_cell_length_a                    7.770904
_cell_length_b                    8.539162
_cell_length_c                    27.718225
_cell_angle_alpha                 91.657857
_cell_angle_beta                  85.539761
_cell_angle_gamma                 93.45514
_cell_volume                      1829.85179383

loop_
_atom_site_label
_atom_site_type_symbol
_atom_type_description
_atom_site_fract_x
_atom_site_fract_y
_atom_site_fract_z
_atom_type_partial_charge
Br1   Br    Br    0.776085 0.946764 0.869218 -0.434419
Br2   Br    Br    0.223919 0.053227 0.130782 -0.434419
C1    C     C_R   0.545599 0.794668 0.498784 0.969167
C2    C     C_R   0.511025 0.646526 0.128016 -0.008008
C3    C     C_R   0.508197 0.496262 0.646809 -0.040376
C4    C     C_R   0.491803 0.503736 0.353191 -0.040376
C5    C     C_R   0.544344 0.641035 0.025873 0.073280
C6    C     C_R   0.455660 0.358956 0.974127 0.073280
C7    C     C_R   0.431432 0.364745 0.025381 -0.001063
C8    C     C_R   0.568572 0.635246 0.974619 -0.001064
C9    C     C_R   0.479351 0.504435 0.051028 0.080819
C10   C     C_R   0.520653 0.495556 0.948971 0.080819
C11   C     C_R   0.580191 0.780326 0.053053 -0.207915
C12   C     C_R   0.454401 0.205332 0.501216 0.969167
C13   C     C_R   0.419812 0.219665 0.946947 -0.207914
C14   C     C_R   0.566206 0.782006 0.103064 -0.068120
C15   C     C_R   0.433797 0.217985 0.896936 -0.068120
C16   C     C_R   0.501755 0.499259 0.594029 0.882827
C17   C     C_R   0.498245 0.500741 0.405971 0.882827
C18   C     C_R   0.644528 0.763751 0.948105 -0.267080
C19   C     C_R   0.355477 0.236240 0.051895 -0.267080
C20   C     C_2   0.569850 0.958030 0.498055 -0.370627
C21   C     C_2   0.430150 0.041970 0.501944 -0.370627
C22   C     C_R   0.601012 0.621560 0.820945 0.548302
C23   C     C_R   0.537511 0.492206 0.897608 -0.097059
C24   C     C_R   0.398990 0.378432 0.179054 0.548302
C25   C     C_R   0.495596 0.353225 0.821604 0.535034
C26   C     C_R   0.504405 0.646768 0.178396 0.535034
C27   C     C_R   0.683585 0.490771 0.715395 -0.088927
C28   C     C_R   0.316416 0.509225 0.284605 -0.088926
C29   C     C_R   0.670910 0.494646 0.665842 -0.261018
C30   C     C_R   0.329091 0.505353 0.334158 -0.261020
C31   C     C_R   0.356669 0.493392 0.678677 0.085429
C32   C     C_R   0.643330 0.506603 0.321323 0.085429
C33   C     C_R   0.371505 0.489505 0.728465 -0.143761
C34   C     C_R   0.462492 0.507785 0.102392 -0.097059
C35   C     C_R   0.628495 0.510488 0.271535 -0.143761
C36   C     C_R   0.534083 0.488208 0.746599 0.294251
C37   C     C_R   0.465917 0.511785 0.253401 0.294251
C38   C     C_R   0.601550 0.627131 0.871804 -0.099255
C39   C     C_R   0.398453 0.372860 0.128195 -0.099256
C40   C     C_R   0.661219 0.761456 0.897877 0.325403
C41   C     C_R   0.338785 0.238535 0.102123 0.325403
C42   C     C_R   0.488977 0.353466 0.871984 -0.008008
H1    H     H_    0.256429 0.487955 0.753223 0.144291
H2    H     H_    0.381952 0.108308 0.962938 0.148706
H3    H     H_    0.696858 0.868569 0.965327 0.173031
H4    H     H_    0.303147 0.131421 0.034673 0.173030
H5    H     H_    0.701966 0.008639 0.494325 0.173272
H6    H     H_    0.298034 0.991361 0.505675 0.173272
H7    H     H_    0.127178 0.591110 0.676124 0.187117
H8    H     H_    0.116527 0.392790 0.673320 0.192129
H9    H     H_    0.872820 0.408884 0.323876 0.187117
H10   H     H_    0.883472 0.607204 0.326680 0.192129
H11   H     H_    0.974749 0.238426 0.466173 0.171295
H12   H     H_    0.743570 0.512036 0.246776 0.144290
H13   H     H_    0.997882 0.368519 0.421637 0.179214
H14   H     H_    0.025251 0.761574 0.533827 0.171294
H15   H     H_    0.002118 0.631482 0.578363 0.179214
H16   H     H_    0.210709 0.503416 0.357519 0.170896
H17   H     H_    0.789292 0.496585 0.642480 0.170895
H18   H     H_    0.190560 0.510082 0.270371 0.141235
H19   H     H_    0.809441 0.489914 0.729629 0.141235
H20   H     H_    0.599309 0.890916 0.122148 0.212149
H21   H     H_    0.400693 0.109076 0.877851 0.212149
H22   H     H_    0.618051 0.891683 0.037061 0.148705
N1    N     N_R   0.546597 0.486870 0.797552 -0.364721
N2    N     N_R   0.453404 0.513123 0.202448 -0.364721
N3    N     N_2   0.950320 0.457960 0.486880 -0.004565
N4    N     N_2   0.049680 0.542040 0.513120 -0.004565
N5    N     N_3   0.188171 0.493352 0.661015 -0.442218
N6    N     N_3   0.811828 0.506643 0.338985 -0.442218
N7    N     N_3   0.031168 0.348413 0.456620 -0.316352
N8    N     N_3   0.968832 0.651587 0.543380 -0.316353
O1    O     O_R   0.389250 0.738570 0.503220 -0.624790
O2    O     O_2   0.351318 0.250419 0.205257 -0.477133
O3    O     O_2   0.550691 0.778802 0.203364 -0.513363
O4    O     O_2   0.449310 0.221190 0.796636 -0.513363
O5    O     O_R   0.610750 0.261430 0.496780 -0.624790
O6    O     O_R   0.678390 0.711630 0.494810 -0.613435
O7    O     O_R   0.321610 0.288370 0.505190 -0.613435
O8    O     O_R   0.355440 0.513440 0.575450 -0.598279
O9    O     O_R   0.644560 0.486560 0.424550 -0.598279
O10   O     O_R   0.644590 0.486500 0.567040 -0.620948
O11   O     O_R   0.355410 0.513500 0.432960 -0.620948
O12   O     O_2   0.648684 0.749573 0.794743 -0.477133
Zn1   Zn    Zn3+2 0.306940 0.517990 0.505620 0.975588
Zn2   Zn    Zn3+2 0.693060 0.482010 0.494380 0.975588

loop_
_geom_bond_atom_site_label_1
_geom_bond_atom_site_label_2
_ccdc_geom_bond_type
C5    C8    A    
C4    C30   A    
C27   H19   S    
C32   C35   A    
C37   N2    S    
C29   H17   S    
C25   O4    S    
C2    C34   A    
C5    C9    A    
C4    C17   S    
C9    C34   A    
C26   N2    A    
C23   C38   A    
C1    O6    A    
O8    Zn1   S    
H13   N7    S    
C22   N1    A    
C31   C33   A    
C19   C41   A    
C35   H12   S    
C25   C42   A    
C8    C18   A    
C6    C7    A    
C3    C31   A    
C27   C36   A    
N4    N8    S    
C16   O10   A    
N3    N7    S    
C1    O1    A    
C19   H4    S    
C38   C40   A    
O9    Zn2   S    
O6    Zn2   S    
C39   C41   A    
C34   C39   A    
H7    N5    S    
C17   O9    A    
N4    Zn1   S    
C23   C42   A    
O5    Zn2   S    
C2    C26   A    
C11   H22   S    
O11   Zn1   S    
C33   C36   A    
C21   H6    S    
C3    C16   S    
C4    C32   A    
C12   C21   S    
C2    C14   A    
C24   O2    S    
Br2   C41   S    
C6    C10   A    
C12   O5    A    
C26   O3    S    
C7    C9    A    
H15   N8    S    
O7    Zn1   S    
N3    Zn2   S    
C8    C10   A    
C20   H5    S    
O1    Zn1   S    
C6    C13   A    
C28   H18   S    
C30   H16   S    
C33   H1    S    
C32   N6    S    
H14   N8    S    
C13   C15   A    
C22   C38   A    
O10   Zn2   S    
C17   O11   A    
C18   C40   A    
C15   H21   S    
C13   H2    S    
C10   C23   A    
C24   N2    A    
C15   C42   A    
C27   C29   A    
H8    N5    S    
C28   C30   A    
C7    C19   A    
C16   O8    A    
C28   C37   A    
N3    N4    D    
C18   H3    S    
C25   N1    A    
C31   N5    S    
H11   N7    S    
Br1   C40   S    
C5    C11   A    
H10   N6    S    
C36   N1    S    
C35   C37   A    
C11   C14   A    
C20   C21   D    
C1    C20   S    
C14   H20   S    
C12   O7    A    
H9    N6    S    
C22   O12   S    
C24   C39   A    
C3    C29   A    
