data_mof_unit_10782.cif
_audit_creation_date              2012-12-10T17:11:59-0500
_audit_creation_method            fapswitch 2.2
_symmetry_space_group_name_H-M    P1
_symmetry_Int_Tables_number       1
_space_group_crystal_system       triclinic
_cell_length_a                    11.659866
_cell_length_b                    13.352676
_cell_length_c                    15.830065
_cell_angle_alpha                 90.888014
_cell_angle_beta                  75.734669
_cell_angle_gamma                 98.755237
_cell_volume                      2360.13765535

loop_
_atom_site_label
_atom_site_type_symbol
_atom_type_description
_atom_site_fract_x
_atom_site_fract_y
_atom_site_fract_z
_atom_type_partial_charge
C1    C     C_R   0.519175 0.700780 0.500939 0.906241
C2    C     C_R   0.480935 0.299070 0.498725 0.872176
C3    C     C_R   0.368926 0.440783 0.086378 -0.152014
C4    C     C_R   0.639834 0.525078 0.912449 -0.217998
C5    C     C_R   0.281096 0.418794 0.040168 0.355184
C6    C     C_R   0.728831 0.541685 0.957917 0.413045
C7    C     C_R   0.471598 0.185915 0.500794 -0.322127
C8    C     C_R   0.528903 0.813601 0.497458 -0.343640
C9    C     C_R   0.656775 0.975898 0.467553 0.159020
C10   C     C_R   0.343827 0.023013 0.529078 0.179969
C11   C     C_R   0.641460 0.874755 0.493647 0.335217
C12   C     C_R   0.358922 0.124775 0.504474 0.335841
C13   C     C_R   0.429709 0.864565 0.494074 0.396908
C14   C     C_R   0.571171 0.134458 0.502619 0.292305
C15   C     C_R   0.442653 0.971015 0.505953 -0.099379
C16   C     C_R   0.558045 0.028153 0.490052 -0.087471
C17   C     C_R   0.941403 0.592303 0.581970 0.110113
C18   C     C_R   0.060791 0.411731 0.414111 0.101692
C19   C     C_R   0.822645 0.582306 0.574455 0.108298
C20   C     C_R   0.179703 0.421843 0.422088 0.200088
C21   C     C_R   0.859412 0.462950 0.463542 0.249374
C22   C     C_R   0.140656 0.537491 0.535873 0.196296
C23   C     C_R   0.426929 0.483513 0.668271 0.860684
C24   C     C_R   0.573145 0.516037 0.331881 0.869184
C25   C     C_R   0.979808 0.468004 0.468880 -0.020375
C26   C     C_R   0.020891 0.533104 0.529769 0.004984
C27   C     C_R   0.383615 0.453554 0.764282 -0.273899
C28   C     C_R   0.618483 0.539429 0.235314 -0.282990
C29   C     C_R   0.235123 0.381647 0.895859 0.163884
C30   C     C_R   0.777526 0.582326 0.101571 0.100782
C31   C     C_R   0.262538 0.413102 0.806904 0.260461
C32   C     C_R   0.739688 0.579452 0.194320 0.282543
C33   C     C_R   0.469252 0.445409 0.812372 0.193005
C34   C     C_R   0.535860 0.536171 0.183638 0.297698
C35   C     C_R   0.435417 0.454919 0.904030 -0.029105
C36   C     C_R   0.572807 0.516872 0.093909 -0.071479
C37   C     C_R   0.314646 0.420218 0.947557 -0.113942
C38   C     C_R   0.696009 0.543624 0.050832 -0.045760
C39   C     C_R   0.521105 0.486989 0.953286 0.069883
C40   C     C_R   0.487584 0.480860 0.045063 0.069728
Cu1   Cu    Cu3+1 0.386820 0.492450 0.493500 1.115446
Cu2   Cu    Cu3+1 0.613180 0.507550 0.506500 1.099934
H1    H     H_    0.243632 0.383370 0.377911 0.177890
H2    H     H_    0.760806 0.624198 0.616741 0.165734
H3    H     H_    0.341969 0.430078 0.156407 0.206193
H4    H     H_    0.665455 0.539150 0.843339 0.163082
H5    H     H_    0.174836 0.587104 0.581133 0.221266
H6    H     H_    0.825917 0.415939 0.416307 0.152239
N1    N     N_R   0.216750 0.481110 0.483710 -0.225111
N2    N     N_R   0.783250 0.518890 0.516290 -0.198794
O1    O     O_R   0.419950 0.645670 0.495380 -0.537659
O2    O     O_R   0.580050 0.354330 0.504620 -0.562034
O3    O     O_R   0.611110 0.658410 0.506370 -0.505665
O4    O     O_R   0.388890 0.341590 0.493630 -0.516720
O5    O     O_R   0.350820 0.490050 0.621260 -0.540044
O6    O     O_R   0.649180 0.509950 0.378740 -0.547758
O7    O     O_R   0.541970 0.502800 0.632250 -0.590158
O8    O     O_R   0.458030 0.497200 0.367750 -0.554335
S1    S     S_3+6 0.131510 0.406621 0.104357 0.010098
O9    O     O_2   0.044213 0.422691 0.052356 -0.214305
O10   O     O_2   0.096570 0.302802 0.146546 -0.274908
O11   O     O_3   0.124917 0.493728 0.182506 -0.498718
H7    H     H_    0.140882 0.559856 0.150991 0.379334
S2    S     S_3+6 0.876997 0.551002 0.891633 0.039008
O12   O     O_2   0.930771 0.660616 0.874507 -0.260419
O13   O     O_2   0.953758 0.498485 0.934070 -0.197366
O14   O     O_3   0.874243 0.495347 0.796229 -0.493543
H8    H     H_    0.840593 0.423575 0.812150 0.420505
N3    N     N_3   0.980537 0.664286 0.640848 -0.485220
H9    H     H_    0.971440 0.736090 0.620369 0.263260
H10   H     H_    0.921882 0.650404 0.702294 0.289745
N4    N     N_3   0.022610 0.343570 0.351935 -0.479777
H11   H     H_    0.997029 0.385988 0.306869 0.300081
H12   H     H_    0.093392 0.308095 0.317409 0.272890
S3    S     S_3+6 0.427684 0.619106 0.213544 0.031441
O15   O     O_2   0.314997 0.564100 0.272064 -0.294972
O16   O     O_2   0.478666 0.707130 0.260267 -0.247347
O17   O     O_3   0.395388 0.664271 0.124867 -0.517326
H13   H     H_    0.332133 0.706359 0.148081 0.393112
S4    S     S_3+6 0.567371 0.355502 0.774472 0.073092
O18   O     O_2   0.593286 0.303993 0.850004 -0.230888
O19   O     O_2   0.507231 0.276570 0.724204 -0.229920
O20   O     O_3   0.697541 0.410316 0.709654 -0.439923
H14   H     H_    0.695207 0.483626 0.713502 0.316086
S5    S     S_3+6 0.836152 0.641968 0.257588 0.047753
O21   O     O_2   0.891067 0.563886 0.294636 -0.258366
O22   O     O_2   0.935750 0.719328 0.207199 -0.283377
O23   O     O_3   0.754890 0.702637 0.338985 -0.461986
H15   H     H_    0.720687 0.751724 0.309829 0.337807
S6    S     S_3+6 0.145062 0.396703 0.752233 0.095533
O24   O     O_2   0.179215 0.336136 0.671712 -0.211692
O25   O     O_2   0.029273 0.343315 0.808319 -0.186824
O26   O     O_3   0.123474 0.511999 0.724952 -0.479740
H16   H     H_    0.136522 0.555998 0.773706 0.377682
N5    N     N_3   0.140473 0.298271 0.927545 -0.398340
H17   H     H_    0.146637 0.243001 0.879757 0.242488
H18   H     H_    0.158826 0.260779 0.978964 0.251097
N6    N     N_3   0.894495 0.632167 0.058612 -0.441415
H19   H     H_    0.898633 0.710337 0.066372 0.273579
H20   H     H_    0.959226 0.603822 0.082722 0.300555
S7    S     S_3+6 0.709488 0.192949 0.525748 0.102498
O27   O     O_2   0.698941 0.281343 0.584501 -0.146176
O28   O     O_2   0.759068 0.117652 0.570563 -0.154186
O29   O     O_3   0.807871 0.229002 0.430812 -0.504940
H21   H     H_    0.758820 0.241412 0.390198 0.330465
S8    S     S_3+6 0.292555 0.804895 0.470152 0.051729
O30   O     O_2   0.206636 0.769899 0.555121 -0.316243
O31   O     O_2   0.240637 0.880327 0.427126 -0.211249
O32   O     O_3   0.304688 0.707292 0.402635 -0.432842
H22   H     H_    0.223353 0.687469 0.393377 0.386027
S9    S     S_3+6 0.247581 0.162017 0.457444 0.035778
O33   O     O_2   0.171863 0.225600 0.520114 -0.229574
O34   O     O_2   0.309254 0.221255 0.374615 -0.323478
O35   O     O_3   0.157409 0.061906 0.431680 -0.469277
H23   H     H_    0.096223 0.091324 0.410582 0.394554
S10   S     S_3+6 0.751068 0.839261 0.543426 0.028964
O36   O     O_2   0.687299 0.781615 0.626683 -0.321972
O37   O     O_2   0.828620 0.775000 0.482965 -0.237563
O38   O     O_3   0.840078 0.940233 0.569004 -0.465575
H24   H     H_    0.900098 0.911608 0.592096 0.379308
N7    N     N_3   0.765433 0.020290 0.407060 -0.485580
H25   H     H_    0.839304 0.016374 0.432155 0.317970
H26   H     H_    0.775692 0.977478 0.350564 0.227173
N8    N     N_3   0.235574 0.977675 0.589566 -0.470795
H27   H     H_    0.225344 0.019732 0.646482 0.230181
H28   H     H_    0.161283 0.981450 0.564962 0.308099

loop_
_geom_bond_atom_site_label_1
_geom_bond_atom_site_label_2
_ccdc_geom_bond_type
C17   N3    S    
O26   H16   S    
C5    C37   A    
C1    C8    S    
Cu1   Cu2   S    
C2    C7    S    
O35   H23   S    
C4    H4    S    
S5    O21   D    
C27   C33   A    
C8    C13   A    
C17   C26   A    
C35   C37   A    
C9    C16   A    
Cu1   O8    S    
C10   N8    S    
C10   C15   A    
Cu2   O3    S    
S4    O18   D    
S8    O30   D    
C15   C16   A    
S10   O36   D    
C30   C38   A    
N3    H10   S    
C6    S2    S    
S3    O16   D    
C1    O3    A    
Cu1   O5    S    
Cu2   O6    S    
C7    C14   A    
S9    O33   D    
C9    N7    S    
C6    C38   A    
C23   C27   S    
C18   C20   A    
C34   S3    S    
C21   H6    S    
C22   H5    S    
C28   C34   A    
S1    O9    D    
S7    O28   D    
C18   C25   A    
S4    O20   S    
C10   C12   A    
Cu2   O7    S    
Cu1   N1    S    
O29   H21   S    
S7    O27   D    
S5    O22   D    
C18   N4    S    
C7    C12   A    
S1    O10   D    
C5    S1    S    
C27   C31   A    
O14   H8    S    
S2    O14   S    
C28   C32   A    
C4    C6    A    
C2    O4    A    
C39   C40   A    
C29   N5    S    
O17   H13   S    
N4    H11   S    
C14   S7    S    
C25   C26   A    
C3    H3    S    
S2    O13   D    
C35   C39   A    
S3    O15   D    
O11   H7    S    
C33   C35   A    
C20   N1    A    
C1    O1    A    
S6    O25   D    
O20   H14   S    
C4    C39   A    
C36   C40   A    
C31   S6    S    
S9    O34   D    
C11   S10   S    
C9    C11   A    
N7    H25   S    
C2    O2    A    
Cu2   N2    S    
C22   N1    A    
N4    H12   S    
C3    C40   A    
S7    O29   S    
N6    H20   S    
C13   C15   A    
C14   C16   A    
C20   H1    S    
C19   H2    S    
S6    O26   S    
N8    H28   S    
S5    O23   S    
C23   O7    A    
C21   C25   A    
S1    O11   S    
C24   C28   S    
C13   S8    S    
C3    C5    A    
O38   H24   S    
N5    H18   S    
C33   S4    S    
C23   O5    A    
C24   O6    A    
C30   N6    S    
S10   O38   S    
S2    O12   D    
C36   C38   A    
C29   C31   A    
O32   H22   S    
C30   C32   A    
C19   N2    A    
S6    O24   D    
S8    O31   D    
C8    C11   A    
C32   S5    S    
C17   C19   A    
S4    O19   D    
S10   O37   D    
S9    O35   S    
C34   C36   A    
N3    H9    S    
S3    O17   S    
Cu1   O4    S    
N7    H26   S    
O23   H15   S    
C24   O8    A    
N6    H19   S    
C22   C26   A    
C29   C37   A    
N5    H17   S    
C21   N2    A    
Cu1   O1    S    
C12   S9    S    
Cu2   O2    S    
N8    H27   S    
S8    O32   S    
