data_mof_unit_15811.cif
_audit_creation_date              2012-10-26T21:10:49-0400
_audit_creation_method            fapswitch 2.2
_symmetry_space_group_name_H-M    P1
_symmetry_Int_Tables_number       1
_space_group_crystal_system       triclinic
_cell_length_a                    10.923094
_cell_length_b                    14.654025
_cell_length_c                    14.94398
_cell_angle_alpha                 65.98485
_cell_angle_beta                  105.090699
_cell_angle_gamma                 102.208979
_cell_volume                      2094.47802756

loop_
_atom_site_label
_atom_site_type_symbol
_atom_type_description
_atom_site_fract_x
_atom_site_fract_y
_atom_site_fract_z
_atom_type_partial_charge
Br1   Br    Br    0.172266 0.186784 0.961464 -0.308405
Br2   Br    Br    0.792191 0.567568 0.448079 -0.369983
Br3   Br    Br    0.907695 0.217455 0.462364 -0.343904
Br4   Br    Br    0.092307 0.782544 0.537639 -0.343910
Br5   Br    Br    0.372130 0.654454 0.722066 -0.414066
Br6   Br    Br    0.627888 0.345540 0.277935 -0.414054
Br7   Br    Br    0.633825 0.975282 0.865063 -0.217540
Br8   Br    Br    0.366167 0.024719 0.134937 -0.217537
Br9   Br    Br    0.827729 0.813220 0.038539 -0.308407
Br10  Br    Br    0.765337 0.432009 0.791441 -0.427294
Br11  Br    Br    0.234670 0.567994 0.208556 -0.427297
Br12  Br    Br    0.191171 0.887200 0.303965 -0.308298
Br13  Br    Br    0.808826 0.112798 0.696037 -0.308298
Br14  Br    Br    0.386390 0.091841 0.876306 -0.217960
Br15  Br    Br    0.613605 0.908165 0.123694 -0.217960
Br16  Br    Br    0.207808 0.432434 0.551914 -0.369981
C1    C     C_R   0.483200 0.119961 0.312379 0.588138
C2    C     C_R   0.682395 0.769353 0.953361 0.175549
C3    C     C_R   0.383445 0.159327 0.130538 0.194566
C4    C     C_R   0.616553 0.840674 0.869463 0.194568
C5    C     C_R   0.519647 0.293515 0.178335 0.111902
C6    C     C_R   0.480358 0.706484 0.821665 0.111901
C7    C     C_R   0.476080 0.362810 0.080830 0.011454
C8    C     C_R   0.523922 0.637191 0.919171 0.011455
C9    C     C_R   0.359414 0.333351 0.025495 -0.014497
C10   C     C_R   0.640586 0.666651 0.974507 -0.014497
C11   C     C_R   0.535595 0.463232 0.039934 0.062336
C12   C     C_R   0.516800 0.880039 0.687621 0.588135
C13   C     C_R   0.464408 0.536769 0.960068 0.062337
C14   C     C_R   0.334512 0.508470 0.927851 -0.058438
C15   C     C_R   0.665491 0.491532 0.072150 -0.058438
C16   C     C_R   0.263696 0.996456 0.507163 0.572987
C17   C     C_R   0.736304 0.003544 0.492837 0.572990
C18   C     C_R   0.286301 0.407672 0.952722 -0.069090
C19   C     C_R   0.713700 0.592331 0.047280 -0.069091
C20   C     C_R   0.707205 0.283001 0.674193 -0.043822
C21   C     C_R   0.292796 0.717000 0.325806 -0.043821
C22   C     C_R   0.685295 0.206876 0.637341 0.352127
C23   C     C_R   0.869576 0.005893 0.486557 -0.041756
C24   C     C_R   0.314705 0.793123 0.362660 0.352127
C25   C     C_R   0.515577 0.284137 0.511008 0.045502
C26   C     C_R   0.484425 0.715864 0.488991 0.045503
C27   C     C_R   0.544689 0.369840 0.538353 -0.010648
C28   C     C_R   0.455314 0.630161 0.461646 -0.010648
C29   C     C_R   0.635295 0.363832 0.627128 0.027927
C30   C     C_R   0.364708 0.636170 0.372870 0.027926
C31   C     C_R   0.487181 0.460344 0.481332 0.028715
C32   C     C_R   0.512822 0.539657 0.518666 0.028715
C33   C     C_R   0.592027 0.524860 0.613098 -0.062600
C34   C     C_R   0.130424 0.994106 0.513444 -0.041757
C35   C     C_R   0.407977 0.475142 0.386900 -0.062600
C36   C     C_R   0.654825 0.439826 0.665657 0.183673
C37   C     C_R   0.345179 0.560176 0.334340 0.183673
C38   C     C_R   0.305395 0.146728 0.738618 0.197321
C39   C     C_R   0.694603 0.853275 0.261381 0.197319
C40   C     C_R   0.237984 0.086702 0.682910 0.044669
C41   C     C_R   0.762016 0.913299 0.317090 0.044669
C42   C     C_R   0.180482 0.135019 0.580715 -0.016455
C43   C     C_R   0.819518 0.864981 0.419285 -0.016455
C44   C     C_R   0.195621 0.240822 0.537961 -0.064236
C45   C     C_R   0.908299 0.924281 0.477116 -0.060247
C46   C     C_R   0.804381 0.759177 0.462037 -0.064236
C47   C     C_R   0.244280 0.297068 0.598191 0.139801
C48   C     C_R   0.755720 0.702934 0.401806 0.139801
C49   C     C_R   0.303688 0.250784 0.696847 -0.068111
C50   C     C_R   0.696310 0.749219 0.303150 -0.068111
C51   C     C_R   0.960918 0.086268 0.498361 0.146322
C52   C     C_R   0.039082 0.913731 0.501640 0.146321
C53   C     C_2   0.219338 0.975195 0.732152 0.303505
C54   C     C_2   0.780662 0.024806 0.267850 0.303507
C55   C     C_R   0.091701 0.075718 0.522884 -0.060248
C56   C     C_R   0.467377 0.190021 0.205412 0.009974
C57   C     C_R   0.532624 0.809979 0.794588 0.009969
C58   C     C_R   0.317603 0.230650 0.046641 0.175547
Cu1   Cu    Cu3+1 0.466270 0.918260 0.475690 1.098014
Cu2   Cu    Cu3+1 0.533730 0.081740 0.524310 1.098012
H1    H     H_    0.344239 0.295413 0.742508 0.184075
H2    H     H_    0.392248 0.421257 0.351808 0.146867
H3    H     H_    0.158259 0.279594 0.459548 0.188921
H4    H     H_    0.841742 0.720404 0.540450 0.188922
H5    H     H_    0.189618 0.389123 0.917705 0.197171
H6    H     H_    0.810383 0.610880 0.082297 0.197171
H7    H     H_    0.131114 0.932743 0.709776 0.117745
H8    H     H_    0.868889 0.067257 0.290222 0.117748
H9    H     H_    0.655758 0.704591 0.257488 0.184075
H10   H     H_    0.269765 0.563729 0.881426 0.193272
H11   H     H_    0.730240 0.436274 0.118572 0.193274
H12   H     H_    0.562438 0.721738 0.548399 0.129968
H13   H     H_    0.437564 0.278263 0.451600 0.129965
H14   H     H_    0.784083 0.279734 0.737519 0.205075
H15   H     H_    0.215919 0.720266 0.262480 0.205076
H16   H     H_    0.607757 0.578745 0.648189 0.146869
N1    N     N_R   0.584450 0.204570 0.560790 -0.228502
N2    N     N_R   0.415550 0.795430 0.439210 -0.228501
O1    O     O_R   0.455540 0.022090 0.338120 -0.457651
O2    O     O_2   0.697244 0.070942 0.203424 -0.419072
O3    O     O_R   0.544460 0.977910 0.661880 -0.457653
O4    O     O_R   0.512510 0.160150 0.379180 -0.475252
O5    O     O_R   0.487490 0.839850 0.620820 -0.475249
O6    O     O_R   0.291160 0.930970 0.479480 -0.419691
O7    O     O_R   0.708840 0.069030 0.520520 -0.419690
O8    O     O_R   0.348130 0.069020 0.520540 -0.540065
O9    O     O_R   0.651870 0.930980 0.479460 -0.540065
O10   O     O_2   0.302752 0.929060 0.796584 -0.419063

loop_
_geom_bond_atom_site_label_1
_geom_bond_atom_site_label_2
_ccdc_geom_bond_type
C12   O3    A    
C25   H13   S    
C47   C49   A    
C44   H3    S    
C11   C13   A    
C2    C10   A    
C34   C55   A    
Br10  C36   S    
C50   H9    S    
Cu1   O1    S    
C38   C49   A    
C17   C23   S    
C44   C47   A    
C17   O7    A    
Br1   C58   S    
C6    C8    A    
C46   H4    S    
C8    C10   A    
C21   C24   A    
C42   C55   S    
C41   C43   A    
Cu2   O4    S    
C30   C37   A    
C9    C58   A    
C8    C13   A    
C46   C48   A    
C34   C52   A    
C25   N1    A    
Br5   C6    S    
C28   C30   A    
C1    O1    A    
C18   H5    S    
C7    C11   A    
C41   C54   S    
C14   H10   S    
C54   H8    S    
C1    O4    A    
C2    C4    A    
Br11  C37   S    
C9    C18   A    
C26   N2    A    
Cu1   O9    S    
C25   C27   A    
C3    C56   A    
C26   C28   A    
C12   C57   S    
C19   H6    S    
Br2   C48   S    
Cu2   O8    S    
C23   C45   A    
C38   C40   A    
C43   C45   S    
Br8   C3    S    
C15   H11   S    
C14   C18   A    
C5    C56   A    
C11   C15   A    
C49   H1    S    
Br4   C52   S    
C21   H15   S    
C31   C35   A    
C29   C36   A    
Cu2   O3    S    
Br6   C5    S    
C16   O6    A    
C35   C37   A    
C48   C50   A    
Br12  C24   S    
C54   O2    D    
Cu1   Cu2   S    
C13   C14   A    
C53   H7    S    
Cu2   N1    S    
Br9   C2    S    
C31   C32   A    
C33   C36   A    
Cu1   O5    S    
C20   C29   A    
C27   C29   A    
C16   C34   S    
Br13  C22   S    
C12   O5    A    
C32   C33   A    
Br14  C38   S    
C40   C53   S    
C5    C7    A    
C15   C19   A    
C26   H12   S    
C33   H16   S    
C39   C50   A    
C53   O10   D    
C20   H14   S    
Cu2   O7    S    
C43   C46   A    
C17   O9    A    
C23   C51   A    
C3    C58   A    
Br3   C51   S    
C24   N2    A    
C16   O8    A    
Br16  C47   S    
C39   C41   A    
C35   H2    S    
C45   C52   A    
C27   C31   A    
C22   N1    A    
C20   C22   A    
Cu1   O6    S    
C40   C42   A    
C4    C57   A    
C51   C55   A    
C7    C9    A    
C10   C19   A    
C1    C56   S    
Br7   C4    S    
C6    C57   A    
C21   C30   A    
C42   C44   A    
C28   C32   A    
Cu1   N2    S    
Br15  C39   S    
