data_mof_unit_11255.cif
_audit_creation_date              2012-12-10T20:26:32-0500
_audit_creation_method            fapswitch 2.2
_symmetry_space_group_name_H-M    P1
_symmetry_Int_Tables_number       1
_space_group_crystal_system       triclinic
_cell_length_a                    10.822803
_cell_length_b                    10.640776
_cell_length_c                    9.882307
_cell_angle_alpha                 90.039176
_cell_angle_beta                  89.726418
_cell_angle_gamma                 91.092822
_cell_volume                      1137.85616562

loop_
_atom_site_label
_atom_site_type_symbol
_atom_type_description
_atom_site_fract_x
_atom_site_fract_y
_atom_site_fract_z
_atom_type_partial_charge
C1    C     C_R   0.494548 0.260414 0.500166 0.961142
C2    C     C_R   0.581425 0.573493 0.071031 0.003057
C3    C     C_R   0.581625 0.572766 0.927077 -0.122376
C4    C     C_R   0.263371 0.499545 0.500013 0.999966
C5    C     C_R   0.409144 0.437674 0.929218 0.190710
C6    C     C_3   0.377624 0.300519 0.923398 -0.341243
C7    C     C_3   0.374791 0.301858 0.079038 -0.377671
C8    C     C_R   0.503752 0.739374 0.499628 0.868093
C9    C     C_R   0.737539 0.501257 0.499362 0.929084
C10   C     C_2   0.938788 0.496578 0.387405 -0.048419
C11   C     C_2   0.868599 0.522195 0.498290 -0.252301
C12   C     C_R   0.490350 0.127991 0.499681 -0.179510
C13   C     C_2   0.070301 0.521621 0.391407 -0.214613
C14   C     C_2   0.133624 0.484273 0.498566 -0.244783
C15   C     C_R   0.602948 0.069071 0.511436 0.061046
C16   C     C_2   0.893221 0.434719 0.261194 0.995256
C17   C     C_2   0.808146 0.158768 0.584417 0.986718
C18   C     C_1   0.668771 0.653532 0.140651 0.273353
C19   C     C_2   0.256334 0.274762 0.852900 1.014688
C20   C     C_1   0.252220 0.283251 0.142153 0.341368
C21   C     C_1   0.916946 0.587280 0.617380 0.204591
C22   C     C_2   0.258093 0.114684 0.450015 0.948781
C23   C     C_R   0.381203 0.058030 0.469305 -0.053700
C24   C     C_1   0.824086 0.890259 0.549751 0.293115
C25   C     C_R   0.388556 0.927487 0.466890 -0.215664
C26   C     C_R   0.500280 0.870728 0.496209 -0.091906
C27   C     C_R   0.608940 0.940742 0.506614 0.070594
C28   C     C_3   0.708391 0.935106 0.610658 -0.339933
C29   C     C_3   0.696968 0.078288 0.621935 -0.273043
C30   C     C_R   0.408591 0.438195 0.071529 0.171544
H1    H     H_    0.648602 0.629579 0.871448 0.154784
H2    H     H_    0.930558 0.291680 0.643751 0.332010
H3    H     H_    0.081701 0.328522 0.817832 0.354482
H4    H     H_    0.081612 0.090362 0.388529 0.388795
H5    H     H_    0.454956 0.244318 0.882180 0.164527
H6    H     H_    0.447720 0.244420 0.126142 0.183478
H7    H     H_    0.115869 0.562159 0.302849 0.206850
H8    H     H_    0.090617 0.436450 0.583970 0.164829
H9    H     H_    0.306572 0.869394 0.450116 0.188817
H10   H     H_    0.679901 0.882956 0.703513 0.166429
H11   H     H_    0.654938 0.107124 0.719941 0.160549
H12   H     H_    0.790572 0.296298 0.175023 0.347369
N1    N     N_R   0.499170 0.499140 0.142800 -0.141132
N2    N     N_R   0.499170 0.499180 0.857150 -0.127853
N3    N     N_1   0.739050 0.718472 0.196119 -0.180288
N4    N     N_1   0.155404 0.269228 0.190543 -0.131108
N5    N     N_1   0.954849 0.638401 0.712396 -0.147130
N6    N     N_1   0.914955 0.856501 0.500772 -0.141203
O1    O     O_R   0.500020 0.316790 0.614690 -0.621378
O2    O     O_R   0.813713 0.329761 0.267771 -0.746996
O3    O     O_2   0.855125 0.151611 0.471948 -0.591583
O4    O     O_R   0.856236 0.242978 0.679764 -0.798660
O5    O     O_2   0.243997 0.180435 0.783319 -0.605319
O6    O     O_R   0.158527 0.357855 0.867651 -0.773500
O7    O     O_2   0.239525 0.222763 0.484577 -0.645787
O8    O     O_R   0.161342 0.042418 0.394999 -0.785019
O9    O     O_R   0.500000 0.316760 0.385350 -0.612846
O10   O     O_R   0.319080 0.500020 0.614640 -0.601402
O11   O     O_R   0.319070 0.499980 0.385300 -0.622268
O12   O     O_R   0.500000 0.683240 0.614650 -0.624295
O13   O     O_R   0.499980 0.683210 0.385310 -0.622424
O14   O     O_R   0.680930 0.500020 0.614700 -0.609825
O15   O     O_R   0.680920 0.499980 0.385360 -0.608236
O16   O     O_2   0.930166 0.472703 0.151153 -0.610326
Zn1   Zn    Zn3+2 0.500010 0.500020 0.653130 0.991054
Zn2   Zn    Zn3+2 0.499990 0.499980 0.346870 0.986664

loop_
_geom_bond_atom_site_label_1
_geom_bond_atom_site_label_2
_ccdc_geom_bond_type
C8    O12   A    
H4    O8    S    
C6    C7    S    
C1    O9    A    
C2    C18   S    
C17   C29   S    
C7    H6    S    
O9    Zn2   S    
O10   Zn1   S    
C15   C27   A    
C12   C15   A    
C2    N1    A    
C19   O5    D    
C2    C3    A    
C26   C27   A    
O15   Zn2   S    
C7    C30   S    
C10   C16   S    
C13   C14   D    
C25   H9    S    
C3    H1    S    
C6    C19   S    
C9    C11   S    
C12   C23   A    
C17   O3    D    
N2    Zn1   S    
C22   O7    D    
C1    C12   S    
O1    Zn1   S    
H12   O2    S    
N1    Zn2   S    
C17   O4    S    
C28   C29   S    
C5    N2    A    
C16   O2    S    
O12   Zn1   S    
C15   C29   S    
C23   C25   A    
O11   Zn2   S    
C4    C14   S    
C5    C6    S    
C3    N2    A    
C8    O13   A    
C30   N1    A    
C14   H8    S    
C10   C11   D    
C28   H10   S    
C9    O14   A    
C24   N6    T    
C18   N3    T    
C27   C28   S    
C8    C26   S    
C6    H5    S    
C4    O11   A    
C7    C20   S    
C5    C30   A    
C4    O10   A    
H3    O6    S    
C22   C23   S    
H2    O4    S    
C19   O6    S    
C22   O8    S    
C16   O16   D    
O14   Zn1   S    
C29   H11   S    
C25   C26   A    
C9    O15   A    
C13   H7    S    
O13   Zn2   S    
C11   C21   S    
C20   N4    T    
C24   C28   S    
C21   N5    T    
C10   C13   S    
C1    O1    A    
