data_mof_unit_10791.cif
_audit_creation_date              2012-12-10T17:15:09-0500
_audit_creation_method            fapswitch 2.2
_symmetry_space_group_name_H-M    P1
_symmetry_Int_Tables_number       1
_space_group_crystal_system       triclinic
_cell_length_a                    10.288695
_cell_length_b                    10.893595
_cell_length_c                    12.761738
_cell_angle_alpha                 89.397143
_cell_angle_beta                  91.449616
_cell_angle_gamma                 94.696192
_cell_volume                      1425.03736807

loop_
_atom_site_label
_atom_site_type_symbol
_atom_type_description
_atom_site_fract_x
_atom_site_fract_y
_atom_site_fract_z
_atom_type_partial_charge
C1    C     C_R   0.445969 0.267796 0.493009 0.795327
C2    C     C_R   0.595691 0.369430 0.042182 -0.312215
C3    C     C_R   0.409324 0.622990 0.849396 0.452037
C4    C     C_R   0.600734 0.385323 0.150290 0.462672
C5    C     C_R   0.525247 0.436147 0.871901 -0.349932
C6    C     C_R   0.482542 0.569674 0.128897 -0.359372
C7    C     C_R   0.533330 0.452937 0.978451 0.131601
C8    C     C_R   0.477717 0.554441 0.021973 0.156867
C9    C     C_2   0.418761 0.135179 0.481778 0.287296
C10   C     C_2   0.582124 0.861955 0.526667 0.301831
C11   C     C_2   0.520667 0.066488 0.490424 -0.185594
C12   C     C_R   0.553727 0.731213 0.509494 0.745853
C13   C     C_2   0.507081 0.936050 0.473104 -0.217252
C14   C     C_3   0.784779 0.307625 0.216372 0.099443
C15   C     C_3   0.835634 0.217849 0.296684 -0.760883
C16   C     C_3   0.294340 0.800514 0.824195 0.057863
C17   C     C_3   0.233810 0.875302 0.737724 -0.829451
C18   C     C_3   0.680737 0.833142 0.690333 0.153612
C19   C     C_3   0.738292 0.906713 0.783184 -0.908869
C20   C     C_3   0.205441 0.103538 0.531392 0.106775
C21   C     C_3   0.092456 0.004994 0.523921 -0.785735
C22   C     C_3   0.865961 0.669166 0.380081 0.237495
C23   C     C_2   0.072977 0.506868 0.521921 0.552818
C24   C     C_3   0.890186 0.805517 0.354176 -0.840179
C25   C     C_3   0.095796 0.502118 0.699390 0.130178
C26   C     C_3   0.132700 0.425514 0.794524 -0.817478
C27   C     C_3   0.818905 0.295604 0.656872 0.265930
C28   C     C_3   0.881869 0.181323 0.693469 -0.930446
C29   C     C_3   0.205603 0.654045 0.307603 0.231350
C30   C     C_3   0.153765 0.741660 0.225837 -0.989466
C31   C     C_2   0.929094 0.529080 0.506985 0.452585
C32   C     C_R   0.475762 0.506461 0.698052 0.894554
C33   C     C_R   0.524798 0.493840 0.302174 0.907576
C34   C     C_R   0.539775 0.483972 0.192212 -0.150719
C35   C     C_R   0.464974 0.520356 0.808535 -0.133034
C36   C     C_R   0.416067 0.638455 0.958690 -0.338808
H1    H     H_    0.438554 0.646355 0.163571 0.149832
H2    H     H_    0.943868 0.229500 0.301492 0.203494
H3    H     H_    0.796613 0.235334 0.374953 0.294061
H4    H     H_    0.365655 0.863449 0.868916 0.155507
H5    H     H_    0.214526 0.761840 0.875231 0.143079
H6    H     H_    0.157042 0.817046 0.694608 0.252601
H7    H     H_    0.189191 0.954804 0.771817 0.202816
H8    H     H_    0.310265 0.909566 0.682261 0.274965
H9    H     H_    0.743953 0.757035 0.677417 0.190663
H10   H     H_    0.581722 0.794461 0.712663 0.163547
H11   H     H_    0.683938 0.989422 0.794163 0.264171
H12   H     H_    0.568169 0.358628 0.837425 0.151081
H13   H     H_    0.730656 0.848973 0.855374 0.219105
H14   H     H_    0.842992 0.934203 0.770488 0.259086
H15   H     H_    0.165144 0.194223 0.519033 0.214851
H16   H     H_    0.249523 0.100396 0.612004 0.113003
H17   H     H_    0.129775 0.912914 0.515193 0.286486
H18   H     H_    0.034448 0.003716 0.595926 0.222219
H19   H     H_    0.028546 0.024959 0.455539 0.251794
H20   H     H_    0.762066 0.649952 0.364337 0.166792
H21   H     H_    0.916415 0.611883 0.324936 0.113331
H22   H     H_    0.866782 0.822461 0.270103 0.191784
H23   H     H_    0.376179 0.715425 0.995782 0.122634
H24   H     H_    0.827874 0.859921 0.402592 0.261149
H25   H     H_    0.993075 0.836768 0.370980 0.298355
H26   H     H_    0.994261 0.527236 0.708991 0.095470
H27   H     H_    0.159860 0.589037 0.698743 0.202366
H28   H     H_    0.054195 0.352675 0.810956 0.232017
H29   H     H_    0.224160 0.381418 0.780986 0.261168
H30   H     H_    0.146545 0.485356 0.864490 0.207950
H31   H     H_    0.712609 0.272158 0.649320 0.164057
H32   H     H_    0.836782 0.367110 0.718319 0.113605
H33   H     H_    0.854907 0.159489 0.775598 0.207872
H34   H     H_    0.636607 0.290463 0.008725 0.147169
H35   H     H_    0.847667 0.103382 0.641911 0.298457
H36   H     H_    0.989671 0.196187 0.689797 0.279659
H37   H     H_    0.203331 0.562343 0.269580 0.158124
H38   H     H_    0.305112 0.693730 0.328308 0.195420
H39   H     H_    0.158424 0.836761 0.256802 0.280651
H40   H     H_    0.215498 0.743174 0.155624 0.215587
H41   H     H_    0.052647 0.710544 0.200670 0.256923
H42   H     H_    0.430353 0.899502 0.418977 0.183923
H43   H     H_    0.617347 0.105777 0.514104 0.195917
H44   H     H_    0.823345 0.402571 0.238957 0.122696
H45   H     H_    0.822191 0.285619 0.138232 0.127279
H46   H     H_    0.804439 0.121639 0.273733 0.242170
N1    N     N_2   0.162330 0.550370 0.457540 -0.004687
N2    N     N_2   0.837670 0.449630 0.542460 -0.004481
O1    O     O_R   0.567930 0.307680 0.508550 -0.637703
O2    O     O_3   0.358258 0.705785 0.778079 -0.633846
O3    O     O_3   0.676545 0.909439 0.599647 -0.626223
O4    O     O_3   0.295594 0.082628 0.452934 -0.606799
O5    O     O_3   0.898959 0.649501 0.487264 -0.614534
O6    O     O_3   0.110498 0.435526 0.606217 -0.614758
O7    O     O_3   0.872449 0.334740 0.560550 -0.568844
O8    O     O_3   0.129241 0.646849 0.397625 -0.590033
O9    O     O_R   0.432070 0.692320 0.491450 -0.624452
O10   O     O_R   0.351090 0.340020 0.481290 -0.591368
O11   O     O_R   0.648910 0.659980 0.518710 -0.597189
O12   O     O_R   0.590490 0.486480 0.665020 -0.662749
O13   O     O_R   0.409510 0.513520 0.334980 -0.666079
O14   O     O_R   0.373660 0.518820 0.637760 -0.550160
O15   O     O_R   0.626340 0.481180 0.362240 -0.626577
O16   O     O_3   0.647128 0.295555 0.215429 -0.599671
Zn1   Zn    Zn3+2 0.644780 0.478400 0.518200 0.955505
Zn2   Zn    Zn3+2 0.355220 0.521600 0.481800 0.995533

loop_
_geom_bond_atom_site_label_1
_geom_bond_atom_site_label_2
_ccdc_geom_bond_type
C24   H25   S    
N1    Zn2   S    
C28   H33   S    
C36   H23   S    
C22   H21   S    
C7    C8    A    
N1    O8    S    
C25   O6    S    
C23   N1    D    
C20   H15   S    
C9    O4    S    
C25   H27   S    
C21   H18   S    
C19   H11   S    
C29   H37   S    
C18   H10   S    
C18   C19   S    
C8    C36   A    
C26   H28   S    
C17   H6    S    
C27   H32   S    
C30   H41   S    
C2    C7    A    
C1    O10   A    
C31   O5    S    
C12   O11   A    
C27   O7    S    
N2    O7    S    
C14   H44   S    
O13   Zn2   S    
O12   Zn1   S    
C3    O2    S    
C16   O2    S    
N2    Zn1   S    
C28   H36   S    
C10   C12   S    
C15   H46   S    
C1    O1    A    
C5    H12   S    
C4    C34   A    
C10   O3    S    
C23   O6    S    
C26   H30   S    
C32   C35   S    
C1    C9    S    
C21   H19   S    
C16   C17   S    
C22   H20   S    
C29   H38   S    
C25   C26   S    
O14   Zn2   S    
C31   N2    D    
C6    C34   A    
C33   O15   A    
C23   C31   S    
C2    C4    A    
C17   H7    S    
C15   H2    S    
C29   C30   S    
C30   H40   S    
C19   H13   S    
C3    C35   A    
C24   H24   S    
C33   C34   S    
C20   O4    S    
C6    H1    S    
C9    C11   D    
C15   H3    S    
C11   H43   S    
C16   H4    S    
C32   O12   A    
C4    O16   S    
C22   C24   S    
C12   O9    A    
C28   H35   S    
C18   H9    S    
O1    Zn1   S    
C5    C7    A    
C13   H42   S    
O15   Zn1   S    
C26   H29   S    
C10   C13   D    
O9    Zn2   S    
C6    C8    A    
C14   O16   S    
C18   O3    S    
C17   H8    S    
C20   H16   S    
C21   H17   S    
C30   H39   S    
C11   C13   S    
C19   H14   S    
C3    C36   A    
C5    C35   A    
C22   O5    S    
C32   O14   A    
C33   O13   A    
C25   H26   S    
C27   H31   S    
C20   C21   S    
O10   Zn2   S    
C24   H22   S    
C27   C28   S    
C14   C15   S    
C14   H45   S    
C2    H34   S    
C16   H5    S    
C29   O8    S    
O11   Zn1   S    
