data_mof_unit_22579.cif
_audit_creation_date              2012-12-10T17:35:35-0500
_audit_creation_method            fapswitch 2.2
_symmetry_space_group_name_H-M    P1
_symmetry_Int_Tables_number       1
_space_group_crystal_system       triclinic
_cell_length_a                    10.746557
_cell_length_b                    12.349682
_cell_length_c                    13.090934
_cell_angle_alpha                 116.663212
_cell_angle_beta                  76.75909
_cell_angle_gamma                 101.795873
_cell_volume                      1501.00189341

loop_
_atom_site_label
_atom_site_type_symbol
_atom_type_description
_atom_site_fract_x
_atom_site_fract_y
_atom_site_fract_z
_atom_type_partial_charge
C1    C     C_R   0.506121 0.855392 0.285990 0.855434
C2    C     C_3   0.120930 0.001980 0.506861 -0.097980
C3    C     C_3   0.077237 0.129106 0.593519 -0.391487
C4    C     C_3   0.036070 0.899942 0.541040 0.197884
C5    C     C_R   0.349662 0.269641 0.032793 -0.081153
C6    C     C_R   0.458203 0.227412 0.837781 -0.038826
C7    C     C_R   0.548710 0.817577 0.074650 0.246251
C8    C     C_R   0.565016 0.735349 0.959077 -0.141922
C9    C     C_R   0.535643 0.611298 0.927542 -0.198498
C10   C     C_R   0.479137 0.565278 0.011069 0.012457
C11   C     C_R   0.444425 0.649472 0.126923 -0.039935
C12   C     C_R   0.739574 0.002090 0.502960 0.835843
C13   C     C_R   0.450860 0.438398 0.981477 0.033488
C14   C     C_R   0.377032 0.396436 0.064417 0.038401
C15   C     C_R   0.327054 0.481388 0.174529 0.113374
C16   C     C_R   0.352262 0.607414 0.201850 0.380771
C17   C     C_R   0.495707 0.351765 0.870999 -0.166825
C18   C     C_R   0.387916 0.186076 0.919929 -0.180865
C19   C     C_R   0.496708 0.774749 0.161831 -0.138151
C20   C     C_R   0.715546 0.359314 0.340356 -0.204885
C21   C     C_R   0.323415 0.758277 0.645157 0.127064
C22   C     C_R   0.282739 0.660652 0.675774 -0.212314
C23   C     C_R   0.481879 0.145054 0.714315 0.826326
C24   C     C_R   0.347752 0.557296 0.620621 -0.163346
C25   C     C_R   0.455198 0.550657 0.533981 0.033083
C26   C     C_R   0.492953 0.653342 0.505282 0.319868
C27   C     C_R   0.527823 0.447488 0.475795 -0.015128
C28   C     C_R   0.637890 0.452942 0.394152 0.072903
C29   C     C_R   0.671672 0.552267 0.366345 -0.250035
C30   C     C_R   0.599919 0.649366 0.419552 -0.159909
C31   C     C_R   0.498024 0.339245 0.494920 -0.030962
C32   C     C_R   0.684214 0.257107 0.362962 0.627780
C33   C     C_R   0.259665 0.001595 0.503251 0.822141
C34   C     C_3   0.952912 0.963115 0.381588 -0.486327
C35   C     C_3   0.098283 0.975131 0.384082 -0.394841
C36   C     C_3   0.939536 0.137592 0.581626 0.570110
C37   C     C_3   0.892185 0.909989 0.551884 0.185067
C38   C     C_3   0.877209 0.004843 0.507021 -0.058928
Cu1   Cu    Cu3+1 0.529690 0.098270 0.475420 0.967893
Cu2   Cu    Cu3+1 0.470310 0.901730 0.524580 0.993864
H1    H     H_    0.936856 0.018098 0.338797 0.262173
H2    H     H_    0.081804 0.147257 0.683617 0.136128
H3    H     H_    0.358827 0.089612 0.896165 0.160799
H4    H     H_    0.293936 0.233380 0.092818 0.196586
H5    H     H_    0.559844 0.378561 0.807894 0.163935
H6    H     H_    0.551729 0.554586 0.835880 0.145070
H7    H     H_    0.603402 0.767686 0.892323 0.191253
H8    H     H_    0.918491 0.866537 0.327857 0.147966
H9    H     H_    0.755165 0.555213 0.302388 0.153926
H10   H     H_    0.801695 0.365026 0.279800 0.182892
H11   H     H_    0.415041 0.327753 0.554995 0.138234
H12   H     H_    0.272511 0.838069 0.688882 0.153145
H13   H     H_    0.313025 0.484646 0.648020 0.141640
H14   H     H_    0.200646 0.665291 0.742766 0.165555
H15   H     H_    0.633190 0.720126 0.391184 0.182772
H16   H     H_    0.137769 0.889430 0.318352 0.187288
H17   H     H_    0.149431 0.050187 0.359733 0.244951
H18   H     H_    0.145475 0.202683 0.577072 0.215875
H19   H     H_    0.849956 0.818313 0.493723 0.130609
H20   H     H_    0.057299 0.810563 0.467912 0.151895
N1    N     N_R   0.574690 0.246280 0.438200 -0.236072
N2    N     N_R   0.426100 0.754320 0.561190 -0.206279
O1    O     O_R   0.537340 0.972510 0.318130 -0.577547
O2    O     O_R   0.487200 0.806530 0.359650 -0.560869
O3    O     O_R   0.707380 0.082980 0.479220 -0.589401
O4    O     O_R   0.657240 0.917000 0.520740 -0.577232
O5    O     O_R   0.512800 0.193470 0.640350 -0.595295
O6    O     O_R   0.462660 0.027490 0.681870 -0.580463
O7    O     O_R   0.342760 0.083000 0.479260 -0.591764
O8    O     O_R   0.292620 0.917020 0.520780 -0.534723
O9    O     O_3   0.063277 0.895652 0.639655 -0.695280
H21   H     H_    0.085921 0.979516 0.696946 0.316999
Br1   Br    Br    0.839116 0.217234 0.736802 -0.559222
Br2   Br    Br    0.227903 0.427977 0.290705 -0.513537
Br3   Br    Br    0.593786 0.985956 0.100939 -0.481048
O10   O     O_3   0.278972 0.690426 0.294221 -0.721260
H22   H     H_    0.199732 0.647506 0.321167 0.350987
O11   O     O_3   0.769600 0.171451 0.308674 -0.702514
H23   H     H_    0.725096 0.092946 0.305618 0.378418
O12   O     O_3   0.952542 0.212526 0.523146 -0.683192
H24   H     H_    0.874504 0.254781 0.548742 0.370552
O13   O     O_3   0.822538 0.933343 0.663539 -0.646521
H25   H     H_    0.871930 0.999836 0.721360 0.374882

loop_
_geom_bond_atom_site_label_1
_geom_bond_atom_site_label_2
_ccdc_geom_bond_type
C2    C35   S    
C3    H2    S    
C31   N1    A    
C7    C8    A    
C22   H14   S    
C29   H9    S    
C11   C19   A    
C29   C30   A    
Cu2   O8    S    
C28   C29   A    
C17   H5    S    
C32   N1    A    
C20   C32   A    
C15   C16   A    
Cu2   N2    S    
C34   C35   S    
C23   O5    A    
C20   H10   S    
C8    C9    A    
C9    C10   A    
C33   O7    A    
C9    H6    S    
Cu2   O4    S    
C13   C14   A    
Cu1   O3    S    
C34   H1    S    
C6    C18   A    
C1    O1    A    
C25   C26   A    
Cu1   N1    S    
C1    C19   S    
C27   C31   A    
O10   H22   S    
C36   O12   S    
Cu1   Cu2   S    
O11   H23   S    
C7    Br3   S    
C5    C18   A    
C20   C28   A    
C24   H13   S    
C12   O4    A    
C34   C38   S    
C23   O6    A    
C2    C4    S    
C37   C38   S    
C11   C16   A    
C4    H20   S    
Cu1   O7    S    
C24   C25   A    
C5    C14   A    
C37   H19   S    
C33   O8    A    
C2    C33   S    
C5    H4    S    
C26   C30   A    
C7    C19   A    
C22   C24   A    
C37   O13   S    
C34   H8    S    
C1    O2    A    
C12   O3    A    
C6    C17   A    
C35   H16   S    
C16   O10   S    
Cu1   O5    S    
C31   H11   S    
O12   H24   S    
C10   C13   A    
C25   C27   A    
Cu1   O1    S    
C30   H15   S    
Cu2   O2    S    
C13   C17   A    
C35   H17   S    
C36   C38   S    
C2    C3    S    
C26   N2    A    
C8    H7    S    
O9    H21   S    
C18   H3    S    
C3    C36   S    
C6    C23   S    
C21   H12   S    
C12   C38   S    
C10   C11   A    
C32   O11   S    
C3    H18   S    
C15   Br2   S    
C4    C37   S    
O13   H25   S    
Cu2   O6    S    
C27   C28   A    
C14   C15   A    
C21   N2    A    
C21   C22   A    
C36   Br1   S    
C4    O9    S    
