data_mof_unit_40828.cif
_audit_creation_date              2012-12-10T18:02:11-0500
_audit_creation_method            fapswitch 2.2
_symmetry_space_group_name_H-M    P1
_symmetry_Int_Tables_number       1
_space_group_crystal_system       triclinic
_cell_length_a                    10.830575
_cell_length_b                    9.674021
_cell_length_c                    23.52203
_cell_angle_alpha                 90.009766
_cell_angle_beta                  95.024624
_cell_angle_gamma                 90.004667
_cell_volume                      2455.05478119

loop_
_atom_site_label
_atom_site_type_symbol
_atom_type_description
_atom_site_fract_x
_atom_site_fract_y
_atom_site_fract_z
_atom_type_partial_charge
C1    C     C_R   0.262471 0.499997 0.499787 0.777221
C2    C     C_R   0.737529 0.500003 0.500213 0.777219
C3    C     C_R   0.497737 0.625081 0.238843 -0.101119
C4    C     C_R   0.501618 0.625420 0.761101 -0.101475
C5    C     C_R   0.498025 0.625308 0.298139 -0.217373
C6    C     C_R   0.501354 0.625511 0.701808 -0.216668
C7    C     C_R   0.498565 0.499935 0.328410 -0.035364
C8    C     C_R   0.501453 0.500069 0.671591 -0.035363
C9    C     C_R   0.498500 0.374497 0.298185 -0.216647
C10   C     C_R   0.502179 0.374701 0.701871 -0.217397
C11   C     C_R   0.498262 0.374593 0.238892 -0.101493
C12   C     C_R   0.502491 0.374935 0.761169 -0.101089
C13   C     C_R   0.498011 0.499803 0.209010 0.355922
C14   C     C_R   0.502054 0.500214 0.790994 0.355850
C15   C     C_R   0.063867 0.374418 0.499893 -0.178435
C16   C     C_R   0.936133 0.625583 0.500107 -0.178440
C17   C     C_R   0.936107 0.374423 0.500074 -0.177796
C18   C     C_R   0.063893 0.625577 0.499926 -0.177801
C19   C     C_R   0.871615 0.500005 0.500177 -0.012897
C20   C     C_R   0.128385 0.499995 0.499823 -0.012898
C21   C     C_R   0.419027 0.074147 0.462744 0.233880
C22   C     C_R   0.580972 0.925852 0.537256 0.233862
C23   C     C_R   0.580976 0.074190 0.537255 0.233035
C24   C     C_R   0.419025 0.925809 0.462744 0.233013
C25   C     C_R   0.499285 0.499986 0.391097 0.787577
C26   C     C_R   0.500718 0.500014 0.608904 0.787580
C27   C     C_R   0.603883 0.453726 0.884796 0.533411
C28   C     C_R   0.396199 0.546324 0.115210 0.533421
C29   C     C_R   0.398649 0.546752 0.876123 0.534930
C30   C     C_R   0.601416 0.453250 0.123883 0.534943
C31   C     C_R   0.395997 0.547853 0.935659 -0.015763
C32   C     C_R   0.604074 0.452164 0.064348 -0.015772
C33   C     C_R   0.500351 0.500080 0.970008 -0.017318
C34   C     C_R   0.499724 0.499948 0.030000 -0.017321
C35   C     C_R   0.605325 0.452430 0.944508 -0.015040
C36   C     C_R   0.394753 0.547608 0.055499 -0.015045
C37   C     C_R   0.291740 0.595045 0.961535 -0.158762
C38   C     C_R   0.708333 0.404976 0.038472 -0.158762
C39   C     C_R   0.291125 0.594925 0.020830 -0.161439
C40   C     C_R   0.708954 0.405111 0.979177 -0.161438
Cu1   Cu    Cu3+1 0.500000 0.640660 0.500000 0.933456
Cu2   Cu    Cu3+1 0.500000 0.359340 0.500000 0.933469
H1    H     H_    0.210308 0.632210 0.936086 0.192118
H2    H     H_    0.789764 0.367806 0.063921 0.192112
H3    H     H_    0.209239 0.632004 0.039370 0.190632
H4    H     H_    0.790841 0.368040 0.960637 0.190634
H5    H     H_    0.498111 0.723586 0.320184 0.161218
H6    H     H_    0.500908 0.723743 0.679728 0.161385
H7    H     H_    0.498797 0.276263 0.320257 0.161359
H8    H     H_    0.502226 0.276421 0.679834 0.161195
H9    H     H_    0.498091 0.277346 0.216079 0.142839
H10   H     H_    0.502471 0.277737 0.783997 0.143091
H11   H     H_    0.111775 0.276152 0.499855 0.154042
H12   H     H_    0.888225 0.723848 0.500146 0.154042
H13   H     H_    0.888178 0.276160 0.500085 0.154102
H14   H     H_    0.111822 0.723840 0.499915 0.154103
N1    N     N_R   0.501552 0.500281 0.851981 -0.469903
N2    N     N_R   0.498520 0.499743 0.148024 -0.469920
N3    N     N_R   0.500000 0.852070 0.500000 -0.189423
N4    N     N_R   0.500000 0.147930 0.500000 -0.189419
O1    O     O_R   0.319640 0.618740 0.500000 -0.587800
O2    O     O_R   0.680360 0.381260 0.500000 -0.587794
O3    O     O_R   0.680360 0.618740 0.500000 -0.587997
O4    O     O_R   0.319640 0.381260 0.500000 -0.587990
O5    O     O_R   0.499960 0.618810 0.417880 -0.584242
O6    O     O_R   0.500040 0.381190 0.582120 -0.584230
O7    O     O_R   0.500040 0.618810 0.582120 -0.584068
O8    O     O_R   0.499960 0.381190 0.417880 -0.584059
O9    O     O_2   0.704193 0.409874 0.859699 -0.534264
O10   O     O_2   0.295903 0.590212 0.140309 -0.534246
O11   O     O_2   0.298905 0.590664 0.842572 -0.532259
O12   O     O_2   0.701144 0.409303 0.157436 -0.532239
H15   H     H_    0.497897 0.722279 0.216020 0.143048
H16   H     H_    0.501658 0.722672 0.783907 0.142888
C41   C     C_3   0.326531 0.145850 0.420171 -0.773223
H17   H     H_    0.326624 0.257691 0.420231 0.273359
H18   H     H_    0.344216 0.116517 0.376023 0.198139
H19   H     H_    0.230661 0.116492 0.428313 0.195955
C42   C     C_3   0.673460 0.854150 0.579833 -0.773196
H20   H     H_    0.673377 0.742309 0.579768 0.273364
H21   H     H_    0.769333 0.883516 0.571698 0.195950
H22   H     H_    0.655759 0.883471 0.623980 0.198157
C43   C     C_3   0.673498 0.145935 0.579820 -0.771740
H23   H     H_    0.673397 0.257776 0.579774 0.273412
H24   H     H_    0.655861 0.116607 0.623969 0.198899
H25   H     H_    0.769360 0.116603 0.571655 0.195733
C44   C     C_3   0.326512 0.854064 0.420175 -0.771706
H26   H     H_    0.326602 0.742223 0.420226 0.273417
H27   H     H_    0.230647 0.883406 0.428332 0.195726
H28   H     H_    0.344168 0.883381 0.376027 0.198925

loop_
_geom_bond_atom_site_label_1
_geom_bond_atom_site_label_2
_ccdc_geom_bond_type
C30   C32   A    
C44   H26   S    
C8    C26   S    
Cu1   Cu2   S    
Cu1   O1    S    
Cu1   O7    S    
C40   H4    S    
C5    H5    S    
C6    H6    S    
C26   O7    A    
C15   H11   S    
C22   C42   S    
C24   N3    A    
C18   C20   A    
C15   C17   A    
C33   C35   A    
C31   C33   A    
C32   C38   A    
Cu2   O2    S    
C4    H16   S    
C3    C13   A    
C18   H14   S    
C39   H3    S    
Cu2   O8    S    
C15   C20   A    
C25   O8    A    
C10   C12   A    
C12   H10   S    
C23   N4    A    
C26   O6    A    
C9    H7    S    
Cu1   N3    S    
C21   N4    A    
C4    C6    A    
C27   N1    A    
Cu2   N4    S    
C22   N3    A    
C42   H21   S    
Cu1   O5    S    
C13   N2    S    
C27   C35   A    
C41   H19   S    
C31   C37   A    
C1    O1    A    
C32   C34   A    
C37   H1    S    
C41   H17   S    
C38   H2    S    
C41   H18   S    
C30   O12   S    
C43   H23   S    
C33   C34   A    
C25   O5    A    
C16   C18   A    
C9    C11   A    
C23   C43   S    
C8    C10   A    
C43   H24   S    
C12   C14   A    
C44   H27   S    
C21   C24   A    
Cu1   O3    S    
C10   H8    S    
C1    O4    A    
Cu2   O4    S    
C2    O3    A    
C5    C7    A    
C7    C9    A    
C14   N1    S    
C17   H13   S    
C1    C20   S    
C2    C19   S    
C36   C39   A    
C28   O10   S    
C29   N1    A    
C3    C5    A    
C27   O9    S    
C42   H22   S    
C6    C8    A    
C28   N2    A    
C21   C41   S    
C7    C25   S    
C35   C40   A    
C29   C31   A    
C38   C40   A    
C11   C13   A    
C16   C19   A    
C30   N2    A    
C17   C19   A    
C34   C36   A    
C4    C14   A    
C3    H15   S    
C24   C44   S    
C16   H12   S    
C11   H9    S    
C42   H20   S    
C43   H25   S    
C28   C36   A    
C37   C39   A    
C44   H28   S    
Cu2   O6    S    
C22   C23   A    
C2    O2    A    
C29   O11   S    
