data_mof_unit_68143.cif
_audit_creation_date              2013-03-05T15:59:43-0500
_audit_creation_method            fapswitch 2.2
_symmetry_space_group_name_H-M    P1
_symmetry_Int_Tables_number       1
_space_group_crystal_system       triclinic
_cell_length_a                    7.054406
_cell_length_b                    14.502091
_cell_length_c                    15.896633
_cell_angle_alpha                 89.985163
_cell_angle_beta                  86.66353
_cell_angle_gamma                 89.521235
_cell_volume                      1623.47006919

loop_
_atom_site_label
_atom_site_type_symbol
_atom_site_description
_atom_site_fract_x
_atom_site_fract_y
_atom_site_fract_z
_atom_type_partial_charge
O1    O     O_R   0.638960 0.835150 0.161940 -0.588839
O2    O     O_R   0.361040 0.164850 0.838060 -0.589636
O3    O     O_R   0.309170 0.846340 0.337470 -0.559766
O4    O     O_R   0.690830 0.153660 0.662530 -0.559942
O5    O     O_R   0.138810 0.664830 0.338070 -0.570856
O6    O     O_R   0.861190 0.335170 0.661930 -0.570538
C1    C     C_R   0.474901 0.869730 0.365355 1.065308
C2    C     C_R   0.525123 0.130457 0.634481 1.069222
O7    O     O_R   0.309250 0.846350 0.162570 -0.577411
O8    O     O_R   0.690750 0.153650 0.837430 -0.578074
O9    O     O_R   0.138880 0.664840 0.161920 -0.590567
O10   O     O_R   0.861120 0.335160 0.838080 -0.596783
C3    C     C_R   0.482033 0.862974 0.129829 1.095689
C4    C     C_R   0.517962 0.136665 0.869952 1.093553
O11   O     O_R   0.638880 0.835150 0.338090 -0.596332
O12   O     O_R   0.361120 0.164850 0.661910 -0.596265
O13   O     O_3   0.472380 0.690440 0.250000 -0.262630
O14   O     O_3   0.527620 0.309560 0.750000 -0.255369
V1    V     V_3+5 0.197550 0.761040 0.250010 1.323171
V2    V     V_3+5 0.802450 0.238960 0.749990 1.324525
O15   O     O_R   0.809160 0.653640 0.162540 -0.577322
O16   O     O_R   0.190840 0.346360 0.837460 -0.575679
C5    C     C_R   0.981659 0.633009 0.132703 1.078902
C6    C     C_R   0.018310 0.366590 0.867538 1.073140
O17   O     O_R   0.809090 0.653640 0.337440 -0.599422
O18   O     O_R   0.190910 0.346360 0.662560 -0.585668
C7    C     C_R   0.976013 0.630605 0.365223 1.127848
C8    C     C_R   0.024188 0.369186 0.634617 1.112749
V3    V     V_3+5 0.697540 0.738950 0.250000 1.301092
V4    V     V_3+5 0.302460 0.261050 0.750000 1.312858
O19   O     O_3   0.972580 0.809550 0.250010 -0.265262
O20   O     O_3   0.027420 0.190450 0.749990 -0.266856
C9    C     C_3   0.042497 0.583040 0.525655 0.307257
C10   C     C_3   0.959129 0.416170 0.473826 0.322563
C11   C     C_3   0.880131 0.523165 0.562890 0.273183
C12   C     C_3   0.121488 0.475899 0.436664 0.277885
C13   C     C_3   0.015677 0.438827 0.563916 -0.402437
C14   C     C_3   0.985704 0.560371 0.435462 -0.418746
C15   C     C_3   0.181289 0.499436 0.526443 -0.340915
C16   C     C_3   0.819933 0.499607 0.473060 -0.336162
H1    H     H_    0.329322 0.501161 0.546373 0.222367
H2    H     H_    0.671993 0.497823 0.452833 0.211331
C17   C     C_3   0.878727 0.430687 0.023667 -0.266676
C18   C     C_3   0.120760 0.568463 0.976675 -0.265250
C19   C     C_3   0.051746 0.461873 0.070340 0.303713
C20   C     C_3   0.947645 0.537152 0.930094 0.303580
H3    H     H_    0.792504 0.371567 0.047268 0.225641
H4    H     H_    0.207008 0.627539 0.952991 0.225773
C21   C     C_3   0.996775 0.563820 0.060880 -0.405590
C22   C     C_3   0.002894 0.435336 0.939596 -0.402985
C23   C     C_3   0.822422 0.534507 0.012800 0.259147
C24   C     C_3   0.177121 0.464603 0.987662 0.258384
C25   C     C_3   0.672162 0.975656 0.467450 0.204710
C26   C     C_3   0.327769 0.024855 0.532114 0.206799
C27   C     C_3   0.593374 0.076235 0.471618 -0.272989
C28   C     C_3   0.406567 0.924275 0.527964 -0.279752
H5    H     H_    0.668380 0.138029 0.446306 0.248973
H6    H     H_    0.331468 0.862491 0.553252 0.247597
C29   C     C_3   0.517940 0.059658 0.564080 -0.377531
C30   C     C_3   0.482029 0.940811 0.435520 -0.375802
C31   C     C_3   0.594868 0.960284 0.558928 0.307294
C32   C     C_3   0.405075 0.040217 0.440622 0.308468
C33   C     C_3   0.607858 0.931456 0.968515 0.263839
C34   C     C_3   0.392144 0.067729 0.030940 0.263794
C35   C     C_3   0.430853 0.968940 0.928378 0.115688
C36   C     C_3   0.569200 0.030309 0.071060 0.114777
C37   C     C_3   0.498902 0.068687 0.942777 -0.473531
C38   C     C_3   0.501131 0.930553 0.056711 -0.474573
C39   C     C_3   0.677668 0.030779 0.982948 0.115973
C40   C     C_3   0.322302 0.968371 0.016494 0.116124
N1    N     N_R   0.744022 0.550355 0.631046 0.260504
O21   O     O_R   0.738567 0.634811 0.658412 -0.211640
O22   O     O_R   0.612449 0.493338 0.657528 -0.358184
N2    N     N_R   0.258481 0.444812 0.370284 0.273843
O23   O     O_R   0.357563 0.370248 0.381312 -0.280828
O24   O     O_R   0.300069 0.496652 0.305274 -0.325513
I1    I     I_    0.317145 0.918970 0.814649 -0.022859
I2    I     I_    0.683227 0.080551 0.184614 -0.022449
N3    N     N_R   0.719001 0.859289 0.925029 0.276998
O25   O     O_R   0.805425 0.875952 0.852244 -0.246615
O26   O     O_R   0.733061 0.778142 0.958157 -0.354182
N4    N     N_R   0.280961 0.139988 0.074242 0.277115
O27   O     O_R   0.194898 0.123617 0.147160 -0.247256
O28   O     O_R   0.265114 0.220691 0.040426 -0.354919
I3    I     I_    0.935207 0.107541 0.966064 -0.179451
I4    I     I_    0.065786 0.890494 0.032868 -0.180351
N5    N     N_R   0.089712 0.673934 0.556941 0.268311
O29   O     O_R   0.152605 0.682594 0.631777 -0.244542
O30   O     O_R   0.076314 0.746228 0.509313 -0.402086
N6    N     N_R   0.914825 0.325099 0.442162 0.268328
O31   O     O_R   0.862096 0.315684 0.365660 -0.240352
O32   O     O_R   0.924163 0.253122 0.490449 -0.399904
N7    N     N_R   0.101109 0.421068 0.149955 0.273976
O33   O     O_R   0.976427 0.420990 0.213502 -0.319659
O34   O     O_R   0.266541 0.382910 0.157717 -0.233421
N8    N     N_R   0.896363 0.576774 0.850276 0.269424
O35   O     O_R   0.725732 0.608180 0.841091 -0.244511
O36   O     O_R   0.020124 0.576855 0.786403 -0.324300
I5    I     I_    0.556247 0.607303 0.034684 -0.177386
I6    I     I_    0.443420 0.391968 0.965718 -0.178626
I7    I     I_    0.940693 0.945426 0.407135 -0.111869
I8    I     I_    0.059243 0.055059 0.592417 -0.111045
N9    N     N_R   0.695455 0.912132 0.623308 0.268987
O37   O     O_R   0.754080 0.827922 0.610212 -0.253356
O38   O     O_R   0.714958 0.950322 0.696179 -0.330559
N10   N     N_R   0.304745 0.088281 0.376067 0.269087
O39   O     O_R   0.247287 0.172770 0.388660 -0.246267
O40   O     O_R   0.285180 0.049802 0.303327 -0.331200

loop_
_geom_bond_atom_site_label_1
_geom_bond_atom_site_label_2
_geom_bond_distance
_ccdc_geom_bond_type
C18   C21   1.557555 S    
C36   C38   1.549181 S    
N5    O29   1.300117 A    
C33   C35   1.530674 S    
N7    O33   1.300260 A    
C27   C29   1.553145 S    
C10   C13   1.545002 S    
O13   V3    1.742555 S    
O4    C2    1.321303 A    
V1    O19   1.730582 S    
C15   H1    1.109270 S    
C33   N3    1.453109 S    
O9    V1    2.038791 S    
C9    C15   1.552534 S    
N2    O24   1.298948 A    
C10   C16   1.552425 S    
C31   N9    1.454094 S    
O3    C1    1.321161 A    
C2    C29   1.522263 S    
C5    C21   1.518673 S    
C36   C39   1.556530 S    
N10   O39   1.299246 A    
C7    C14   1.515225 S    
O12   V4    2.000599 S    
C35   C40   1.556857 S    
C27   C32   1.538842 S    
C30   C32   1.536661 S    
O7    C3    1.321249 A    
C9    C11   1.534178 S    
O5    C7    1.305098 A    
C25   C31   1.539886 S    
O7    V1    1.992869 S    
O6    C8    1.305868 A    
C33   C39   1.547592 S    
C25   I7    2.115401 S    
C35   C37   1.549167 S    
N8    O36   1.300020 A    
C22   C24   1.546869 S    
C4    C37   1.521057 S    
O3    V1    2.056171 S    
O14   V4    1.742556 S    
C34   C40   1.548196 S    
V4    O20   2.201373 S    
C10   C12   1.532537 S    
C18   C24   1.566880 S    
C16   H2    1.110287 S    
C19   N7    1.456251 S    
C2    O12   1.307352 A    
C23   I5    2.156923 S    
C25   C30   1.550075 S    
C18   C20   1.536424 S    
O11   V3    2.000599 S    
C26   C29   1.550313 S    
C25   C27   1.556613 S    
O17   V3    2.047462 S    
C36   I2    2.148467 S    
C26   C28   1.556653 S    
C29   C31   1.536197 S    
C35   I1    2.148550 S    
N2    O23   1.300038 A    
C34   C37   1.552054 S    
O8    C4    1.321102 A    
O8    V2    1.992867 S    
N3    O26   1.294539 A    
C1    O11   1.307491 A    
C26   C32   1.540091 S    
C19   C24   1.541578 S    
C21   C23   1.547898 S    
O15   V3    1.985142 S    
C20   C23   1.541343 S    
C24   I6    2.156652 S    
C28   C30   1.552842 S    
C37   C39   1.543482 S    
C34   C36   1.530528 S    
C10   N6    1.456340 S    
N6    O32   1.299013 A    
C19   C21   1.534893 S    
N8    O35   1.299583 A    
O10   V2    2.038790 S    
O1    V3    2.033070 S    
N9    O38   1.299126 A    
C17   C19   1.536082 S    
C6    C22   1.517290 S    
C34   N4    1.452895 S    
C12   N2    1.457706 S    
O5    V1    2.004783 S    
O18   V4    2.047463 S    
N4    O28   1.294487 A    
O15   C5    1.312286 A    
O16   C6    1.312393 A    
O1    C3    1.306560 A    
C12   C14   1.549543 S    
C40   I4    2.144050 S    
C1    C30   1.522232 S    
C39   I3    2.142167 S    
N1    O22   1.299838 A    
V2    O20   1.730581 S    
O10   C6    1.313640 A    
C33   C38   1.552407 S    
O16   V4    1.985143 S    
C11   C13   1.546847 S    
C26   I8    2.115213 S    
C12   C15   1.550510 S    
C17   C22   1.556456 S    
C32   N10   1.454592 S    
O17   C7    1.321802 A    
O6    V2    2.004781 S    
C20   C22   1.533634 S    
O18   C8    1.320754 A    
C9    C14   1.547123 S    
O2    V4    2.033068 S    
C27   H5    1.108109 S    
C11   C16   1.552254 S    
C9    N5    1.456972 S    
N1    O21   1.299366 A    
V3    O19   2.201374 S    
C14   C16   1.561049 S    
C17   C23   1.565980 S    
N6    O31   1.299819 A    
N7    O34   1.299737 A    
N10   O40   1.299121 A    
C8    C13   1.514264 S    
O9    C5    1.314357 A    
O13   V1    2.184915 S    
C28   H6    1.108164 S    
O14   V2    2.184915 S    
O2    C4    1.306595 A    
C11   N1    1.457425 S    
N3    O25   1.299620 A    
O4    V2    2.056173 S    
C13   C15   1.558276 S    
C20   N8    1.456211 S    
C38   C40   1.543727 S    
N4    O27   1.299590 A    
N9    O37   1.299013 A    
N5    O30   1.299071 A    
C28   C31   1.538617 S    
C17   H3    1.108060 S    
C18   H4    1.108051 S    
C3    C38   1.520856 S    
