data_mof_unit_20924.cif
_audit_creation_date              2012-12-11T15:30:40-0500
_audit_creation_method            fapswitch 2.2
_symmetry_space_group_name_H-M    P1
_symmetry_Int_Tables_number       1
_space_group_crystal_system       triclinic
_cell_length_a                    7.080762
_cell_length_b                    20.453746
_cell_length_c                    24.316898
_cell_angle_alpha                 89.889269
_cell_angle_beta                  89.52022
_cell_angle_gamma                 90.804126
_cell_volume                      3521.29261621

loop_
_atom_site_label
_atom_site_type_symbol
_atom_type_description
_atom_site_fract_x
_atom_site_fract_y
_atom_site_fract_z
_atom_type_partial_charge
O1    O     O_R   0.507310 0.423620 0.460450 -0.535606
O2    O     O_R   0.170760 0.556060 0.437190 -0.535574
O3    O     O_R   0.004040 0.576380 0.539550 -0.524439
C1    C     C_R   0.340595 0.575819 0.421581 0.684927
O4    O     O_R   0.177350 0.422870 0.454070 -0.532965
O5    O     O_R   0.010680 0.442240 0.556560 -0.514543
C2    C     C_R   0.344989 0.398798 0.444233 0.810778
O6    O     O_R   0.500670 0.557760 0.443440 -0.542052
O7    O     O_3   0.340380 0.506510 0.533610 -0.362152
V1    V     V_3+5 0.064130 0.498790 0.493770 1.612605
O8    O     O_R   0.681170 0.443940 0.562810 -0.534246
C3    C     C_R   0.847150 0.424024 0.578516 0.744367
O9    O     O_R   0.674570 0.577130 0.545930 -0.543370
C4    C     C_R   0.843169 0.600863 0.556663 0.797323
V2    V     V_3+5 0.564560 0.501210 0.506230 1.593012
O10   O     O_3   0.838170 0.493490 0.466390 -0.382517
C5    C     C_R   0.966305 0.838061 0.910878 -0.368463
C6    C     C_R   0.845459 0.662525 0.588462 -0.263850
C7    C     C_R   0.917408 0.720628 0.911208 0.698421
C8    C     C_R   0.940399 0.779310 0.939452 0.481574
C9    C     C_R   0.966270 0.837861 0.852696 0.287704
C10   C     C_R   0.912247 0.779666 0.823502 -0.079385
C11   C     C_R   0.902205 0.720004 0.853378 -0.365314
C12   C     C_R   0.865866 0.778337 0.766144 -0.093561
C13   C     C_R   0.861341 0.717810 0.736875 -0.126147
C14   C     C_R   0.843976 0.659444 0.768498 0.282192
C15   C     C_R   0.867190 0.660987 0.825539 0.710997
C16   C     C_R   0.790866 0.833478 0.739715 0.648593
C17   C     C_R   0.748456 0.833014 0.683720 0.278676
C18   C     C_R   0.780812 0.776473 0.651694 -0.280948
C19   C     C_R   0.846408 0.718733 0.677995 -0.098863
C20   C     C_R   0.743375 0.774841 0.594529 0.764290
C21   C     C_R   0.767934 0.717746 0.564455 -0.303128
C22   C     C_R   0.896870 0.664567 0.644198 0.664804
H1    H     H_    0.727189 0.716782 0.521581 0.192406
C23   C     C_3   0.769618 0.253119 0.808474 0.388011
C24   C     C_3   0.117131 0.254647 0.779497 0.648488
C25   C     C_3   0.076571 0.303388 0.730247 0.662911
H2    H     H_    0.793244 0.353990 0.781138 0.202564
C26   C     C_1   0.846562 0.378694 0.624595 -0.024194
C27   C     C_3   0.941101 0.208853 0.792465 -0.394735
C28   C     C_3   0.750354 0.307067 0.762347 0.009503
C29   C     C_3   0.874261 0.293727 0.710322 -0.349703
C30   C     C_3   0.837687 0.221397 0.691349 0.063268
C31   C     C_3   0.891320 0.170809 0.737271 0.764854
C32   C     C_1   0.848416 0.340592 0.663112 0.299227
C33   C     C_1   0.972443 0.160845 0.838028 0.291410
C34   C     C_1   0.977026 0.121851 0.875826 -0.036950
H3    H     H_    0.682760 0.216631 0.684755 0.232540
C35   C     C_3   0.456576 0.674019 0.238479 0.050503
C36   C     C_3   0.200387 0.742649 0.280038 1.031880
C37   C     C_3   0.219778 0.788081 0.227969 0.661710
H4    H     H_    0.432661 0.709140 0.153528 0.228334
H5    H     H_    0.340043 0.641299 0.224269 0.213268
C38   C     C_1   0.470638 0.879109 0.124456 -0.033347
C39   C     C_3   0.392027 0.708897 0.292533 -0.313031
C40   C     C_3   0.500330 0.725172 0.192402 -0.439433
C41   C     C_3   0.432564 0.794394 0.209747 -0.330136
C42   C     C_3   0.556280 0.816288 0.259985 0.781451
C43   C     C_3   0.543541 0.762730 0.306688 0.010232
C44   C     C_1   0.455638 0.841102 0.162770 0.263693
C45   C     C_1   0.368775 0.660497 0.338340 0.259646
C46   C     C_1   0.353618 0.621583 0.376015 -0.078574
H6    H     H_    0.682608 0.738223 0.308230 0.244100
H7    H     H_    0.654141 0.727090 0.183329 0.303851
C47   C     C_R   0.473390 0.161273 0.088886 -0.139170
C48   C     C_R   0.347297 0.337952 0.412043 -0.319504
C49   C     C_R   0.518517 0.278450 0.091634 -0.021269
C50   C     C_R   0.497007 0.220985 0.061758 -0.193455
C51   C     C_R   0.458220 0.159653 0.146782 0.333913
C52   C     C_R   0.447028 0.219545 0.176884 0.010003
C53   C     C_R   0.501242 0.278131 0.149332 -0.102736
C54   C     C_R   0.390622 0.223390 0.233426 -0.138897
C55   C     C_R   0.436173 0.280481 0.265153 -0.125055
C56   C     C_R   0.528606 0.333272 0.237478 0.611685
C57   C     C_R   0.545858 0.334204 0.180197 0.218314
C58   C     C_R   0.274591 0.174482 0.257620 0.697795
C59   C     C_R   0.237483 0.174167 0.313600 -0.088094
C60   C     C_R   0.292894 0.226558 0.346618 -0.229330
C61   C     C_R   0.382988 0.282478 0.322582 0.066616
C62   C     C_R   0.244102 0.225513 0.402840 0.639776
C63   C     C_R   0.271531 0.280760 0.435189 0.578883
C64   C     C_R   0.403210 0.338828 0.356514 -0.202285
H8    H     H_    0.448066 0.385645 0.340839 0.228736
H9    H     H_    0.153358 0.134148 0.330505 0.234942
H10   H     H_    0.549913 0.322861 0.068966 0.200870
H11   H     H_    0.511020 0.222598 0.017348 0.166839
O11   O     O_R   0.323590 0.942280 0.056590 -0.530138
O12   O     O_R   0.647030 0.077140 0.045940 -0.535822
O13   O     O_R   0.813570 0.057750 0.943430 -0.533802
C65   C     C_R   0.479156 0.100980 0.056052 0.736715
O14   O     O_R   0.653510 0.943950 0.062820 -0.521635
O15   O     O_R   0.820100 0.923600 0.960440 -0.534353
C66   C     C_R   0.483674 0.924250 0.078465 0.735730
O16   O     O_R   0.317060 0.076430 0.039590 -0.535170
O17   O     O_3   0.483830 0.993520 0.966410 -0.372361
V3    V     V_3+5 0.760140 0.001200 0.006230 1.626224
O18   O     O_R   0.149560 0.922820 0.954030 -0.530560
C67   C     C_R   0.980242 0.899418 0.942992 0.869437
O19   O     O_R   0.143080 0.056020 0.937150 -0.534798
C68   C     C_R   0.977051 0.075957 0.921479 0.704803
V4    V     V_3+5 0.259690 0.998730 0.993720 1.625426
O20   O     O_3   0.986120 0.006480 0.033580 -0.369566
F1    F     F_    0.846410 0.604121 0.854136 -0.518126
F2    F     F_    0.676960 0.827131 0.566827 -0.568346
Br1   Br    Br    0.782861 0.297176 0.880076 -0.334657
F3    F     F_    0.259598 0.215490 0.761310 -0.537613
Br2   Br    Br    0.213472 0.298633 0.846069 -0.257847
Br3   Br    Br    0.116070 0.398758 0.747215 -0.272835
F4    F     F_    0.192593 0.289091 0.685607 -0.541633
F5    F     F_    0.737484 0.129211 0.744878 -0.568208
Br4   Br    Br    0.086886 0.108079 0.715283 -0.076626
F6    F     F_    0.004364 0.615561 0.664089 -0.634934
Br5   Br    Br    0.556179 0.195824 0.826499 -0.231960
Br6   Br    Br    0.511303 0.331130 0.741089 -0.238694
Br7   Br    Br    0.940445 0.202079 0.617813 -0.150550
F7    F     F_    0.144173 0.779350 0.325014 -0.548289
F8    F     F_    0.061761 0.695146 0.272141 -0.630354
Br8   Br    Br    0.064264 0.755802 0.166932 -0.301293
F9    F     F_    0.148665 0.849170 0.240215 -0.527618
Br9   Br    Br    0.518295 0.796841 0.381854 -0.226040
F10   F     F_    0.743154 0.821263 0.242864 -0.567980
Br10  Br    Br    0.672083 0.616613 0.248667 -0.299747
Br11  Br    Br    0.493339 0.904925 0.284477 -0.108981
Br12  Br    Br    0.649218 0.412494 0.146527 -0.279009
F11   F     F_    0.215777 0.279481 0.488776 -0.594005
Br13  Br    Br    0.641736 0.912387 0.655169 -0.094461
Br14  Br    Br    0.511982 0.077381 0.182777 -0.358187
F12   F     F_    0.608585 0.384165 0.264647 -0.645968
F13   F     F_    0.178127 0.130488 0.226508 -0.620423
F14   F     F_    0.161948 0.171617 0.426076 -0.566334
F15   F     F_    0.902417 0.664667 0.941185 -0.508424
F16   F     F_    0.942346 0.778616 0.995317 -0.606719
Br15  Br    Br    0.084005 0.912195 0.816027 -0.335095
Br16  Br    Br    0.723656 0.580478 0.741308 -0.258576
F17   F     F_    0.728131 0.884691 0.769944 -0.596060

loop_
_geom_bond_atom_site_label_1
_geom_bond_atom_site_label_2
_ccdc_geom_bond_type
C30   H3    S    
C13   C19   A    
C48   C64   A    
O17   V4    S    
C49   H10   S    
C54   C55   A    
C4    C6    S    
C23   C28   S    
C7    C8    A    
C1    O6    A    
C23   Br5   S    
C5    C8    A    
C62   C63   A    
C31   Br4   S    
C58   C59   A    
C22   F6    S    
C26   C32   T    
C1    C46   S    
C14   C15   A    
C17   C18   A    
C16   C17   A    
C24   F3    S    
C38   C66   S    
O5    C3    A    
C18   C19   A    
C62   F14   S    
C47   C50   A    
V2    O10   S    
C15   F1    S    
C42   Br11  S    
C36   F8    S    
C36   C39   S    
C63   F11   S    
C14   Br16  S    
C36   F7    S    
O8    V2    S    
C33   C34   T    
C49   C50   A    
C51   C52   A    
O1    V2    S    
C11   C15   A    
C8    F16   S    
O12   C65   A    
O7    V1    S    
O15   C67   A    
O13   V3    S    
C50   H11   S    
O16   V4    S    
C53   C57   A    
C42   F10   S    
C42   C43   S    
C16   F17   S    
O9    C4    A    
C24   C27   S    
C57   Br12  S    
C23   C27   S    
V4    O20   S    
C61   C64   A    
O14   C66   A    
C29   C32   S    
O14   V3    S    
H2    C28   S    
O11   C66   A    
C55   C56   A    
C23   Br1   S    
C36   C37   S    
C12   C13   A    
C24   Br2   S    
C60   C62   A    
H4    C40   S    
C59   C60   A    
C41   C42   S    
O18   V4    S    
C65   O16   A    
C5    C9    A    
C39   C43   S    
O12   V3    S    
C3    C26   S    
O2    C1    A    
C56   C57   A    
O13   C68   A    
C24   C25   S    
C6    C22   A    
C64   H8    S    
C49   C53   A    
O17   V3    S    
C45   C46   T    
O19   V4    S    
C27   C33   S    
C19   C22   A    
C35   H5    S    
C25   Br3   S    
C5    C67   S    
V3    O20   S    
O3    C4    A    
C37   C41   S    
C37   F9    S    
C59   H9    S    
O6    V2    S    
C20   F2    S    
C17   Br13  S    
C29   C30   S    
C39   C45   S    
C25   F4    S    
C28   C29   S    
O2    V1    S    
O15   V3    S    
C9    Br15  S    
C30   C31   S    
C7    C11   A    
O4    C2    A    
C51   Br14  S    
C7    F15   S    
C54   C58   A    
O1    C2    A    
C35   C40   S    
C35   Br10  S    
C12   C16   A    
C40   H7    S    
O5    V1    S    
O11   V4    S    
O8    C3    A    
C31   F5    S    
C47   C65   S    
C43   H6    S    
C20   C21   A    
O9    V2    S    
C13   C14   A    
C25   C29   S    
O3    V1    S    
V1    O10   S    
C18   C20   A    
C40   C41   S    
C47   C51   A    
C41   C44   S    
C34   C68   S    
C38   C44   T    
O19   C68   A    
C21   H1    S    
C10   C12   A    
C58   F13   S    
O7    V2    S    
C43   Br9   S    
C6    C21   A    
C35   C39   S    
C2    C48   S    
C60   C61   A    
C37   Br8   S    
C28   Br6   S    
O4    V1    S    
C52   C53   A    
C30   Br7   S    
C48   C63   A    
O18   C67   A    
C52   C54   A    
C27   C31   S    
C10   C11   A    
C55   C61   A    
C9    C10   A    
C56   F12   S    
