data_mof_unit_22837.cif
_audit_creation_date              2012-12-10T18:31:59-0500
_audit_creation_method            fapswitch 2.2
_symmetry_space_group_name_H-M    P1
_symmetry_Int_Tables_number       1
_space_group_crystal_system       triclinic
_cell_length_a                    10.629311
_cell_length_b                    14.989125
_cell_length_c                    15.374193
_cell_angle_alpha                 82.266196
_cell_angle_beta                  89.963973
_cell_angle_gamma                 104.154551
_cell_volume                      2352.0737919

loop_
_atom_site_label
_atom_site_type_symbol
_atom_type_description
_atom_site_fract_x
_atom_site_fract_y
_atom_site_fract_z
_atom_type_partial_charge
C1    C     C_R   0.486054 0.441982 0.662292 0.865674
C2    C     C_R   0.566411 0.442170 0.899444 0.088188
C3    C     C_R   0.518543 0.346761 0.932852 0.177976
C4    C     C_R   0.742307 0.501947 0.495666 0.841795
C5    C     C_R   0.611851 0.507636 0.957487 0.065259
C6    C     C_R   0.581303 0.479890 0.047704 0.060467
C7    C     C_R   0.544362 0.384177 0.080308 -0.192888
C8    C     C_R   0.515744 0.318143 0.023151 -0.275852
C9    C     C_R   0.682692 0.600045 0.928895 -0.223900
C10   C     C_R   0.713097 0.664445 0.987877 -0.207027
C11   C     C_R   0.664139 0.640363 0.074411 0.120764
C12   C     C_3   0.121555 0.500529 0.494789 0.083345
C13   C     C_R   0.589430 0.549017 0.102654 -0.037823
C14   C     C_R   0.686734 0.706181 0.132976 -0.208857
C15   C     C_R   0.636655 0.681039 0.219126 -0.282010
C16   C     C_R   0.519866 0.558112 0.337476 0.912326
C17   C     C_R   0.518644 0.531228 0.183121 0.399272
C18   C     C_R   0.690049 0.839034 0.643077 0.114672
C19   C     C_R   0.657446 0.750636 0.617908 -0.002040
C20   C     C_R   0.518900 0.795447 0.508895 -0.092007
C21   C     C_R   0.546867 0.886678 0.529724 -0.042781
C22   C     C_R   0.634223 0.908177 0.598485 0.151080
C23   C     C_3   0.105617 0.593551 0.441829 0.358945
C24   C     C_R   0.490108 0.956114 0.485251 0.101319
C25   C     C_R   0.520297 0.046609 0.511077 0.083542
C26   C     C_R   0.608028 0.065377 0.579034 -0.253181
C27   C     C_R   0.663571 0.997873 0.621421 -0.206482
C28   C     C_R   0.258174 0.500130 0.497968 0.874510
C29   C     C_R   0.404003 0.937998 0.415903 -0.243546
C30   C     C_R   0.347176 0.005320 0.374443 -0.217237
C31   C     C_R   0.374088 0.093304 0.399875 0.182354
C32   C     C_R   0.461350 0.115385 0.468091 -0.003693
C33   C     C_R   0.314559 0.159833 0.357275 -0.327161
C34   C     C_3   0.067700 0.491736 0.589852 -0.522504
C35   C     C_R   0.342140 0.247759 0.382344 0.033241
C36   C     C_R   0.485302 0.206181 0.490058 -0.071167
C37   C     C_3   0.901993 0.420988 0.443735 0.046587
C38   C     C_3   0.044044 0.416692 0.451848 -0.359637
C39   C     C_3   0.961676 0.596369 0.445417 -0.435105
C40   C     C_3   0.922290 0.487907 0.588461 -0.478164
C41   C     C_3   0.879139 0.502181 0.492252 0.117092
C42   C     C_3   0.864429 0.427997 0.346238 -0.909639
C43   C     C_3   0.310246 0.469054 0.142882 0.065335
C44   C     C_3   0.178882 0.433263 0.191854 -0.348879
C45   C     C_R   0.497765 0.407120 0.754601 -0.061188
C46   C     C_3   0.067802 0.442116 0.131038 -0.954915
C47   C     C_3   0.782405 0.857004 0.716889 -0.978518
C48   C     C_3   0.218442 0.691364 0.321242 0.049440
C49   C     C_3   0.255642 0.696889 0.224497 -0.314935
C50   C     C_3   0.336433 0.793582 0.187714 -0.970517
C51   C     C_R   0.554219 0.592654 0.244836 -0.158219
C52   C     C_R   0.469409 0.282039 0.875751 -0.204679
C53   C     C_R   0.458656 0.312155 0.786871 -0.207360
C54   C     C_R   0.554634 0.470713 0.810311 -0.270688
H1    H     H_    0.119481 0.552125 0.621809 0.192014
H2    H     H_    0.841771 0.353560 0.477552 0.163989
H3    H     H_    0.536565 0.359872 0.150095 0.200168
H4    H     H_    0.719847 0.622858 0.862079 0.138248
H5    H     H_    0.746574 0.775711 0.113089 0.146499
H6    H     H_    0.729784 0.017165 0.673001 0.159365
H7    H     H_    0.550335 0.230541 0.540052 0.126104
H8    H     H_    0.297656 0.300287 0.349806 0.151347
H9    H     H_    0.281384 0.988197 0.321892 0.139672
H10   H     H_    0.698023 0.695862 0.650342 0.131577
H11   H     H_    0.453743 0.771864 0.459009 0.123736
H12   H     H_    0.951880 0.653594 0.482189 0.145815
H13   H     H_    0.047971 0.350448 0.493201 0.149973
H14   H     H_    0.636600 0.131992 0.601755 0.135284
H15   H     H_    0.377893 0.872413 0.391254 0.127756
H16   H     H_    0.247792 0.144067 0.305016 0.142248
H17   H     H_    0.089282 0.415365 0.387002 0.198787
H18   H     H_    0.926524 0.612793 0.378467 0.185857
H19   H     H_    0.902661 0.542462 0.625295 0.191192
H20   H     H_    0.866325 0.419447 0.622774 0.176734
H21   H     H_    0.082979 0.427791 0.629815 0.188182
H22   H     H_    0.931407 0.487284 0.305420 0.281477
H23   H     H_    0.161298 0.652019 0.475485 0.061503
H24   H     H_    0.869731 0.363332 0.320221 0.234345
H25   H     H_    0.764133 0.436117 0.337735 0.256886
H26   H     H_    0.311893 0.427980 0.088113 0.171785
H27   H     H_    0.319392 0.542911 0.113850 0.125255
H28   H     H_    0.166075 0.359182 0.219954 0.217039
H29   H     H_    0.176141 0.474346 0.246327 0.253024
H30   H     H_    0.973494 0.413509 0.167711 0.269233
H31   H     H_    0.069740 0.402661 0.075052 0.265635
H32   H     H_    0.075649 0.516285 0.105475 0.265010
H33   H     H_    0.814886 0.793983 0.743521 0.236317
H34   H     H_    0.483450 0.245281 0.049812 0.151825
H35   H     H_    0.869954 0.912440 0.692733 0.250228
H36   H     H_    0.733683 0.878533 0.771555 0.248428
H37   H     H_    0.309125 0.709720 0.357824 0.145869
H38   H     H_    0.158423 0.741656 0.328042 0.135360
H39   H     H_    0.313396 0.645718 0.217596 0.226162
H40   H     H_    0.166368 0.679388 0.186242 0.222489
H41   H     H_    0.280444 0.846339 0.193102 0.258809
H42   H     H_    0.362218 0.795182 0.117422 0.268337
H43   H     H_    0.427515 0.811190 0.224077 0.267926
H44   H     H_    0.663364 0.730131 0.265624 0.180010
H45   H     H_    0.770254 0.734105 0.964841 0.142675
H46   H     H_    0.434835 0.208793 0.900380 0.135548
H47   H     H_    0.417336 0.261634 0.743992 0.157398
H48   H     H_    0.582778 0.543504 0.784176 0.157376
N1    N     N_R   0.573860 0.731700 0.552730 -0.118603
N2    N     N_R   0.426060 0.268290 0.447230 -0.102975
O1    O     O_R   0.462770 0.383110 0.605620 -0.619025
O2    O     O_3   0.148799 0.599896 0.353215 -0.664410
O3    O     O_R   0.510160 0.531900 0.639510 -0.618032
O4    O     O_R   0.661510 0.425600 0.483070 -0.634553
O5    O     O_R   0.708900 0.574390 0.516960 -0.626306
O6    O     O_R   0.489840 0.468100 0.360490 -0.569441
O7    O     O_R   0.537230 0.616890 0.394380 -0.629755
O8    O     O_R   0.291100 0.425610 0.483040 -0.628184
O9    O     O_R   0.338490 0.574400 0.516930 -0.633208
O10   O     O_3   0.410088 0.457126 0.201287 -0.652699
Zn1   Zn    Zn3+2 0.468350 0.400660 0.477370 0.942556
Zn2   Zn    Zn3+2 0.531650 0.599340 0.522630 0.923555

loop_
_geom_bond_atom_site_label_1
_geom_bond_atom_site_label_2
_ccdc_geom_bond_type
C4    O5    A    
C16   C51   S    
C44   H29   S    
C50   H42   S    
C18   C47   S    
C17   C51   A    
C16   O6    A    
C7    C8    A    
C39   C41   S    
C20   N1    A    
C28   O8    A    
C14   H5    S    
C4    O4    A    
C12   C23   S    
C26   C27   A    
C29   C30   A    
C12   C28   S    
C34   C40   S    
C32   C36   A    
O4    Zn1   S    
C18   C19   A    
C44   H28   S    
C27   H6    S    
C43   O10   S    
C30   C31   A    
C11   C14   A    
C50   H41   S    
C4    C41   S    
C40   H19   S    
C9    H4    S    
C37   C42   S    
C24   C29   A    
O5    Zn2   S    
C33   C35   A    
C37   H2    S    
C19   N1    A    
C48   O2    S    
C53   H47   S    
C48   H37   S    
C39   H18   S    
C31   C33   A    
O7    Zn2   S    
C15   C51   A    
C49   H40   S    
C9    C10   A    
C34   H21   S    
C46   H31   S    
C25   C32   A    
C45   C53   A    
C34   H1    S    
C21   C22   A    
C12   C38   S    
C47   H35   S    
C44   C46   S    
C17   O10   S    
C29   H15   S    
O1    Zn1   S    
C20   H11   S    
C24   C25   A    
C3    C8    A    
C2    C54   A    
C43   H26   S    
C23   O2    S    
C52   H46   S    
C8    H34   S    
C47   H33   S    
C43   C44   S    
C5    C9    A    
C37   C38   S    
N2    Zn1   S    
C31   C32   A    
C19   H10   S    
C23   H23   S    
C33   H16   S    
C1    O3    A    
C46   H30   S    
C40   C41   S    
C45   C54   A    
C42   H24   S    
C22   C27   A    
C43   H27   S    
C47   H36   S    
C2    C5    A    
C15   H44   S    
C12   C34   S    
C36   H7    S    
C38   H13   S    
C52   C53   A    
C38   H17   S    
C48   C49   S    
C50   H43   S    
C18   C22   A    
C54   H48   S    
C3    C52   A    
C6    C7    A    
C35   N2    A    
C42   H22   S    
C13   C17   A    
C36   N2    A    
C26   H14   S    
O9    Zn2   S    
N1    Zn2   S    
C25   C26   A    
C6    C13   A    
C11   C13   A    
C1    C45   S    
C5    C6    A    
C23   C39   S    
C39   H12   S    
C40   H20   S    
C2    C3    A    
C35   H8    S    
C37   C41   S    
C10   H45   S    
O3    Zn2   S    
C10   C11   A    
C28   O9    A    
C42   H25   S    
C20   C21   A    
C49   C50   S    
C48   H38   S    
C21   C24   A    
C14   C15   A    
C49   H39   S    
C30   H9    S    
O6    Zn1   S    
C7    H3    S    
O8    Zn1   S    
C16   O7    A    
C1    O1    A    
C46   H32   S    
