data_mof_unit_66606.cif
_audit_creation_date              2012-12-11T17:07:33-0500
_audit_creation_method            fapswitch 2.2
_symmetry_space_group_name_H-M    P1
_symmetry_Int_Tables_number       1
_space_group_crystal_system       triclinic
_cell_length_a                    6.973665
_cell_length_b                    14.742519
_cell_length_c                    16.00822
_cell_angle_alpha                 90.148298
_cell_angle_beta                  89.910649
_cell_angle_gamma                 90.454728
_cell_volume                      1645.73601938

loop_
_atom_site_label
_atom_site_type_symbol
_atom_type_description
_atom_site_fract_x
_atom_site_fract_y
_atom_site_fract_z
_atom_type_partial_charge
O1    O     O_R   0.505720 0.583900 0.413310 -0.539865
O2    O     O_R   0.175940 0.594920 0.586080 -0.536479
O3    O     O_R   0.005640 0.416100 0.586690 -0.565658
C1    C     C_R   0.346724 0.617717 0.614426 0.833086
O4    O     O_R   0.176000 0.594930 0.413930 -0.510574
O5    O     O_R   0.005700 0.416110 0.413310 -0.533011
C2    C     C_R   0.345866 0.618965 0.386684 0.788920
O6    O     O_R   0.505660 0.583890 0.586690 -0.498441
O7    O     O_3   0.339200 0.441330 0.500000 -0.397989
V1    V     V_3+5 0.064350 0.510880 0.500000 1.652919
O8    O     O_R   0.675980 0.405080 0.413920 -0.535635
C3    C     C_R   0.845102 0.382560 0.385776 0.834908
O9    O     O_R   0.675920 0.405070 0.586070 -0.508037
C4    C     C_R   0.841750 0.381349 0.614118 0.828234
V2    V     V_3+5 0.564340 0.489120 0.500000 1.646503
O10   O     O_3   0.839360 0.558670 0.500000 -0.339411
C5    C     C_R   0.707940 0.410851 0.790398 0.484129
C6    C     C_R   0.702401 0.438997 0.874173 0.312020
C7    C     C_R   0.807782 0.391973 0.933979 0.259550
C8    C     C_R   0.882651 0.307046 0.913369 0.367657
C9    C     C_R   0.867039 0.272997 0.830565 -0.172250
C10   C     C_R   0.812478 0.333642 0.766375 -0.209194
C11   C     C_R   0.876685 0.179178 0.812263 -0.017096
C12   C     C_R   0.828257 0.149569 0.729539 -0.232234
C13   C     C_R   0.818662 0.214145 0.662295 -0.161928
C14   C     C_R   0.835499 0.308839 0.681093 0.010892
C15   C     C_R   0.775729 0.057960 0.712689 0.367764
C16   C     C_R   0.738396 0.028670 0.631913 0.471859
C17   C     C_R   0.750969 0.088137 0.565805 0.433252
C18   C     C_R   0.769973 0.181464 0.580675 0.250999
C19   C     C_R   0.755208 0.263797 0.177555 -0.072150
C20   C     C_R   0.878845 0.188397 0.180642 -0.316038
C21   C     C_R   0.985962 0.176558 0.254189 0.557206
C22   C     C_R   0.982651 0.241281 0.319579 0.634191
C23   C     C_R   0.857846 0.316086 0.316237 -0.239538
C24   C     C_R   0.746283 0.325791 0.244359 -0.273381
C25   C     C_3   0.535181 0.338597 0.238994 0.469498
C26   C     C_3   0.537833 0.269238 0.168487 0.731780
H1    H     H_    0.495799 0.408222 0.219323 0.047135
C27   C     C_R   0.487334 0.677898 0.749399 -0.125923
C28   C     C_R   0.364206 0.689266 0.680656 -0.206197
C29   C     C_R   0.271685 0.773582 0.671990 0.401411
C30   C     C_R   0.303029 0.844218 0.732228 0.410931
C31   C     C_R   0.384115 0.821971 0.811099 -0.167938
C32   C     C_R   0.489783 0.741791 0.815313 -0.207192
C33   C     C_3   0.703169 0.740222 0.821371 1.019494
C34   C     C_3   0.703552 0.677553 0.746562 0.894569
C35   C     C_R   0.511054 0.686564 0.260974 -0.336066
C36   C     C_R   0.357141 0.687241 0.317687 -0.168750
C37   C     C_R   0.222984 0.758243 0.309583 0.395624
C38   C     C_R   0.224943 0.815027 0.238315 0.598126
C39   C     C_R   0.375432 0.812209 0.180437 -0.227954
C40   C     C_R   0.521269 0.749378 0.194581 -0.231619
C41   C     C_3   0.724122 0.773678 0.212840 1.107022
C42   C     C_3   0.717211 0.706796 0.284199 0.924292
O11   O     O_R   0.229140 0.916090 0.913340 -0.564762
O12   O     O_R   0.558860 0.905090 0.086080 -0.520310
O13   O     O_R   0.729100 0.083920 0.086690 -0.571893
C43   C     C_R   0.389300 0.881988 0.113674 0.822541
O14   O     O_R   0.558860 0.905090 0.913930 -0.477930
O15   O     O_R   0.729100 0.083920 0.913310 -0.539705
C44   C     C_R   0.391074 0.886151 0.882929 0.779869
O16   O     O_R   0.229140 0.916080 0.086720 -0.495881
O17   O     O_3   0.395570 0.058660 0.000020 -0.431942
V3    V     V_3+5 0.670450 0.989140 0.000000 1.698311
O18   O     O_R   0.058810 0.094980 0.913910 -0.561202
C45   C     C_R   0.890400 0.113127 0.882582 0.860423
O19   O     O_R   0.058810 0.094980 0.086060 -0.506334
C46   C     C_R   0.889106 0.118887 0.113155 0.918806
V4    V     V_3+5 0.170450 0.010950 0.999970 1.610405
O20   O     O_3   0.895460 0.941370 0.999990 -0.327603
F1    F     F_    0.717742 0.056776 0.487247 -0.610441
F2    F     F_    0.086366 0.225720 0.389710 -0.640276
F3    F     F_    0.436100 0.310451 0.309348 -0.688464
O21   O     O_3   0.481084 0.315168 0.094744 -0.587932
C47   C     C_3   0.451696 0.255636 0.027460 -0.075789
H2    H     H_    0.319418 0.215111 0.037615 0.211316
H3    H     H_    0.428231 0.296084 0.970177 0.095788
H4    H     H_    0.579241 0.213271 0.015933 0.148823
O22   O     O_3   0.425909 0.189047 0.185870 -0.566508
C48   C     C_3   0.497971 0.133092 0.251089 -0.005282
H5    H     H_    0.601218 0.165986 0.294023 0.127812
H6    H     H_    0.560995 0.070648 0.224456 0.139707
H7    H     H_    0.381315 0.111620 0.292845 0.243437
O23   O     O_3   0.177792 0.788631 0.596975 -0.569966
C49   C     C_3   0.023408 0.849092 0.605450 0.030343
H8    H     H_    0.961256 0.851629 0.669306 0.221168
H9    H     H_    0.907696 0.826680 0.562487 0.244325
H10   H     H_    0.069626 0.918327 0.586827 0.119833
O24   O     O_3   0.319296 0.931470 0.699787 -0.511847
C50   C     C_3   0.222439 0.996983 0.747142 -0.191697
H11   H     H_    0.322414 0.030002 0.791892 0.150635
H12   H     H_    0.093580 0.969066 0.778931 0.178027
H13   H     H_    0.174994 0.050963 0.704016 0.122348
F4    F     F_    0.762309 0.701415 0.895604 -0.657603
F5    F     F_    0.793031 0.822291 0.805630 -0.653893
O25   O     O_3   0.783200 0.592160 0.761889 -0.527850
C51   C     C_3   0.982337 0.597999 0.777797 -0.095073
H14   H     H_    0.044471 0.667299 0.772054 0.113123
H15   H     H_    0.058131 0.551474 0.734780 0.121125
H16   H     H_    0.010255 0.574250 0.842248 0.139472
F6    F     F_    0.588840 0.451663 0.735412 -0.663438
F7    F     F_    0.770836 0.715410 0.673174 -0.697119
O26   O     O_3   0.102230 0.778631 0.375154 -0.506760
C52   C     C_3   0.165105 0.860632 0.412915 0.066382
H17   H     H_    0.278135 0.846213 0.459510 0.154850
H18   H     H_    0.040390 0.893209 0.442905 0.187096
H19   H     H_    0.224035 0.912626 0.369472 0.151230
F8    F     F_    0.095879 0.883001 0.233256 -0.581876
F9    F     F_    0.742807 0.863078 0.238676 -0.611123
F10   F     F_    0.846335 0.750418 0.148097 -0.665651
F11   F     F_    0.728688 0.749121 0.361470 -0.617938
O27   O     O_3   0.858542 0.637945 0.276598 -0.549295
C53   C     C_3   0.790117 0.557225 0.239702 -0.253985
H20   H     H_    0.739137 0.569195 0.174921 0.184127
H21   H     H_    0.675633 0.526201 0.278519 0.127358
H22   H     H_    0.910003 0.508451 0.236894 0.152044
O28   O     O_3   0.609540 0.518112 0.895572 -0.477765
C54   C     C_3   0.424337 0.496363 0.924471 -0.102315
H23   H     H_    0.431477 0.463202 0.986589 0.160724
H24   H     H_    0.343474 0.453179 0.879176 0.096046
H25   H     H_    0.343699 0.560382 0.932226 0.144033
O29   O     O_3   0.811925 0.422652 0.015571 -0.505619
C55   C     C_3   0.994636 0.460265 0.031211 -0.084207
H26   H     H_    0.999926 0.484285 0.096649 0.146261
H27   H     H_    0.022326 0.519914 0.990421 0.122625
H28   H     H_    0.109569 0.408973 0.024019 0.150767
F12   F     F_    0.962736 0.258066 0.975588 -0.721437
F13   F     F_    0.749834 0.996027 0.773889 -0.630780
F14   F     F_    0.674462 0.942931 0.618158 -0.595445
O30   O     O_3   0.714349 0.239396 0.517688 -0.548311
C56   C     C_3   0.511395 0.235523 0.511796 -0.012080
H29   H     H_    0.442108 0.255517 0.571751 0.082969
H30   H     H_    0.458143 0.167637 0.491863 0.178695
H31   H     H_    0.462989 0.283100 0.463398 0.231336
F15   F     F_    0.068265 0.095088 0.267621 -0.632281

loop_
_geom_bond_atom_site_label_1
_geom_bond_atom_site_label_2
_ccdc_geom_bond_type
C35   C42   S    
C25   F3    S    
C37   O26   S    
C42   F11   S    
C27   C34   S    
C28   C29   A    
C41   C42   S    
C7    C8    A    
C12   C15   A    
C1    O6    A    
C48   H5    S    
O29   C55   S    
C32   C33   S    
C31   C32   A    
C52   H18   S    
C7    O29   S    
C17   C18   A    
C24   C25   S    
C47   H3    S    
C8    F12   S    
O5    C3    A    
C49   H9    S    
O12   C43   A    
C1    C28   S    
C18   O30   S    
O25   C51   S    
C41   F9    S    
O14   C44   A    
C22   C23   A    
C11   C45   S    
O28   C54   S    
O19   C46   A    
O8    V2    S    
C33   F4    S    
C23   C24   A    
C56   H29   S    
C11   C12   A    
C47   H4    S    
V4    O20   S    
O1    V2    S    
O17   V4    S    
O7    V1    S    
C6    O28   S    
C5    F6    S    
C17   F1    S    
O18   C45   A    
C38   F8    S    
O9    C4    A    
C35   C40   A    
O26   C52   S    
C48   H6    S    
C21   C22   A    
C26   O21   S    
C54   H24   S    
C27   C32   A    
C52   H19   S    
C30   O24   S    
C34   F7    S    
C38   C39   A    
C12   C13   A    
C2    C36   S    
C53   H20   S    
C50   H11   S    
O4    C2    A    
C49   H8    S    
C6    C7    A    
C42   O27   S    
C31   C44   S    
C13   C14   A    
V3    O20   S    
C4    C14   S    
O2    C1    A    
O21   C47   S    
C25   C26   S    
C39   C43   S    
C50   H12   S    
O15   C45   A    
O13   V3    S    
C19   C20   A    
O16   V4    S    
C54   H23   S    
C5    C6    A    
C37   C38   A    
C29   O23   S    
C47   H2    S    
C3    C23   S    
O23   C49   S    
O3    C4    A    
C55   H28   S    
C56   H30   S    
C35   C36   A    
O14   V3    S    
C51   H14   S    
O6    V2    S    
O11   V4    S    
C9    C11   A    
C30   C31   A    
C15   F13   S    
O11   C44   A    
C29   C30   A    
O30   C56   S    
O2    V1    S    
C48   H7    S    
C39   C40   A    
C55   H27   S    
O27   C53   S    
C54   H25   S    
C13   C18   A    
C33   C34   S    
C16   C17   A    
O1    C2    A    
C43   O16   A    
O12   V3    S    
O22   C48   S    
C49   H10   S    
O5    V1    S    
C53   H21   S    
O8    C3    A    
O13   C46   A    
C40   C41   S    
C20   C46   S    
C51   H16   S    
C52   H17   S    
C51   H15   S    
C5    C10   A    
C34   O25   S    
C19   C26   S    
C20   C21   A    
O9    V2    S    
O7    V2    S    
O4    V1    S    
C25   H1    S    
O3    V1    S    
V1    O10   S    
O17   V3    S    
C50   H13   S    
C21   F15   S    
O24   C50   S    
O18   V4    S    
C26   O22   S    
C56   H31   S    
C41   F10   S    
C16   F14   S    
C53   H22   S    
C22   F2    S    
O15   V3    S    
C33   F5    S    
C8    C9    A    
O19   V4    S    
C36   C37   A    
C10   C14   A    
C15   C16   A    
C19   C24   A    
C27   C28   A    
C9    C10   A    
V2    O10   S    
C55   H26   S    
