data_mof_unit_12487.cif
_audit_creation_date              2012-12-11T15:09:41-0500
_audit_creation_method            fapswitch 2.2
_symmetry_space_group_name_H-M    P1
_symmetry_Int_Tables_number       1
_space_group_crystal_system       triclinic
_cell_length_a                    21.077238
_cell_length_b                    7.125682
_cell_length_c                    13.978356
_cell_angle_alpha                 89.99986
_cell_angle_beta                  98.671659
_cell_angle_gamma                 89.999548
_cell_volume                      2075.40586227

loop_
_atom_site_label
_atom_site_type_symbol
_atom_type_description
_atom_site_fract_x
_atom_site_fract_y
_atom_site_fract_z
_atom_type_partial_charge
O1    O     O_R   0.447130 0.507140 0.597350 -0.533671
O2    O     O_R   0.552870 0.007140 0.402650 -0.533677
O3    O     O_R   0.578910 0.181280 0.586990 -0.532971
O4    O     O_R   0.421090 0.681280 0.413010 -0.532960
C1    C     C_R   0.604536 0.344432 0.607293 0.755608
C2    C     C_R   0.395464 0.844434 0.392707 0.755582
O5    O     O_R   0.449230 0.177860 0.608640 -0.550328
O6    O     O_R   0.550770 0.677860 0.391360 -0.550317
O7    O     O_R   0.422260 0.000770 0.424450 -0.550361
O8    O     O_R   0.577740 0.500770 0.575550 -0.550349
C3    C     C_R   0.432653 0.346143 0.633883 0.841795
C4    C     C_R   0.567346 0.846142 0.366117 0.841780
O9    O     O_3   0.491310 0.336980 0.439550 -0.383412
O10   O     O_3   0.508690 0.836980 0.560450 -0.383408
V1    V     V_3+5 0.501610 0.064760 0.511210 1.479866
V2    V     V_3+5 0.498390 0.564760 0.488790 1.479900
C5    C     C_R   0.618346 0.871790 0.122959 0.426643
C6    C     C_R   0.381661 0.371960 0.877044 0.426677
C7    C     C_R   0.609442 0.852436 0.292799 -0.306138
C8    C     C_R   0.390560 0.352446 0.707206 -0.306115
C9    C     C_R   0.920331 0.799238 0.300183 0.349152
C10   C     C_R   0.079681 0.299101 0.699839 0.349033
C11   C     C_R   0.883412 0.753106 0.371669 0.416024
C12   C     C_R   0.116611 0.252826 0.628389 0.415977
C13   C     C_R   0.816509 0.767419 0.350933 -0.228122
C14   C     C_R   0.183510 0.267207 0.649118 -0.227999
C15   C     C_R   0.784707 0.837295 0.261827 0.032913
C16   C     C_R   0.215302 0.337227 0.738196 0.032866
C17   C     C_R   0.822096 0.873959 0.186896 -0.178367
C18   C     C_R   0.177909 0.373957 0.813113 -0.178394
C19   C     C_R   0.716262 0.857976 0.243547 -0.094420
C20   C     C_R   0.283744 0.357965 0.756468 -0.094421
C21   C     C_R   0.685885 0.884070 0.146375 -0.301374
C22   C     C_R   0.314121 0.384167 0.853632 -0.301360
C23   C     C_R   0.723074 0.926844 0.074311 0.602881
C24   C     C_R   0.276927 0.426964 0.925688 0.602891
C25   C     C_R   0.790107 0.921645 0.092956 0.327795
C26   C     C_R   0.209895 0.421711 0.907046 0.327803
C27   C     C_R   0.677052 0.858250 0.318627 0.360930
C28   C     C_R   0.322949 0.358193 0.681384 0.360901
C29   C     C_R   0.580986 0.853529 0.196246 0.445067
C30   C     C_R   0.419020 0.353655 0.803756 0.445081
C31   C     C_R   0.890291 0.855632 0.208001 -0.213225
C32   C     C_R   0.109713 0.355612 0.792005 -0.213219
H1    H     H_    0.790225 0.714530 0.404461 0.174855
H2    H     H_    0.209797 0.214241 0.595609 0.174845
C33   C     C_1   0.166449 0.857115 0.168660 -0.176104
C34   C     C_1   0.833551 0.357118 0.831339 -0.176184
C35   C     C_1   0.218829 0.854841 0.219826 0.019279
C36   C     C_1   0.781172 0.354842 0.780173 0.019224
C37   C     C_1   0.280577 0.853371 0.279826 0.028916
C38   C     C_1   0.719424 0.353369 0.720174 0.028894
C39   C     C_1   0.332986 0.850998 0.330939 -0.161239
C40   C     C_1   0.667014 0.350995 0.669060 -0.161231
O11   O     O_R   0.922300 0.202240 0.924350 -0.516768
O12   O     O_R   0.077700 0.702240 0.075650 -0.516765
O13   O     O_R   0.050780 0.535130 0.891350 -0.523129
O14   O     O_R   0.949220 0.035130 0.108650 -0.523105
C41   C     C_R   0.068624 0.368085 0.867245 0.873192
C42   C     C_R   0.931377 0.868086 0.132757 0.873223
O15   O     O_R   0.921100 0.531560 0.912990 -0.559689
O16   O     O_R   0.078900 0.031560 0.087010 -0.559673
O17   O     O_R   0.947120 0.708470 0.097370 -0.558688
O18   O     O_R   0.052880 0.208470 0.902630 -0.558672
C43   C     C_R   0.895954 0.363559 0.893254 0.742944
C44   C     C_R   0.104047 0.863558 0.106746 0.742997
O19   O     O_3   0.008710 0.375800 0.060400 -0.390475
O20   O     O_3   0.991290 0.875800 0.939600 -0.390493
V3    V     V_3+5 0.998380 0.648080 0.988790 1.437850
V4    V     V_3+5 0.001620 0.148080 0.011210 1.437925
F1    F     F_    0.516006 0.847063 0.173044 -0.675966
F2    F     F_    0.484001 0.347261 0.826954 -0.676053
F3    F     F_    0.694470 0.985912 0.985780 -0.643554
F4    F     F_    0.305525 0.486092 0.014211 -0.643530
O21   O     O_3   0.587824 0.885077 0.028381 -0.501959
C45   C     C_3   0.578557 0.702183 0.990189 0.031476
H3    H     H_    0.625115 0.628052 0.990621 0.105126
H4    H     H_    0.555099 0.712639 0.913808 0.178980
H5    H     H_    0.546359 0.618609 0.030021 0.164949
O22   O     O_3   0.412185 0.385368 0.971616 -0.501948
C46   C     C_3   0.421483 0.202520 0.009859 0.031358
H6    H     H_    0.374938 0.128327 0.009441 0.105198
H7    H     H_    0.444933 0.213073 0.086241 0.178840
H8    H     H_    0.453699 0.118954 0.970056 0.164988
O23   O     O_3   0.704054 0.909065 0.412372 -0.547584
C47   C     C_3   0.691978 0.774548 0.482193 -0.243606
H9    H     H_    0.681047 0.631547 0.451671 0.111807
H10   H     H_    0.653113 0.824295 0.521262 0.157776
H11   H     H_    0.735426 0.762209 0.537536 0.147366
O24   O     O_3   0.295935 0.408913 0.587628 -0.547592
C48   C     C_3   0.308023 0.274355 0.517836 -0.243584
H12   H     H_    0.318977 0.131388 0.548390 0.111810
H13   H     H_    0.346877 0.324112 0.478747 0.157758
H14   H     H_    0.264572 0.261931 0.462504 0.147447
O25   O     O_3   0.986782 0.793199 0.319995 -0.567326
C49   C     C_3   0.007744 0.604732 0.321771 -0.204493
H15   H     H_    0.981178 0.518735 0.262194 0.128483
H16   H     H_    0.004271 0.538966 0.392751 0.201487
H17   H     H_    0.059093 0.603198 0.312462 0.147860
O26   O     O_3   0.013231 0.293055 0.680017 -0.567372
C50   C     C_3   0.992262 0.104596 0.678284 -0.204152
H18   H     H_    0.018916 0.018502 0.737744 0.128305
H19   H     H_    0.995595 0.038925 0.607235 0.201587
H20   H     H_    0.940952 0.103077 0.687811 0.147753
O27   O     O_3   0.914375 0.706268 0.463391 -0.544128
C51   C     C_3   0.892084 0.532363 0.493708 -0.248739
H21   H     H_    0.883745 0.427388 0.433969 0.130114
H22   H     H_    0.848059 0.552140 0.527321 0.132981
H23   H     H_    0.929304 0.473483 0.550143 0.222870
O28   O     O_3   0.085674 0.205723 0.536696 -0.544084
C52   C     C_3   0.107871 0.031463 0.506680 -0.248405
H24   H     H_    0.116034 0.926750 0.566559 0.129984
H25   H     H_    0.151980 0.050666 0.473208 0.132936
H26   H     H_    0.070675 0.972588 0.450213 0.222981
O29   O     O_3   0.824088 0.975157 0.019963 -0.547160
C53   C     C_3   0.817315 0.837457 0.946317 -0.130230
H27   H     H_    0.771807 0.856069 0.895934 0.184990
H28   H     H_    0.820492 0.691880 0.975819 0.094110
H29   H     H_    0.856748 0.855775 0.902921 0.156992
O30   O     O_3   0.175910 0.475205 0.980038 -0.547149
C54   C     C_3   0.182686 0.337488 0.053676 -0.130265
H30   H     H_    0.228203 0.356057 0.104042 0.184964
H31   H     H_    0.179493 0.191920 0.024163 0.094109
H32   H     H_    0.143263 0.355821 0.097090 0.157012

loop_
_geom_bond_atom_site_label_1
_geom_bond_atom_site_label_2
_ccdc_geom_bond_type
C50   H18   S    
C15   C17   A    
O25   C49   S    
O1    C3    A    
C45   H5    S    
O2    C4    A    
C2    O7    A    
C46   H6    S    
C33   C35   T    
O23   C47   S    
O5    C3    A    
C18   C26   A    
C41   O18   A    
C42   O17   A    
C7    C27   A    
C23   C25   A    
C45   H4    S    
C6    C30   A    
C8    C28   A    
C47   H10   S    
O13   C41   A    
C51   H21   S    
C32   C41   S    
O14   C42   A    
O29   C53   S    
C11   O27   S    
C49   H17   S    
C53   H27   S    
O16   V4    S    
O28   C52   S    
C54   H32   S    
C46   H7    S    
C9    C31   A    
C10   C32   A    
O17   V3    S    
C53   H28   S    
O20   V3    S    
C35   C37   S    
C49   H16   S    
C36   C38   S    
C19   C21   A    
O18   V4    S    
C34   C43   S    
C33   C44   S    
C29   F1    S    
C26   O30   S    
C34   C36   T    
O6    V2    S    
C17   C31   A    
C18   C32   A    
C5    C21   A    
C28   O24   S    
O11   C43   A    
C38   C40   T    
C3    C8    S    
C10   O26   S    
O16   C44   A    
C15   C19   A    
C1    C40   S    
C16   C20   A    
C12   O28   S    
C45   H3    S    
O4    C2    A    
C48   H12   S    
C47   H9    S    
O14   V4    S    
C9    O25   S    
C37   C39   T    
C20   C22   A    
O4    V2    S    
O21   C45   S    
C48   H13   S    
O6    C4    A    
C49   H15   S    
C30   F2    S    
C52   H25   S    
O1    V2    S    
O2    V1    S    
C6    C22   A    
C54   H30   S    
C24   F4    S    
C31   C42   S    
O20   V4    S    
C50   H20   S    
C9    C11   A    
C10   C12   A    
C27   O23   S    
C2    C39   S    
C13   H1    S    
C46   H8    S    
O3    V1    S    
O30   C54   S    
C50   H19   S    
O15   V3    S    
C23   F3    S    
C52   H24   S    
C12   C14   A    
O22   C46   S    
O3    C1    A    
C47   H11   S    
C8    C30   A    
C16   C18   A    
C25   O29   S    
C13   C15   A    
O27   C51   S    
C14   C16   A    
C53   H29   S    
O19   V4    S    
O13   V3    S    
C24   C26   A    
O7    V1    S    
C1    O8    A    
O8    V2    S    
C48   H14   S    
O24   C48   S    
C51   H22   S    
O12   C44   A    
C4    C7    S    
O5    V1    S    
O26   C50   S    
C21   C23   A    
C19   C27   A    
C52   H26   S    
C22   C24   A    
C20   C28   A    
C5    C29   A    
C54   H31   S    
O11   V4    S    
C14   H2    S    
O15   C43   A    
C11   C13   A    
C6    O22   S    
O12   V3    S    
O9    V2    S    
C17   C25   A    
C5    O21   S    
O10   V1    S    
O19   V3    S    
C7    C29   A    
C51   H23   S    
