data_mof_unit_27473.cif
_audit_creation_date              2012-12-10T17:59:45-0500
_audit_creation_method            fapswitch 2.2
_symmetry_space_group_name_H-M    P1
_symmetry_Int_Tables_number       1
_space_group_crystal_system       triclinic
_cell_length_a                    10.833003
_cell_length_b                    9.586227
_cell_length_c                    15.875878
_cell_angle_alpha                 88.358029
_cell_angle_beta                  91.374729
_cell_angle_gamma                 90.546388
_cell_volume                      1647.45634687

loop_
_atom_site_label
_atom_site_type_symbol
_atom_type_description
_atom_site_fract_x
_atom_site_fract_y
_atom_site_fract_z
_atom_type_partial_charge
C1    C     C_R   0.262173 0.499513 0.500017 0.775455
C2    C     C_3   0.623822 0.551886 0.951801 -0.450998
C3    C     C_3   0.631843 0.537372 0.050267 -0.027135
C4    C     C_1   0.503752 0.486353 0.824991 -0.049830
C5    C     C_1   0.494743 0.502004 0.175162 -0.113731
C6    C     C_1   0.495673 0.505641 0.250666 -0.209967
C7    C     C_R   0.058705 0.395273 0.457877 -0.015940
C8    C     C_R   0.064557 0.604089 0.543311 -0.032399
C9    C     C_R   0.930934 0.396386 0.458986 -0.207220
C10   C     C_R   0.936524 0.605418 0.541241 -0.207777
C11   C     C_R   0.870281 0.501293 0.499990 -0.041361
C12   C     C_R   0.127349 0.499113 0.500629 -0.119247
C13   C     C_R   0.432184 0.075921 0.441608 -0.023819
C14   C     C_R   0.431082 0.927772 0.442088 -0.021576
C15   C     C_R   0.498328 0.501890 0.340317 0.825314
C16   C     C_R   0.572215 0.924041 0.556804 0.048310
C17   C     C_R   0.571920 0.072860 0.556873 0.029830
C18   C     C_R   0.737246 0.500555 0.500231 0.813844
C19   C     C_R   0.501040 0.497918 0.659717 0.841005
C20   C     C_3   0.394203 0.601848 0.039933 0.201836
C21   C     C_3   0.468732 0.331660 0.052943 0.220387
C22   C     C_3   0.492161 0.334584 0.954174 -0.469829
C23   C     C_3   0.386767 0.566498 0.944191 -0.381527
C24   C     C_1   0.502964 0.491800 0.749412 -0.145386
C25   C     C_3   0.496316 0.492709 0.082946 0.144723
C26   C     C_3   0.502032 0.485393 0.917306 0.198335
Cu1   Cu    Cu3+1 0.500020 0.640660 0.500000 0.972716
Cu2   Cu    Cu3+1 0.500020 0.359340 0.500000 0.965881
H1    H     H_    0.304473 0.501964 0.928488 0.148930
H2    H     H_    0.418544 0.278337 0.918290 0.163700
H3    H     H_    0.578225 0.279623 0.938529 0.173163
H4    H     H_    0.375111 0.661609 0.903793 0.184741
H5    H     H_    0.630546 0.662149 0.928761 0.169729
H6    H     H_    0.703658 0.500425 0.922704 0.179775
H7    H     H_    0.878272 0.316916 0.426086 0.151594
H8    H     H_    0.888447 0.685789 0.573593 0.169637
H9    H     H_    0.380068 0.132709 0.393457 0.156078
H10   H     H_    0.375629 0.874035 0.395403 0.130024
N1    N     N_R   0.500030 0.852070 0.500020 -0.181181
N2    N     N_R   0.500030 0.147930 0.500020 -0.186071
O1    O     O_R   0.319660 0.618740 0.500000 -0.575612
O2    O     O_R   0.319660 0.381260 0.500000 -0.568958
O3    O     O_R   0.500020 0.618840 0.379440 -0.577408
O4    O     O_R   0.500020 0.381160 0.379440 -0.592199
O5    O     O_R   0.680370 0.618830 0.500010 -0.583331
O6    O     O_R   0.680370 0.381170 0.500010 -0.582848
O7    O     O_R   0.500010 0.618730 0.620560 -0.566809
O8    O     O_R   0.500010 0.381270 0.620560 -0.573119
C27   C     C_1   0.650682 0.849330 0.617107 0.286678
N3    N     N_1   0.713540 0.791136 0.666233 -0.313633
C28   C     C_1   0.651076 0.145289 0.616038 0.299348
N4    N     N_1   0.715085 0.202170 0.663633 -0.289198
C29   C     C_3   0.264466 0.594353 0.085905 -0.371369
C30   C     C_3   0.143190 0.593620 0.030969 -0.408620
C31   C     C_3   0.036255 0.658289 0.076683 -0.783250
H11   H     H_    0.020301 0.600894 0.137294 0.262452
H12   H     H_    0.056397 0.769741 0.089163 0.245880
H13   H     H_    0.950893 0.652302 0.036772 0.255725
H14   H     H_    0.152703 0.649080 0.969355 0.220254
H15   H     H_    0.114560 0.485733 0.016208 0.218950
H16   H     H_    0.259073 0.505882 0.130840 0.199654
H17   H     H_    0.259688 0.682046 0.130152 0.202721
C32   C     C_3   0.331319 0.277617 0.062456 -0.401536
C33   C     C_3   0.284954 0.233663 0.150567 -0.378193
C34   C     C_3   0.145084 0.210506 0.147903 -0.817763
H18   H     H_    0.096770 0.310864 0.135540 0.267416
H19   H     H_    0.118472 0.136388 0.097934 0.249600
H20   H     H_    0.114478 0.165565 0.209073 0.267629
H21   H     H_    0.327357 0.132933 0.171061 0.219190
H22   H     H_    0.308215 0.311718 0.198549 0.227603
H23   H     H_    0.266422 0.347510 0.029824 0.201430
H24   H     H_    0.319274 0.182592 0.025210 0.192140
C35   C     C_3   0.552693 0.209870 0.093706 -0.369409
C36   C     C_3   0.584159 0.208221 0.189343 -0.347959
C37   C     C_3   0.643344 0.070514 0.218305 -0.809848
H25   H     H_    0.578229 0.982153 0.207692 0.250960
H26   H     H_    0.729393 0.053482 0.183493 0.278168
H27   H     H_    0.666779 0.073374 0.286741 0.244481
H28   H     H_    0.650521 0.292623 0.204823 0.244277
H29   H     H_    0.501707 0.221973 0.227508 0.223502
H30   H     H_    0.507340 0.108293 0.080547 0.201389
H31   H     H_    0.640394 0.199149 0.060430 0.204231
C38   C     C_3   0.435732 0.761260 0.045005 -0.366071
C39   C     C_3   0.343456 0.874715 0.011840 -0.383135
C40   C     C_3   0.388506 0.956423 0.933612 -0.873129
H32   H     H_    0.475988 0.012750 0.948126 0.248215
H33   H     H_    0.404607 0.886604 0.880688 0.262604
H34   H     H_    0.317617 0.033113 0.912010 0.241273
H35   H     H_    0.251458 0.833434 0.996220 0.248764
H36   H     H_    0.329416 0.949160 0.062832 0.204098
H37   H     H_    0.459237 0.783470 0.111922 0.172678
H38   H     H_    0.519423 0.782264 0.009198 0.223749
C41   C     C_1   0.681962 0.666492 0.087712 0.181489
N5    N     N_1   0.722151 0.766804 0.117164 -0.308399
C42   C     C_1   0.732095 0.439263 0.073487 0.215670
N6    N     N_1   0.814071 0.366395 0.091018 -0.319365
C43   C     C_1   0.114776 0.288666 0.409608 0.261160
N7    N     N_1   0.157929 0.202441 0.370615 -0.339175
C44   C     C_1   0.128038 0.708874 0.592348 0.269323
N8    N     N_1   0.178716 0.792710 0.631617 -0.272382

loop_
_geom_bond_atom_site_label_1
_geom_bond_atom_site_label_2
_ccdc_geom_bond_type
C31   H11   S    
C11   C18   S    
C41   N5    T    
C35   C36   S    
C42   N6    T    
C17   C28   S    
C43   N7    T    
C30   H15   S    
C29   C30   S    
C38   H38   S    
Cu2   O6    S    
C23   H1    S    
C8    C44   S    
C15   O4    A    
C5    C6    T    
C4    C24   T    
C19   O7    A    
C20   C25   S    
Cu2   N2    S    
C21   C35   S    
C23   C26   S    
C13   N2    A    
C14   N1    A    
C29   H16   S    
C44   N8    T    
Cu1   N1    S    
C16   C17   A    
C34   H19   S    
C33   H22   S    
C22   H2    S    
C13   H9    S    
C2    H6    S    
C6    C15   S    
C36   H29   S    
C21   C22   S    
C1    C12   S    
C39   H36   S    
C18   O6    A    
C35   H30   S    
C30   H14   S    
C40   H33   S    
C7    C12   A    
C36   C37   S    
C28   N4    T    
C3    C25   S    
C39   C40   S    
C2    C26   S    
C22   H3    S    
C19   O8    A    
C40   H32   S    
Cu2   O4    S    
C17   N2    A    
C37   H25   S    
C14   H10   S    
C9    C11   A    
C29   H17   S    
Cu1   O1    S    
C38   C39   S    
C20   C23   S    
C8    C12   A    
C34   H20   S    
C3    C41   S    
C33   H21   S    
C16   C27   S    
C37   H26   S    
C5    C25   S    
C2    H5    S    
C1    O1    A    
C32   H23   S    
C27   N3    T    
C36   H28   S    
C31   H12   S    
C31   H13   S    
C39   H35   S    
C18   O5    A    
C35   H31   S    
C40   H34   S    
Cu1   O7    S    
C7    C9    A    
C21   C25   S    
C30   C31   S    
Cu2   O8    S    
C7    C43   S    
C20   C29   S    
C4    C26   S    
C38   H37   S    
C23   H4    S    
C19   C24   S    
C15   O3    A    
C33   C34   S    
Cu1   O5    S    
Cu2   O2    S    
C10   H8    S    
C2    C3    S    
C37   H27   S    
C21   C32   S    
C10   C11   A    
C16   N1    A    
C32   C33   S    
Cu1   O3    S    
C1    O2    A    
C32   H24   S    
C8    C10   A    
C34   H18   S    
C22   C26   S    
C20   C38   S    
Cu1   Cu2   S    
C9    H7    S    
C3    C42   S    
C13   C14   A    
