data_mof_unit_38276.cif
_audit_creation_date              2012-12-10T18:04:30-0500
_audit_creation_method            fapswitch 2.2
_symmetry_space_group_name_H-M    P1
_symmetry_Int_Tables_number       1
_space_group_crystal_system       triclinic
_cell_length_a                    10.82886
_cell_length_b                    9.647151
_cell_length_c                    9.068832
_cell_angle_alpha                 90.001587
_cell_angle_beta                  92.834898
_cell_angle_gamma                 90.000051
_cell_volume                      946.240115884

loop_
_atom_site_label
_atom_site_type_symbol
_atom_type_description
_atom_site_fract_x
_atom_site_fract_y
_atom_site_fract_z
_atom_type_partial_charge
C1    C     C_R   0.262434 0.499944 0.499889 0.777640
C2    C     C_R   0.063871 0.625487 0.500778 -0.138143
C3    C     C_R   0.871606 0.499694 0.499861 -0.043822
C4    C     C_R   0.128394 0.499692 0.500159 -0.043829
C5    C     C_R   0.425701 0.074149 0.400655 0.065994
C6    C     C_R   0.582055 0.926145 0.590585 0.080048
C7    C     C_R   0.574295 0.074166 0.599340 0.066037
C8    C     C_R   0.417943 0.926134 0.409431 0.080070
C9    C     C_2   0.357170 0.146514 0.277828 0.502366
C10   C     C_2   0.684169 0.854648 0.675465 0.441260
C11   C     C_2   0.642792 0.146574 0.722149 0.503134
C12   C     C_R   0.737566 0.499944 0.500117 0.777641
C13   C     C_2   0.315811 0.854640 0.324617 0.442230
C14   C     C_R   0.499677 0.499988 0.220989 0.832923
C15   C     C_R   0.500323 0.499991 0.779011 0.832938
C16   C     C_1   0.499879 0.499958 0.065632 -0.134696
C17   C     C_1   0.500121 0.499962 0.934368 -0.134586
C18   C     C_R   0.063908 0.373706 0.499717 -0.154477
C19   C     C_R   0.936136 0.625490 0.499551 -0.138343
C20   C     C_R   0.936086 0.373707 0.500012 -0.154476
Cu1   Cu    Cu3+1 0.500000 0.640660 0.500000 0.943794
Cu2   Cu    Cu3+1 0.500000 0.359340 0.500000 0.954739
H1    H     H_    0.111884 0.275186 0.499347 0.168358
H2    H     H_    0.888305 0.723963 0.498242 0.198141
H3    H     H_    0.888105 0.275188 0.500141 0.168346
H4    H     H_    0.111708 0.723956 0.502340 0.198220
H5    H     H_    0.302582 0.237536 0.296057 0.087948
H6    H     H_    0.670913 0.757783 0.730851 0.117775
H7    H     H_    0.697764 0.237310 0.703791 0.087527
H8    H     H_    0.329140 0.757973 0.268859 0.117438
N1    N     N_R   0.500000 0.852070 0.500000 -0.260238
N2    N     N_R   0.500000 0.147930 0.500000 -0.264145
O1    O     O_R   0.319640 0.618740 0.499990 -0.601286
O2    O     O_2   0.787777 0.904960 0.683680 -0.573222
O3    O     O_2   0.637899 0.103815 0.848485 -0.524347
O4    O     O_2   0.212130 0.904794 0.316793 -0.573103
O5    O     O_R   0.680360 0.381260 0.500010 -0.611733
O6    O     O_R   0.680360 0.618740 0.500010 -0.601400
O7    O     O_R   0.319640 0.381260 0.499990 -0.611738
O8    O     O_R   0.500000 0.618760 0.288390 -0.602448
O9    O     O_R   0.500000 0.381240 0.711610 -0.575650
O10   O     O_R   0.500000 0.618760 0.711610 -0.602507
O11   O     O_R   0.500000 0.381240 0.288390 -0.575874
O12   O     O_2   0.361598 0.103412 0.151599 -0.524502

loop_
_geom_bond_atom_site_label_1
_geom_bond_atom_site_label_2
_ccdc_geom_bond_type
C6    C10   S    
C5    C8    A    
C2    C4    A    
C5    C9    S    
C6    C7    A    
C7    N2    A    
Cu2   O11   S    
C9    H5    S    
C1    C4    S    
C4    C18   A    
C3    C19   A    
C5    N2    A    
C11   O3    D    
C19   H2    S    
C1    O1    A    
C3    C20   A    
C10   O2    D    
Cu1   Cu2   S    
C7    C11   S    
Cu1   N1    S    
C15   O9    A    
C8    C13   S    
Cu1   O8    S    
Cu2   N2    S    
Cu2   O7    S    
C8    N1    A    
C6    N1    A    
C18   C20   A    
C12   O6    A    
C14   C16   S    
Cu2   O9    S    
Cu1   O1    S    
C20   H3    S    
C1    O7    A    
C14   O8    A    
Cu1   O10   S    
C13   H8    S    
C11   H7    S    
C13   O4    D    
C2    H4    S    
C10   H6    S    
C12   O5    A    
C15   C17   S    
C16   C17   T    
C9    O12   D    
C3    C12   S    
C2    C19   A    
Cu2   O5    S    
Cu1   O6    S    
C18   H1    S    
C15   O10   A    
C14   O11   A    
