data_mof_unit_14088.cif
_audit_creation_date              2012-12-10T17:36:34-0500
_audit_creation_method            fapswitch 2.2
_symmetry_space_group_name_H-M    P1
_symmetry_Int_Tables_number       1
_space_group_crystal_system       triclinic
_cell_length_a                    11.978501
_cell_length_b                    12.996296
_cell_length_c                    15.718335
_cell_angle_alpha                 90.125596
_cell_angle_beta                  86.647265
_cell_angle_gamma                 91.438174
_cell_volume                      2442.01144386

loop_
_atom_site_label
_atom_site_type_symbol
_atom_type_description
_atom_site_fract_x
_atom_site_fract_y
_atom_site_fract_z
_atom_type_partial_charge
C1    C     C_R   0.519833 0.700052 0.499424 0.949305
C2    C     C_R   0.547837 0.022485 0.518511 -0.201057
C3    C     C_R   0.958872 0.422854 0.406651 0.467943
C4    C     C_R   0.041129 0.577156 0.593346 0.467948
C5    C     C_R   0.841410 0.429485 0.417090 -0.114865
C6    C     C_R   0.158592 0.570516 0.582910 -0.114896
C7    C     C_R   0.855701 0.528678 0.542739 -0.019464
C8    C     C_R   0.144299 0.471326 0.457260 -0.019473
C9    C     C_R   0.973961 0.526563 0.534655 -0.105716
C10   C     C_R   0.026039 0.473442 0.465344 -0.105737
C11   C     C_R   0.500579 0.500088 0.662195 0.906970
C12   C     C_R   0.480167 0.299948 0.500576 0.949305
C13   C     C_R   0.499421 0.499913 0.337805 0.906969
C14   C     C_3   0.431171 0.573071 0.030833 -0.155169
C15   C     C_3   0.568829 0.426931 0.969167 -0.155167
C16   C     C_3   0.536398 0.592720 0.970701 -0.163946
C17   C     C_3   0.463602 0.407282 0.029299 -0.163944
C18   C     C_1   0.501697 0.500087 0.751123 -0.166810
C19   C     C_1   0.498303 0.499913 0.248877 -0.166806
C20   C     C_3   0.395868 0.480397 0.975720 -0.157978
C21   C     C_3   0.604132 0.519605 0.024280 -0.157976
C22   C     C_3   0.501090 0.500045 0.917390 0.197015
C23   C     C_R   0.629885 0.960134 0.552566 0.597534
C24   C     C_3   0.498910 0.499956 0.082610 0.197015
C25   C     C_1   0.501842 0.500081 0.826458 -0.067303
C26   C     C_1   0.498158 0.499920 0.173542 -0.067302
C27   C     C_R   0.471948 0.189729 0.495081 -0.246049
C28   C     C_R   0.528048 0.810271 0.504921 -0.246050
C29   C     C_3   0.738677 0.177354 0.475423 -0.204386
C30   C     C_3   0.261318 0.822634 0.524574 -0.204340
C31   C     C_3   0.816346 0.959434 0.588893 -0.329714
C32   C     C_3   0.183636 0.040580 0.411123 -0.329754
C33   C     C_3   0.987174 0.267981 0.341805 -0.380459
C34   C     C_R   0.370099 0.039867 0.447445 0.597539
C35   C     C_3   0.012907 0.732028 0.658223 -0.380435
C36   C     C_R   0.619884 0.853968 0.542609 -0.418232
C37   C     C_R   0.380106 0.146033 0.457400 -0.418233
C38   C     C_R   0.439524 0.870459 0.480638 0.517536
C39   C     C_R   0.560469 0.129541 0.519365 0.517547
C40   C     C_R   0.452151 0.977515 0.481496 -0.201061
H1    H     H_    0.566211 0.668463 0.944546 0.142222
H2    H     H_    0.291323 0.781321 0.580437 0.129683
H3    H     H_    0.184671 0.781850 0.504721 0.173551
H4    H     H_    0.237652 0.901462 0.544706 0.135979
H5    H     H_    0.319600 0.195870 0.431364 0.188091
H6    H     H_    0.680389 0.804133 0.568649 0.188098
H7    H     H_    0.835474 0.939169 0.520764 0.134910
H8    H     H_    0.822515 0.891035 0.630368 0.164286
H9    H     H_    0.881404 0.016239 0.607093 0.193221
H10   H     H_    0.177481 0.108985 0.369653 0.164266
H11   H     H_    0.164505 0.060839 0.479253 0.134917
H12   H     H_    0.433789 0.331539 0.055454 0.142221
H13   H     H_    0.118569 0.983787 0.392915 0.193225
H14   H     H_    0.186180 0.429902 0.405346 0.182015
H15   H     H_    0.813819 0.570100 0.594653 0.182021
H16   H     H_    0.210737 0.605193 0.629557 0.146203
H17   H     H_    0.789268 0.394802 0.370443 0.146212
H18   H     H_    0.009835 0.236797 0.404328 0.144944
H19   H     H_    0.039796 0.229370 0.291499 0.206101
H20   H     H_    0.898510 0.248459 0.330276 0.157173
H21   H     H_    0.960278 0.770654 0.708515 0.206094
H22   H     H_    0.990324 0.763255 0.595694 0.144929
H23   H     H_    0.374874 0.632742 0.058234 0.146881
H24   H     H_    0.101571 0.751487 0.669799 0.157182
H25   H     H_    0.625126 0.367259 0.941766 0.146881
H26   H     H_    0.689208 0.535629 0.046344 0.145088
H27   H     H_    0.310792 0.464372 0.953656 0.145086
H28   H     H_    0.815331 0.218127 0.495277 0.173552
H29   H     H_    0.708678 0.218673 0.419562 0.129700
H30   H     H_    0.762330 0.098522 0.455290 0.135969
N1    N     N_R   0.207800 0.519340 0.515560 -0.129163
N2    N     N_R   0.792200 0.480660 0.484440 -0.129171
O1    O     O_R   0.421700 0.658830 0.504150 -0.584152
O2    O     O_3   0.341687 0.823847 0.454848 -0.532512
O3    O     O_3   0.710470 0.004147 0.603033 -0.543017
O4    O     O_3   0.289505 0.995854 0.396986 -0.543013
O5    O     O_3   0.008373 0.375008 0.335803 -0.601384
O6    O     O_3   0.991623 0.625011 0.664189 -0.601395
O7    O     O_R   0.578300 0.341170 0.495850 -0.584148
O8    O     O_R   0.609310 0.646410 0.494170 -0.631188
O9    O     O_R   0.390690 0.353590 0.505830 -0.631193
O10   O     O_R   0.406210 0.506220 0.628210 -0.628328
O11   O     O_R   0.593790 0.493780 0.371790 -0.628326
O12   O     O_R   0.593830 0.493800 0.618230 -0.610796
O13   O     O_R   0.406170 0.506200 0.381770 -0.610796
O14   O     O_3   0.658309 0.176151 0.545151 -0.532512
Zn1   Zn    Zn3+2 0.374730 0.508290 0.506660 0.965043
Zn2   Zn    Zn3+2 0.625270 0.491710 0.493340 0.965050

loop_
_geom_bond_atom_site_label_1
_geom_bond_atom_site_label_2
_ccdc_geom_bond_type
C11   C18   S    
C33   H18   S    
C21   H26   S    
C34   C37   A    
C20   H27   S    
C7    H15   S    
C6    H16   S    
C16   C21   S    
C34   C40   A    
C24   C26   S    
C5    N2    A    
C30   O2    S    
O10   Zn1   S    
C15   H25   S    
C12   O7    A    
C17   C20   S    
C15   C17   S    
C14   C24   S    
C19   C26   T    
O1    Zn1   S    
C2    C39   A    
C15   C22   S    
C27   C39   A    
C22   C25   S    
C1    C28   S    
C36   H6    S    
C35   H24   S    
C9    C10   A    
O11   Zn2   S    
C33   H19   S    
C31   H7    S    
C30   H4    S    
C18   C25   T    
C31   H9    S    
C17   H12   S    
O7    Zn2   S    
N2    Zn2   S    
C29   H29   S    
O13   Zn1   S    
C11   O10   A    
C6    N1    A    
C17   C24   S    
C13   C19   S    
C12   C27   S    
C14   C20   S    
C4    C6    A    
C8    H14   S    
C7    N2    A    
C32   H11   S    
C4    O6    S    
C29   H28   S    
C31   O3    S    
C28   C38   A    
C35   H21   S    
C32   H10   S    
C29   O14   S    
O9    Zn1   S    
N1    Zn1   S    
C20   C22   S    
C33   H20   S    
C31   H8    S    
C14   C16   S    
C30   H3    S    
C37   H5    S    
C3    O5    S    
C32   H13   S    
C29   H30   S    
C38   O2    S    
C7    C9    A    
C8    N1    A    
C16   C22   S    
O12   Zn2   S    
C23   O3    S    
C3    C5    A    
C32   O4    S    
C11   O12   A    
C13   O11   A    
C35   O6    S    
C5    H17   S    
C1    O1    A    
O8    Zn2   S    
C3    C10   A    
C38   C40   A    
C33   O5    S    
C27   C37   A    
C14   H23   S    
C12   O9    A    
C35   H22   S    
C2    C40   A    
C15   C21   S    
C28   C36   A    
C8    C10   A    
C23   C36   A    
C21   C24   S    
C13   O13   A    
C2    C23   A    
C1    O8    A    
C30   H2    S    
C39   O14   S    
C4    C9    A    
C16   H1    S    
C34   O4    S    
