data_mof_unit_39212.cif
_audit_creation_date              2013-03-05T15:41:04-0500
_audit_creation_method            fapswitch 2.2
_symmetry_space_group_name_H-M    P1
_symmetry_Int_Tables_number       1
_space_group_crystal_system       triclinic
_cell_length_a                    10.931384
_cell_length_b                    10.937433
_cell_length_c                    18.587325
_cell_angle_alpha                 90.585979
_cell_angle_beta                  89.827958
_cell_angle_gamma                 60.126294
_cell_volume                      1926.8491653

loop_
_atom_site_label
_atom_site_type_symbol
_atom_site_description
_atom_site_fract_x
_atom_site_fract_y
_atom_site_fract_z
_atom_type_partial_charge
O1    O     O_R   0.507110 0.256280 0.580300 -0.525771
O2    O     O_R   0.280830 0.527190 0.577940 -0.502869
C1    C     C_R   0.239078 0.644462 0.609820 0.542524
O3    O     O_R   0.261360 0.738990 0.584270 -0.518193
O4    O     O_R   0.532590 0.694780 0.574370 -0.507290
C2    C     C_R   0.657376 0.626282 0.599334 0.534412
O5    O     O_R   0.744470 0.503750 0.577000 -0.529496
O6    O     O_R   0.698520 0.277230 0.571620 -0.498217
C3    C     C_R   0.627978 0.228524 0.602215 0.542213
O7    O     O_R   0.498530 0.256920 0.419280 -0.507197
O8    O     O_R   0.272880 0.527780 0.428680 -0.497499
C4    C     C_R   0.214652 0.651702 0.404968 0.570610
O9    O     O_R   0.252780 0.739630 0.423250 -0.497843
O10   O     O_R   0.524640 0.695370 0.425100 -0.478556
C5    C     C_R   0.642309 0.621666 0.392895 0.543745
O11   O     O_R   0.735890 0.504390 0.415980 -0.521252
O12   O     O_R   0.690560 0.277820 0.422350 -0.504987
C6    C     C_R   0.621832 0.221794 0.397720 0.558458
Cr1   Cr    Cr6+3 0.393010 0.398050 0.501480 1.019402
Cr2   Cr    Cr6+3 0.398820 0.707980 0.501630 1.031403
Cr3   Cr    Cr6+3 0.708140 0.393940 0.496850 1.012072
O13   O     O_3   0.499990 0.499990 0.499980 -0.245939
C7    C     C_3   0.642067 0.841098 0.769225 -0.235297
H1    H     H_    0.700991 0.899702 0.770789 0.116911
H2    H     H_    0.539602 0.907196 0.797678 0.148299
C8    C     C_3   0.612578 0.818796 0.690062 -0.246872
H3    H     H_    0.496635 0.870493 0.681796 0.133980
H4    H     H_    0.654505 0.869057 0.653218 0.113194
H5    H     H_    0.932936 0.667353 0.769432 0.118776
H6    H     H_    0.890023 0.641163 0.651508 0.119645
C9    C     C_3   0.871229 0.611665 0.765919 -0.243689
C10   C     C_3   0.646743 0.615305 0.803079 -0.226021
C11   C     C_3   0.729572 0.696050 0.806998 0.050827
H7    H     H_    0.706331 0.511109 0.829630 0.144806
H8    H     H_    0.543582 0.676055 0.831783 0.129799
C12   C     C_3   0.683401 0.658807 0.673087 0.060261
C13   C     C_3   0.844752 0.591767 0.686827 -0.235123
C14   C     C_3   0.621244 0.592094 0.724565 -0.228209
H9    H     H_    0.505739 0.639082 0.715791 0.128281
H10   H     H_    0.670612 0.476799 0.713498 0.133466
H11   H     H_    0.934575 0.506413 0.790512 0.151721
H12   H     H_    0.901804 0.476646 0.674331 0.139728
C15   C     C_2   0.675434 0.159706 0.671511 -0.128133
C16   C     C_2   0.685944 0.172066 0.829236 -0.121754
C17   C     C_2   0.797353 0.133759 0.785443 -0.181250
C18   C     C_2   0.777162 0.167065 0.708561 -0.178361
H13   H     H_    0.904478 0.072235 0.805107 0.151281
H14   H     H_    0.843964 0.201922 0.683203 0.151453
H15   H     H_    0.579379 0.235042 0.808940 0.115031
H16   H     H_    0.612684 0.120012 0.696907 0.103826
C19   C     C_2   0.195396 0.654464 0.684954 -0.137784
C20   C     C_2   0.208469 0.656197 0.842594 -0.130689
C21   C     C_2   0.236328 0.539284 0.804326 -0.052064
C22   C     C_2   0.261758 0.538323 0.726130 -0.177120
H17   H     H_    0.336431 0.437332 0.701678 0.157414
H18   H     H_    0.227498 0.734822 0.817667 0.096605
H19   H     H_    0.121571 0.757073 0.707925 0.094544
C23   C     C_2   0.652234 0.645818 0.317259 -0.056071
C24   C     C_2   0.626298 0.659733 0.156653 0.188412
C25   C     C_2   0.709367 0.544876 0.195294 -0.162404
C26   C     C_2   0.688744 0.536040 0.271848 -0.104010
H20   H     H_    0.809477 0.461829 0.173918 0.129185
H21   H     H_    0.719002 0.431889 0.292102 0.145555
H22   H     H_    0.621942 0.750796 0.298482 0.113895
C27   C     C_2   0.676599 0.134459 0.334197 -0.118059
C28   C     C_2   0.652132 0.145293 0.179812 -0.096987
C29   C     C_2   0.613021 0.071267 0.222081 -0.147145
C30   C     C_2   0.595920 0.095161 0.298880 -0.162472
H23   H     H_    0.586001 0.995800 0.199522 0.191572
H24   H     H_    0.504917 0.097467 0.324043 0.169268
H25   H     H_    0.680303 0.220887 0.200881 0.094373
H26   H     H_    0.772371 0.123214 0.309874 0.096013
C31   C     C_2   0.119440 0.681978 0.345936 -0.105987
C32   C     C_2   0.112603 0.692135 0.191197 -0.045624
C33   C     C_2   0.039854 0.805473 0.234893 -0.122375
C34   C     C_2   0.071288 0.801707 0.310606 -0.141999
H27   H     H_    0.966920 0.908432 0.213229 0.151433
H28   H     H_    0.074563 0.891781 0.333597 0.162641
H29   H     H_    0.187274 0.587957 0.210584 0.106026
H30   H     H_    0.107297 0.595878 0.324289 0.104673
O14   O     O_R   0.089190 0.825870 0.932320 -0.516109
O15   O     O_R   0.819070 0.053960 0.931440 -0.494629
C35   C     C_R   0.702519 0.103510 0.898063 0.537960
O16   O     O_R   0.607070 0.076440 0.916460 -0.530544
O17   O     O_R   0.647110 0.806550 0.917690 -0.510020
C36   C     C_R   0.757576 0.712222 0.883143 0.552123
O18   O     O_R   0.837080 0.593860 0.915300 -0.516078
O19   O     O_R   0.064770 0.636080 0.932550 -0.502489
C37   C     C_R   0.122433 0.704157 0.908414 0.531069
O20   O     O_R   0.068250 0.829200 0.092940 -0.483199
O21   O     O_R   0.799650 0.057040 0.080330 -0.502149
C38   C     C_R   0.675271 0.106028 0.105119 0.541922
O22   O     O_R   0.586130 0.079760 0.077080 -0.508185
O23   O     O_R   0.627700 0.809630 0.066580 -0.451637
C39   C     C_R   0.691099 0.688362 0.094578 0.546022
O24   O     O_R   0.816140 0.597180 0.075920 -0.535993
O25   O     O_R   0.045360 0.639170 0.081440 -0.507175
C40   C     C_R   0.086764 0.713360 0.115386 0.561657
Cr4   Cr    Cr6+3 0.937950 0.938450 0.008940 1.031071
Cr5   Cr    Cr6+3 0.626180 0.937030 0.994750 1.026564
Cr6   Cr    Cr6+3 0.937790 0.625760 0.001410 1.016216
O26   O     O_3   0.833980 0.833750 0.001700 -0.273997
C41   C     C_R   0.246641 0.409507 0.836794 0.053354
C42   C     C_R   0.211457 0.322174 0.795995 -0.117796
C43   C     C_R   0.219316 0.201821 0.826022 -0.132167
C44   C     C_R   0.263168 0.166291 0.896935 -0.091991
C45   C     C_R   0.301726 0.249651 0.937496 -0.068359
C46   C     C_R   0.297572 0.368053 0.907094 -0.053157
H31   H     H_    0.175276 0.348184 0.741168 0.104192
H32   H     H_    0.190522 0.136525 0.794363 0.103052
H33   H     H_    0.268504 0.073483 0.920243 0.116939
H34   H     H_    0.337579 0.220947 0.992164 0.135513
H35   H     H_    0.332951 0.427927 0.938825 0.107262
N1    N     N_R   0.482493 0.757688 0.178793 0.062420
O27   O     O_R   0.409735 0.713150 0.214309 -0.339095
O28   O     O_R   0.418991 0.887968 0.157780 -0.339698

loop_
_geom_bond_atom_site_label_1
_geom_bond_atom_site_label_2
_geom_bond_distance
_ccdc_geom_bond_type
C16   H15   1.087380 S    
O24   Cr6   2.048425 S    
C43   H32   1.082523 S    
Cr6   O26   1.972539 S    
O15   Cr4   1.942403 S    
C39   O24   1.270955 A    
C11   C36   1.476337 S    
C16   C35   1.455126 S    
N1    O27   1.301953 A    
C32   C40   1.436331 S    
O4    Cr2   1.947487 S    
C21   C22   1.477926 S    
C20   C21   1.351311 D    
C6    C27   1.438042 S    
O8    Cr1   1.939737 S    
C8    H3    1.112974 S    
O11   Cr3   2.051907 S    
O4    C2    1.276785 A    
C12   C13   1.559495 S    
C34   H28   1.086785 S    
O17   C36   1.294465 A    
C42   H31   1.082666 S    
C44   C45   1.395702 A    
C5    O11   1.258034 A    
C25   H20   1.086400 S    
C45   H34   1.082150 S    
C7    C8    1.549942 S    
C13   H12   1.113188 S    
C26   H21   1.087639 S    
O18   Cr6   2.068160 S    
C28   H25   1.086064 S    
O6    C3    1.270668 A    
C7    C11   1.562013 S    
C45   C46   1.398220 A    
C9    C11   1.545154 S    
C41   C46   1.409960 A    
C19   H19   1.085805 S    
C10   C14   1.528811 S    
O14   C37   1.267557 A    
C23   C26   1.346575 D    
C28   C29   1.345900 D    
C24   C25   1.343331 D    
Cr3   O13   1.973515 S    
C21   C41   1.500070 S    
C20   C37   1.464560 S    
C24   C39   1.467832 S    
C42   C43   1.397970 A    
O25   C40   1.272211 A    
C44   H33   1.082434 S    
C17   H13   1.086430 S    
C23   H22   1.086245 S    
C18   H14   1.086131 S    
O1    Cr1   2.058454 S    
C3    C15   1.459296 S    
C32   C33   1.349900 D    
C29   C30   1.443274 S    
O16   Cr5   2.053319 S    
C10   H8    1.113791 S    
O10   Cr2   1.931178 S    
Cr1   O13   1.977586 S    
O1    C3    1.268854 A    
O21   C38   1.270228 A    
C1    C19   1.459831 S    
C36   O18   1.298708 A    
C28   C38   1.432956 S    
O14   Cr4   2.049330 S    
O5    Cr3   2.064401 S    
O12   Cr3   1.943267 S    
C9    C13   1.533333 S    
H6    C13   1.113282 S    
C25   C26   1.451726 S    
C29   H23   1.086693 S    
C10   H7    1.113799 S    
C46   H35   1.082603 S    
C33   C34   1.445782 S    
C35   O16   1.265278 A    
O23   Cr5   1.933809 S    
O7    Cr1   2.053070 S    
C7    H1    1.112471 S    
C27   C30   1.329964 D    
Cr5   O26   1.975146 S    
O12   C6    1.266678 A    
C4    O9    1.267881 A    
C33   H27   1.087524 S    
O22   Cr5   2.058344 S    
C8    C12   1.548762 S    
Cr2   O13   1.972616 S    
C32   H29   1.085406 S    
C5    C23   1.446806 S    
C1    O3    1.270434 A    
O20   Cr4   2.061654 S    
C16   C17   1.341656 D    
C22   H17   1.087322 S    
C9    H11   1.110068 S    
O9    Cr2   2.065099 S    
O2    Cr1   1.934323 S    
O19   Cr6   1.930297 S    
O6    Cr3   1.934200 S    
N1    O28   1.300947 A    
O8    C4    1.261333 A    
C15   H16   1.086614 S    
C2    O5    1.260960 A    
C27   H26   1.087800 S    
C43   C44   1.395295 A    
C8    H4    1.112679 S    
C19   C22   1.353098 D    
C10   C11   1.549423 S    
C12   C14   1.553674 S    
O2    C1    1.266614 A    
H5    C9    1.113101 S    
O17   Cr5   1.942050 S    
C14   H10   1.113485 S    
C14   H9    1.114216 S    
O7    C6    1.265975 A    
C24   N1    1.448337 S    
C38   O22   1.258000 A    
C31   C34   1.325200 D    
C31   H30   1.087859 S    
C2    C12   1.476467 S    
C7    H2    1.113054 S    
O23   C39   1.269229 A    
C15   C18   1.345350 D    
O3    Cr2   2.049435 S    
C17   C18   1.468339 S    
Cr4   O26   1.978760 S    
O19   C37   1.275015 A    
C30   H24   1.086731 S    
O15   C35   1.274993 A    
C41   C42   1.410075 A    
O10   C5    1.270929 A    
O21   Cr4   1.930819 S    
C4    C31   1.438005 S    
O20   C40   1.255458 A    
O25   Cr6   1.948041 S    
C20   H18   1.087756 S    
