data_mof_unit_7392.cif
_audit_creation_date              2012-12-11T15:53:41-0500
_audit_creation_method            fapswitch 2.2
_symmetry_space_group_name_H-M    P1
_symmetry_Int_Tables_number       1
_space_group_crystal_system       triclinic
_cell_length_a                    10.670985
_cell_length_b                    10.675347
_cell_length_c                    17.102941
_cell_angle_alpha                 80.460937
_cell_angle_beta                  99.506177
_cell_angle_gamma                 118.289711
_cell_volume                      1683.44697693

loop_
_atom_site_label
_atom_site_type_symbol
_atom_type_description
_atom_site_fract_x
_atom_site_fract_y
_atom_site_fract_z
_atom_type_partial_charge
C1    C     C_R   0.383941 0.283521 0.631992 0.533908
C2    C     C_1   0.332481 0.186216 0.781334 -0.033212
C3    C     C_1   0.339008 0.662351 0.277201 0.122385
C4    C     C_R   0.378074 0.649371 0.591027 0.565672
C5    C     C_1   0.326532 0.671737 0.206525 0.086077
C6    C     C_R   0.796997 0.647885 0.148930 -0.043493
C7    C     C_R   0.786842 0.527123 0.200349 -0.083437
C8    C     C_R   0.751743 0.506834 0.276591 -0.093157
C9    C     C_R   0.709199 0.714348 0.250401 0.256303
C10   C     C_R   0.741651 0.733058 0.170574 0.186180
C11   C     C_3   0.894871 0.471703 0.226717 0.659380
C12   C     C_R   0.483271 0.733539 0.722969 0.407173
C13   C     C_3   0.856818 0.450884 0.310341 0.830127
C14   C     C_R   0.724530 0.605332 0.305028 -0.011757
C15   C     C_R   0.309868 0.138581 0.167399 -0.021863
C16   C     C_R   0.777151 0.618938 0.626943 0.556634
C17   C     C_R   0.189001 0.110752 0.202631 -0.078401
C18   C     C_R   0.195221 0.121412 0.281585 0.055670
C19   C     C_R   0.436623 0.152795 0.299997 -0.090377
C20   C     C_R   0.434267 0.151516 0.218134 0.208150
C21   C     C_3   0.076893 0.160630 0.178748 0.167319
C22   C     C_3   0.085389 0.175856 0.266707 0.602381
C23   C     C_R   0.473274 0.724410 0.803707 0.237274
C24   C     C_R   0.322992 0.154662 0.330384 -0.050867
C25   C     C_R   0.891623 0.702129 0.855739 0.566214
C26   C     C_R   0.315629 0.704158 0.900096 0.531269
C27   C     C_R   0.285973 0.118151 0.858188 0.535036
C28   C     C_R   0.350688 0.224432 0.400864 0.556088
C29   C     C_R   0.882085 0.688586 0.081944 0.564466
C30   C     C_R   0.313794 0.700149 0.123513 0.552514
C31   C     C_R   0.284604 0.106009 0.085934 0.542042
C32   C     C_R   0.366703 0.653336 0.360324 0.588905
C33   C     C_R   0.703841 0.585288 0.389303 0.584840
C34   C     C_3   0.104984 0.437593 0.782961 0.273367
C35   C     C_R   0.336965 0.656820 0.831531 -0.104631
C36   C     C_R   0.215021 0.591281 0.778497 0.025335
C37   C     C_R   0.226379 0.592485 0.699167 -0.108988
C38   C     C_3   0.116591 0.440001 0.695722 -0.184606
C39   C     C_R   0.359542 0.664256 0.670001 -0.041655
C40   C     C_1   0.823282 0.656736 0.706052 0.056622
C41   C     C_1   0.850955 0.684928 0.773630 0.075094
C42   C     C_1   0.364051 0.232844 0.714312 -0.029635
Cr1   Cr    Cr6+3 0.608440 0.389080 0.519680 1.101083
Cr2   Cr    Cr6+3 0.288640 0.400090 0.490760 1.142638
Cr3   Cr    Cr6+3 0.602940 0.710800 0.489510 1.147484
Cr4   Cr    Cr6+3 0.052530 0.947560 0.964210 1.101268
Cr5   Cr    Cr6+3 0.059970 0.626800 0.992920 1.123268
Cr6   Cr    Cr6+3 0.373320 0.938440 0.995370 1.093781
F1    F     F_    0.616607 0.801190 0.698289 -0.578423
F2    F     F_    0.793244 0.309600 0.342274 -0.579581
F3    F     F_    0.968779 0.539666 0.360638 -0.559521
F4    F     F_    0.135767 0.315908 0.282722 -0.571756
F5    F     F_    0.973343 0.421444 0.796108 -0.589197
F6    F     F_    0.034356 0.573834 0.217829 -0.608655
H1    H     H_    0.534068 0.170318 0.337718 0.230376
H2    H     H_    0.578988 0.739893 0.908545 0.307910
H3    H     H_    0.664201 0.875277 0.233288 0.386880
H4    H     H_    0.712490 0.812665 0.062789 0.334434
H5    H     H_    0.973213 0.076359 0.154497 0.199663
H6    H     H_    0.140434 0.365229 0.823715 0.128790
H7    H     H_    0.161110 0.369543 0.685318 0.117799
H8    H     H_    0.018810 0.429180 0.656285 0.208067
H9    H     H_    0.904360 0.367811 0.147003 0.374915
H10   H     H_    0.564310 0.223535 0.136675 0.336443
H11   H     H_    0.222877 0.357197 0.149833 0.335565
H12   H     H_    0.890735 0.118699 0.283690 0.398915
O1    O     O_R   0.754020 0.497590 0.609930 -0.495150
O2    O     O_R   0.406180 0.826930 0.920660 -0.485443
O3    O     O_R   0.358620 0.062870 0.901950 -0.483345
O4    O     O_R   0.481420 0.271390 0.600630 -0.468830
O5    O     O_R   0.163910 0.085460 0.050210 -0.482558
O6    O     O_R   0.935200 0.815170 0.045770 -0.491893
O7    O     O_R   0.916120 0.596690 0.069430 -0.496441
O8    O     O_R   0.192310 0.631200 0.086170 -0.445128
O9    O     O_R   0.406770 0.819480 0.096420 -0.491341
O10   O     O_R   0.359170 0.055960 0.064880 -0.492029
O11   O     O_3   0.161940 0.837600 0.984160 -0.285898
O12   O     O_R   0.295080 0.533620 0.397890 -0.420778
O13   O     O_R   0.263810 0.254550 0.589590 -0.499517
O14   O     O_R   0.300820 0.531200 0.560890 -0.522051
O15   O     O_R   0.491480 0.744020 0.564270 -0.437277
O16   O     O_R   0.726290 0.693800 0.583010 -0.463422
O17   O     O_R   0.747830 0.500190 0.434090 -0.442653
O18   O     O_R   0.475680 0.273800 0.437630 -0.528529
O19   O     O_R   0.257620 0.257160 0.413750 -0.415163
O20   O     O_3   0.857277 0.342663 0.196603 -0.616576
O21   O     O_3   0.556756 0.170440 0.190412 -0.618712
O22   O     O_3   0.123628 0.291399 0.129799 -0.665067
O23   O     O_R   0.485280 0.746620 0.388440 -0.487512
O24   O     O_3   0.959943 0.079980 0.301733 -0.625138
O25   O     O_3   0.598535 0.783910 0.853277 -0.620509
O26   O     O_3   0.669669 0.804427 0.277222 -0.646251
O27   O     O_3   0.725530 0.838329 0.117656 -0.703819
O28   O     O_R   0.720550 0.696220 0.420010 -0.423060
O29   O     O_3   0.500010 0.499990 0.499980 -0.358718
O30   O     O_R   0.163320 0.092900 0.874450 -0.505746
O31   O     O_R   0.934650 0.822080 0.882840 -0.470057
O32   O     O_R   0.915520 0.604140 0.893670 -0.473665
O33   O     O_R   0.191760 0.638110 0.923230 -0.470215

loop_
_geom_bond_atom_site_label_1
_geom_bond_atom_site_label_2
_ccdc_geom_bond_type
C8    C13   S    
H3    O26   S    
C28   O18   A    
Cr1   O17   S    
Cr6   O10   S    
Cr3   O16   S    
Cr6   O3    S    
C33   O28   A    
C14   C33   S    
C12   F1    S    
C7    C8    A    
H12   O24   S    
C7    C11   S    
C12   C23   A    
Cr5   O32   S    
C18   C24   A    
C36   C37   A    
H4    O27   S    
C21   H5    S    
C30   O8    A    
C29   O7    A    
C11   O20   S    
C20   O21   S    
Cr5   O33   S    
C13   F3    S    
H2    O25   S    
C4    O15   A    
C19   C20   A    
Cr1   O29   S    
C2    C27   S    
Cr3   O23   S    
C9    C10   A    
H10   O21   S    
Cr4   O6    S    
C27   O3    A    
C26   O33   A    
C29   O6    A    
C31   O5    A    
C21   O22   S    
C18   C22   S    
C21   C22   S    
C34   H6    S    
Cr1   O18   S    
Cr6   O9    S    
C27   O30   A    
Cr3   O28   S    
C9    O26   S    
C15   C20   A    
Cr2   O14   S    
Cr5   O7    S    
C25   C41   S    
C10   O27   S    
C17   C21   S    
C35   C36   A    
Cr6   O11   S    
C9    C14   A    
C37   C38   S    
C1    C42   S    
C32   O23   A    
C4    C39   S    
C16   O16   A    
C17   C18   A    
C22   O24   S    
C16   O1    A    
Cr6   O2    S    
C15   C31   S    
C33   O17   A    
Cr4   O5    S    
C11   F6    S    
C16   C40   S    
C25   O31   A    
C40   C41   T    
Cr4   O31   S    
Cr1   O4    S    
C23   C35   A    
H9    O20   S    
C1    O13   A    
C23   O25   S    
Cr5   O11   S    
Cr2   O19   S    
Cr3   O29   S    
H11   O22   S    
C22   F4    S    
C5    C30   S    
C19   H1    S    
C15   C17   A    
C8    C14   A    
C34   C38   S    
Cr2   O13   S    
Cr3   O15   S    
C24   C28   S    
Cr5   O8    S    
C3    C5    T    
C6    C10   A    
Cr4   O11   S    
C4    O14   A    
C6    C7    A    
C1    O4    A    
C26   O2    A    
C38   H7    S    
C12   C39   A    
Cr2   O12   S    
C19   C24   A    
C37   C39   A    
Cr2   O29   S    
C30   O9    A    
C11   C13   S    
C31   O10   A    
C2    C42   T    
C34   C36   S    
C3    C32   S    
C32   O12   A    
C13   F2    S    
C26   C35   S    
C6    C29   S    
Cr4   O30   S    
C34   F5    S    
Cr1   O1    S    
C25   O32   A    
C28   O19   A    
C38   H8    S    
