data_mof_unit_52782.cif
_audit_creation_date              2012-12-10T18:12:35-0500
_audit_creation_method            fapswitch 2.2
_symmetry_space_group_name_H-M    P1
_symmetry_Int_Tables_number       1
_space_group_crystal_system       triclinic
_cell_length_a                    12.599891
_cell_length_b                    13.065206
_cell_length_c                    15.709185
_cell_angle_alpha                 90.811274
_cell_angle_beta                  102.3091
_cell_angle_gamma                 82.630049
_cell_volume                      2505.49452498

loop_
_atom_site_label
_atom_site_type_symbol
_atom_type_description
_atom_site_fract_x
_atom_site_fract_y
_atom_site_fract_z
_atom_type_partial_charge
C1    C     C_R   0.438899 0.691746 0.492817 0.877016
C2    C     C_3   0.500218 0.502266 0.917403 0.198321
C3    C     C_3   0.452483 0.420074 0.018211 -0.168376
C4    C     C_3   0.497247 0.501559 0.082185 0.197080
C5    C     C_3   0.557163 0.414377 0.980881 -0.168189
C6    C     C_3   0.601911 0.495862 0.046606 -0.160478
C7    C     C_1   0.501593 0.502110 0.826600 -0.063575
C8    C     C_1   0.496606 0.500908 0.173117 -0.069822
C9    C     C_R   0.701785 0.067803 0.634242 -0.202134
C10   C     C_R   0.595599 0.199991 0.533597 -0.072649
C11   C     C_R   0.297157 0.841172 0.436906 0.188547
C12   C     C_R   0.500666 0.500426 0.661889 0.894288
C13   C     C_R   0.261793 0.946868 0.434929 -0.268383
C14   C     C_R   0.331120 0.015650 0.477229 0.185961
C15   C     C_R   0.439554 0.976965 0.520761 0.043117
C16   C     C_R   0.464481 0.871093 0.540824 0.006742
C17   C     C_R   0.524773 0.038880 0.544528 0.088510
C18   C     C_R   0.620076 0.003278 0.607726 0.170430
C19   C     C_R   0.631594 0.903976 0.642752 -0.250922
C20   C     C_R   0.555317 0.837768 0.608645 -0.169164
C21   C     C_R   0.520240 0.132577 0.502428 -0.219074
C22   C     C_R   0.688173 0.167338 0.598726 -0.196375
C23   C     C_R   0.560787 0.308423 0.511316 0.856460
C24   C     C_R   0.398608 0.802197 0.491714 -0.156254
C25   C     C_R   0.090796 0.341215 0.379378 -0.101764
C26   C     C_R   0.801564 0.625132 0.606889 -0.029801
C27   C     C_R   0.909746 0.637260 0.642329 -0.226968
C28   C     C_R   0.994468 0.577977 0.611832 0.000431
C29   C     C_R   0.967509 0.515585 0.536673 -0.078842
C30   C     C_R   0.856151 0.499698 0.508619 0.233669
C31   C     C_R   0.044640 0.466993 0.488983 -0.023274
C32   C     C_R   0.013440 0.391068 0.425256 0.103523
C33   C     C_R   0.904790 0.370428 0.406625 -0.288251
C34   C     C_R   0.499177 0.499924 0.338087 0.888328
C35   C     C_R   0.828006 0.424918 0.446445 -0.171434
C36   C     C_R   0.149491 0.496579 0.497358 -0.083615
C37   C     C_R   0.196282 0.369440 0.397937 0.025252
C38   C     C_3   0.440267 0.589474 0.018729 -0.154095
C39   C     C_3   0.544962 0.583769 0.981359 -0.161507
C40   C     C_1   0.501843 0.501486 0.751204 -0.173235
C41   C     C_1   0.497254 0.500336 0.248658 -0.179764
C42   C     C_3   0.395521 0.507976 0.952947 -0.144001
H1    H     H_    0.582820 0.650630 0.964134 0.138357
H2    H     H_    0.455643 0.156227 0.446439 0.178903
H3    H     H_    0.180651 0.975938 0.398473 0.147331
H4    H     H_    0.567086 0.760986 0.636563 0.154468
H5    H     H_    0.259108 0.331534 0.366654 0.177206
H6    H     H_    0.875379 0.315365 0.358375 0.138247
H7    H     H_    0.174829 0.562328 0.534628 0.148679
H8    H     H_    0.737332 0.665763 0.634787 0.139678
H9    H     H_    0.392398 0.660965 0.036378 0.142194
H10   H     H_    0.927027 0.686861 0.698104 0.185022
H11   H     H_    0.746550 0.406028 0.427349 0.208465
H12   H     H_    0.686241 0.490873 0.087064 0.142450
H13   H     H_    0.605035 0.342861 0.963279 0.140096
H14   H     H_    0.414617 0.353207 0.035411 0.146158
H15   H     H_    0.311220 0.512976 0.912420 0.159015
H16   H     H_    0.747052 0.219597 0.624285 0.161850
H17   H     H_    0.701758 0.875997 0.693441 0.140951
H18   H     H_    0.774021 0.042480 0.683913 0.142795
N1    N     N_R   0.222180 0.444680 0.455580 -0.121708
N2    N     N_R   0.776980 0.554790 0.543960 -0.125555
O1    O     O_R   0.366730 0.627160 0.478790 -0.576862
O2    O     O_R   0.544830 0.662520 0.507160 -0.617946
O3    O     O_R   0.410960 0.482330 0.609040 -0.609973
O4    O     O_R   0.589060 0.517690 0.637410 -0.624035
O5    O     O_R   0.455170 0.337480 0.492840 -0.606227
O6    O     O_R   0.633270 0.372840 0.521210 -0.638578
O7    O     O_R   0.410940 0.482310 0.362590 -0.604746
O8    O     O_R   0.589040 0.517670 0.390960 -0.628536
Zn1   Zn    Zn3+2 0.381080 0.476390 0.481050 0.957770
Zn2   Zn    Zn3+2 0.618920 0.523610 0.518950 0.928909
N3    N     N_2   0.229457 0.774778 0.384473 -0.278447
H19   H     H_    0.146672 0.798507 0.377306 0.223144
C43   C     C_3   0.258884 0.749763 0.301785 -0.724170
H20   H     H_    0.207198 0.692618 0.267712 0.239433
H21   H     H_    0.346019 0.715415 0.311597 0.233568
H22   H     H_    0.245458 0.820315 0.260171 0.227053
N4    N     N_2   0.288180 0.121634 0.480851 -0.316088
H23   H     H_    0.219328 0.144046 0.433429 0.235192
C44   C     C_3   0.275379 0.156798 0.566303 -0.751699
H24   H     H_    0.245404 0.240659 0.563081 0.241566
H25   H     H_    0.354817 0.144718 0.614064 0.252437
H26   H     H_    0.214912 0.114869 0.588936 0.234790
C45   C     C_2   0.065749 0.259833 0.313339 0.330148
H27   H     H_    0.996729 0.217523 0.310357 0.070818
O9    O     O_2   0.124555 0.237155 0.261559 -0.576487
C46   C     C_2   0.105541 0.569201 0.669143 0.361656
H28   H     H_    0.163027 0.499929 0.668730 0.071132
O10   O     O_2   0.133367 0.638241 0.718911 -0.574154

loop_
_geom_bond_atom_site_label_1
_geom_bond_atom_site_label_2
_ccdc_geom_bond_type
C3    C42   S    
C35   H11   S    
N3    H19   S    
C19   C20   A    
C4    C8    S    
C44   H24   S    
C45   H27   S    
C10   C22   A    
C26   C27   A    
C30   C35   A    
C28   C29   A    
C38   C42   S    
C26   H8    S    
C38   C39   S    
C9    C22   A    
C15   C16   A    
C11   C24   A    
C18   C19   A    
C23   O5    A    
O7    Zn1   S    
C25   C37   A    
C2    C39   S    
O4    Zn2   S    
C2    C7    S    
C28   C46   S    
C7    C40   T    
C37   H5    S    
C34   O8    A    
O6    Zn2   S    
N1    Zn1   S    
C25   C32   A    
C16   C24   A    
C13   C14   A    
N3    C43   S    
C34   C41   S    
C6    H12   S    
C1    O1    A    
C42   H15   S    
C44   H25   S    
C45   O9    D    
C10   C21   A    
C8    C41   T    
C4    C6    S    
C11   N3    S    
N4    C44   S    
C39   H1    S    
C38   H9    S    
C19   H17   S    
O3    Zn1   S    
C12   O4    A    
C17   C21   A    
C23   O6    A    
C12   C40   S    
C43   H20   S    
C29   C30   A    
C21   H2    S    
C3    H14   S    
C31   C32   A    
C14   C15   A    
C16   C20   A    
C25   C45   S    
C17   C18   A    
N2    Zn2   S    
C14   N4    S    
C43   H21   S    
C34   O7    A    
O1    Zn1   S    
C30   N2    A    
C2    C5    S    
C36   N1    A    
C1    O2    A    
C44   H26   S    
C27   H10   S    
C15   C17   A    
C31   C36   A    
C5    H13   S    
C46   O10   D    
C3    C5    S    
C22   H16   S    
C37   N1    A    
C10   C23   S    
C12   O3    A    
C9    H18   S    
C32   C33   A    
C26   N2    A    
C29   C31   A    
C13   H3    S    
C11   C13   A    
C5    C6    S    
C2    C42   S    
C33   C35   A    
O5    Zn1   S    
O2    Zn2   S    
C43   H22   S    
N4    H23   S    
C9    C18   A    
C46   H28   S    
C1    C24   S    
C27   C28   A    
C33   H6    S    
C6    C39   S    
O8    Zn2   S    
C4    C38   S    
C20   H4    S    
C36   H7    S    
C3    C4    S    
