data_mof_unit_20689.cif
_audit_creation_date              2012-12-10T17:54:19-0500
_audit_creation_method            fapswitch 2.2
_symmetry_space_group_name_H-M    P1
_symmetry_Int_Tables_number       1
_space_group_crystal_system       triclinic
_cell_length_a                    27.642777
_cell_length_b                    10.591732
_cell_length_c                    9.947542
_cell_angle_alpha                 91.253661
_cell_angle_beta                  89.227785
_cell_angle_gamma                 92.511187
_cell_volume                      2908.76805057

loop_
_atom_site_label
_atom_site_type_symbol
_atom_type_description
_atom_site_fract_x
_atom_site_fract_y
_atom_site_fract_z
_atom_type_partial_charge
C1    C     C_R   0.499535 0.260666 0.498814 0.865481
C2    C     C_R   0.274651 0.438966 0.565260 -0.088127
C3    C     C_R   0.254783 0.530422 0.485732 0.263834
C4    C     C_R   0.103423 0.536043 0.461346 -0.052706
C5    C     C_R   0.128268 0.433247 0.406685 -0.022455
C6    C     C_R   0.102344 0.331265 0.347143 -0.144506
C7    C     C_R   0.129875 0.639341 0.519749 -0.025341
C8    C     C_R   0.354607 0.515793 0.500137 -0.092420
C9    C     C_R   0.646593 0.499119 0.496836 -0.208399
C10   C     C_R   0.974870 0.420095 0.417854 0.044461
C11   C     C_R   0.976531 0.640628 0.504510 0.044504
C12   C     C_R   0.406452 0.502257 0.500605 0.906714
C13   C     C_R   0.950369 0.528230 0.463720 0.074075
C14   C     C_R   0.947241 0.307874 0.387000 -0.215554
C15   C     C_R   0.897115 0.303569 0.396328 -0.138764
C16   C     C_R   0.872691 0.410783 0.436589 -0.041743
C17   C     C_R   0.899121 0.523621 0.469823 -0.053816
C18   C     C_R   0.874203 0.631688 0.509702 -0.023900
C19   C     C_R   0.823589 0.624814 0.515663 0.504530
C20   C     C_R   0.822135 0.407769 0.445402 0.569818
C21   C     C_R   0.722895 0.458550 0.602796 0.409558
C22   C     C_R   0.672154 0.448626 0.603829 0.313448
C23   C     C_R   0.499570 0.739195 0.501307 0.877707
C24   C     C_R   0.671832 0.550390 0.386208 -0.289232
C25   C     C_R   0.721982 0.554604 0.382852 -0.185181
C26   C     C_R   0.747417 0.509023 0.490437 0.178938
C27   C     C_R   0.026032 0.426514 0.407337 0.044073
C28   C     C_R   0.052200 0.534814 0.459051 0.071535
C29   C     C_R   0.027718 0.641137 0.510041 0.043961
C30   C     C_R   0.052153 0.327783 0.347202 -0.218411
C31   C     C_R   0.105502 0.742173 0.572647 -0.140284
C32   C     C_R   0.950370 0.748709 0.539178 -0.219315
C33   C     C_R   0.900151 0.744007 0.541808 -0.140653
C34   C     C_R   0.593826 0.499406 0.499206 0.910787
C35   C     C_R   0.055407 0.743420 0.567805 -0.217390
C36   C     C_R   0.412092 0.123146 0.583396 -0.148190
C37   C     C_R   0.371817 0.054385 0.633124 -0.113909
C38   C     C_R   0.373131 0.923768 0.643834 -0.100747
C39   C     C_R   0.414491 0.861593 0.603221 -0.118497
C40   C     C_R   0.455539 0.930188 0.552180 0.079770
C41   C     C_R   0.454687 0.061841 0.545111 0.106277
C42   C     C_R   0.496364 0.127904 0.495997 -0.050153
C43   C     C_R   0.536694 0.067357 0.446768 -0.208655
C44   C     C_R   0.537012 0.938456 0.449917 -0.210673
C45   C     C_R   0.178767 0.434785 0.413298 0.497247
C46   C     C_R   0.497268 0.871337 0.503946 -0.079937
C47   C     C_R   0.418309 0.386537 0.132323 0.262732
C48   C     C_R   0.375395 0.373659 0.058369 0.450314
C49   C     C_R   0.380274 0.353504 0.919920 -0.331500
C50   C     C_R   0.424897 0.375754 0.857974 -0.176139
C51   C     C_R   0.462635 0.439257 0.927123 0.030389
C52   C     C_R   0.461312 0.441230 0.070940 0.005463
C53   C     C_R   0.536142 0.558592 0.072090 -0.263615
C54   C     C_R   0.536100 0.561658 0.926888 0.554586
C55   C     C_R   0.180326 0.635997 0.526388 0.511331
C56   C     C_R   0.284805 0.616983 0.416022 -0.256811
C57   C     C_R   0.335193 0.609405 0.421123 0.435976
C58   C     C_R   0.324511 0.431898 0.572699 -0.288223
H1    H     H_    0.339593 0.359018 0.631707 0.142668
H2    H     H_    0.268714 0.689709 0.358847 0.150754
H3    H     H_    0.125053 0.822185 0.619189 0.189282
H4    H     H_    0.967615 0.839564 0.562473 0.142145
H5    H     H_    0.652780 0.588567 0.302814 0.178645
H6    H     H_    0.881733 0.829055 0.569904 0.191510
H7    H     H_    0.741267 0.593832 0.296814 0.162350
H8    H     H_    0.039419 0.824514 0.614560 0.143209
H9    H     H_    0.568128 0.120252 0.407870 0.140204
H10   H     H_    0.409217 0.223611 0.571609 0.126436
H11   H     H_    0.339417 0.102426 0.662333 0.138614
H12   H     H_    0.251339 0.372675 0.620050 0.147654
H13   H     H_    0.341816 0.870232 0.681932 0.154439
H14   H     H_    0.413735 0.759981 0.610929 0.151992
H15   H     H_    0.568492 0.890750 0.411884 0.144965
H16   H     H_    0.564625 0.605356 0.130160 0.134220
H17   H     H_    0.350377 0.313057 0.862114 0.166405
H18   H     H_    0.429420 0.342066 0.757238 0.214514
H19   H     H_    0.120739 0.252634 0.301329 0.187487
H20   H     H_    0.877564 0.215271 0.372107 0.190078
H21   H     H_    0.963305 0.220076 0.359183 0.141590
H22   H     H_    0.034876 0.247021 0.297076 0.143042
N1    N     N_R   0.203500 0.534231 0.474436 -0.343761
N2    N     N_R   0.798929 0.513767 0.484672 -0.326172
N3    N     N_R   0.499540 0.498800 0.142780 -0.111487
N4    N     N_R   0.499520 0.498720 0.857170 -0.139114
O1    O     O_R   0.500000 0.316780 0.614690 -0.657767
O2    O     O_2   0.796242 0.300273 0.414438 -0.555138
O3    O     O_2   0.206022 0.732597 0.585871 -0.569146
O4    O     O_2   0.799104 0.727798 0.552478 -0.578118
O5    O     O_R   0.500000 0.316750 0.385360 -0.563657
O6    O     O_R   0.428760 0.500030 0.614650 -0.666378
O7    O     O_R   0.428750 0.500010 0.385320 -0.572692
O8    O     O_R   0.500000 0.683250 0.614640 -0.598166
O9    O     O_R   0.500000 0.683220 0.385310 -0.611895
O10   O     O_R   0.571250 0.499990 0.614680 -0.513639
O11   O     O_R   0.571240 0.499970 0.385350 -0.639851
O12   O     O_2   0.203073 0.337669 0.359470 -0.568871
Zn1   Zn    Zn3+2 0.500000 0.500020 0.653130 0.987734
Zn2   Zn    Zn3+2 0.500000 0.499980 0.346870 0.979372
Br1   Br    Br    0.419345 0.242506 0.244561 -0.453908
O13   O     O_3   0.332388 0.338944 0.124332 -0.565920
C59   C     C_3   0.292947 0.405203 0.075877 0.100338
H23   H     H_    0.302605 0.475897 0.997191 0.099509
H24   H     H_    0.277021 0.458480 0.161792 0.175541
C60   C     C_3   0.254215 0.311547 0.021920 -0.745204
H25   H     H_    0.242544 0.244400 0.101450 0.292159
H26   H     H_    0.222354 0.363103 0.989822 0.202538
H27   H     H_    0.268506 0.257614 0.934250 0.225873
O14   O     O_3   0.570625 0.628770 0.849717 -0.560331
C61   C     C_3   0.609855 0.683670 0.922768 0.074788
H28   H     H_    0.629491 0.609813 0.975104 0.141760
H29   H     H_    0.597118 0.756741 0.995486 0.131536
C62   C     C_3   0.645112 0.749307 0.825451 -0.776096
H30   H     H_    0.626871 0.825242 0.773005 0.251533
H31   H     H_    0.676527 0.791758 0.881320 0.201188
H32   H     H_    0.658421 0.680367 0.749566 0.256309
O15   O     O_3   0.647915 0.394645 0.712262 -0.586734
C63   C     C_3   0.638054 0.265282 0.682170 0.157328
H33   H     H_    0.672329 0.213891 0.675280 0.171279
H34   H     H_    0.618039 0.251520 0.586059 0.102795
C64   C     C_3   0.606594 0.208216 0.793855 -0.778586
H35   H     H_    0.572173 0.258226 0.803135 0.270850
H36   H     H_    0.598114 0.106672 0.770586 0.202023
H37   H     H_    0.625953 0.216820 0.890957 0.251204
O16   O     O_3   0.748830 0.410857 0.706671 -0.589082
C65   C     C_3   0.750844 0.501091 0.813299 0.096072
H38   H     H_    0.714165 0.514847 0.857285 0.174612
H39   H     H_    0.766624 0.593706 0.779016 0.162376
C66   C     C_3   0.782814 0.454390 0.923344 -0.780519
H40   H     H_    0.820023 0.441623 0.883266 0.259044
H41   H     H_    0.784508 0.524386 0.008119 0.199939
H42   H     H_    0.767735 0.362737 0.961134 0.268150
O17   O     O_3   0.366291 0.699990 0.363195 -0.614600
C67   C     C_3   0.357407 0.709754 0.224476 0.099527
H43   H     H_    0.325925 0.769204 0.208566 0.151985
H44   H     H_    0.350860 0.615430 0.175086 0.115357
C68   C     C_3   0.401630 0.772813 0.157218 -0.743862
H45   H     H_    0.433632 0.714555 0.169710 0.259310
H46   H     H_    0.395019 0.782653 0.048148 0.194630
H47   H     H_    0.409262 0.868057 0.203121 0.279567

loop_
_geom_bond_atom_site_label_1
_geom_bond_atom_site_label_2
_ccdc_geom_bond_type
C10   C27   A    
C21   C26   A    
C59   H23   S    
C37   H11   S    
C41   C42   A    
C31   H3    S    
C57   O17   S    
C53   H16   S    
C7    C55   A    
C66   H40   S    
C54   N4    A    
C67   H43   S    
O11   Zn2   S    
C53   C54   A    
C56   C57   A    
C40   C46   A    
N4    Zn1   S    
C12   O6    A    
C28   C29   A    
C20   N2    A    
C4    C7    A    
C38   C39   A    
C9    C22   A    
C15   H20   S    
C15   C16   A    
C47   Br1   S    
O14   C61   S    
C18   C19   A    
C62   H30   S    
C12   O7    A    
C61   H29   S    
C8    C58   A    
C44   C46   A    
C16   C17   A    
N3    Zn2   S    
C20   O2    S    
C3    N1    S    
C67   C68   S    
C39   H14   S    
C49   H17   S    
C55   N1    A    
C19   N2    A    
O6    Zn1   S    
C64   H37   S    
C8    C12   S    
C30   H22   S    
C22   O15   S    
C26   N2    S    
C23   C46   S    
C21   C22   A    
C27   C30   A    
C36   C41   A    
C68   H47   S    
C62   H31   S    
C60   H25   S    
C4    C28   A    
C64   H36   S    
O8    Zn1   S    
C17   C18   A    
C1    O1    A    
C48   O13   S    
C7    C31   A    
C51   C52   A    
C25   H7    S    
C34   O11   A    
C68   H46   S    
C19   O4    S    
C10   C14   A    
C61   C62   S    
C39   C40   A    
O17   C67   S    
C6    H19   S    
C35   H8    S    
C58   H1    S    
C5    C45   A    
C23   O9    A    
C52   N3    A    
C43   C44   A    
C37   C38   A    
C50   H18   S    
C8    C57   A    
C65   C66   S    
C3    C56   A    
C47   C48   A    
C16   C20   A    
C36   H10   S    
C50   C51   A    
C14   H21   S    
C24   C25   A    
C47   C52   A    
C43   H9    S    
C40   C41   A    
C6    C30   A    
C11   C32   A    
C59   C60   S    
C65   H38   S    
C31   C35   A    
C63   C64   S    
C42   C43   A    
C66   H42   S    
C64   H35   S    
C67   H44   S    
C38   H13   S    
C36   C37   A    
C1    O5    A    
C14   C15   A    
C45   N1    A    
C34   O10   A    
C68   H45   S    
C10   C13   A    
C66   H41   S    
C2    C58   A    
C9    C24   A    
C60   H26   S    
C54   O14   S    
C24   H5    S    
C29   C35   A    
O10   Zn1   S    
C13   C17   A    
O5    Zn2   S    
C53   N3    A    
C32   C33   A    
C21   O16   S    
C63   H34   S    
C2    C3    A    
C25   C26   A    
C32   H4    S    
C2    H12   S    
C63   H33   S    
C11   C13   A    
C5    C6    A    
C33   H6    S    
C48   C49   A    
O15   C63   S    
O9    Zn2   S    
O13   C59   S    
C9    C34   S    
C62   H32   S    
O7    Zn2   S    
C55   O3    S    
C44   H15   S    
C18   C33   A    
O1    Zn1   S    
C56   H2    S    
C1    C42   S    
C4    C5    A    
C11   C29   A    
C59   H24   S    
C49   C50   A    
C27   C28   A    
C65   H39   S    
C23   O8    A    
C61   H28   S    
C45   O12   S    
C51   N4    A    
C60   H27   S    
O16   C65   S    
