data_mof_unit_13349.cif
_audit_creation_date              2012-12-10T20:57:47-0500
_audit_creation_method            fapswitch 2.2
_symmetry_space_group_name_H-M    P1
_symmetry_Int_Tables_number       1
_space_group_crystal_system       triclinic
_cell_length_a                    18.19635
_cell_length_b                    18.2312
_cell_length_c                    18.394029
_cell_angle_alpha                 120.102483
_cell_angle_beta                  89.909844
_cell_angle_gamma                 119.871784
_cell_volume                      4319.84624918

loop_
_atom_site_label
_atom_site_type_symbol
_atom_type_description
_atom_site_fract_x
_atom_site_fract_y
_atom_site_fract_z
_atom_type_partial_charge
C1    C     C_R   0.360718 0.220080 0.361058 0.782927
C2    C     C_3   0.744350 0.942079 0.646738 -0.422377
C3    C     C_3   0.698335 0.897753 0.699474 0.134252
C4    C     C_R   0.640869 0.781110 0.640230 0.761465
C5    C     C_3   0.798913 0.102551 0.803603 0.141155
C6    C     C_3   0.830804 0.059219 0.840455 -0.505129
C7    C     C_3   0.804295 0.062693 0.707699 0.352775
C8    C     C_3   0.682966 0.394288 0.245020 -0.517103
C9    C     C_3   0.741211 0.393160 0.183829 -0.417473
C10   C     C_3   0.676873 0.526632 0.239743 -0.364670
C11   C     C_3   0.800553 0.584966 0.360923 0.302970
C12   C     C_3   0.264248 0.565031 0.359190 -0.402783
C13   C     C_3   0.699176 0.502129 0.302796 0.183522
C14   C     C_3   0.800143 0.501088 0.200869 0.168389
C15   C     C_3   0.738163 0.528840 0.181509 -0.405817
C16   C     C_R   0.359753 0.501166 0.641243 0.788680
C17   C     C_3   0.859401 0.582566 0.300717 -0.430977
C18   C     C_R   0.473274 0.183402 0.551779 -0.128142
C19   C     C_R   0.430689 0.140419 0.463904 -0.119371
C20   C     C_R   0.339023 0.098131 0.434766 0.154085
C21   C     C_R   0.290476 0.098906 0.494254 -0.137751
C22   C     C_R   0.333443 0.142544 0.582193 -0.135917
C23   C     C_3   0.299992 0.500533 0.302688 0.157366
C24   C     C_R   0.424699 0.184582 0.610890 -0.119105
C25   C     C_R   0.235961 0.943539 0.285918 -0.259857
C26   C     C_R   0.191896 0.892297 0.196142 -0.051531
C27   C     C_R   0.203999 0.949432 0.160856 -0.012124
C28   C     C_R   0.640844 0.500759 0.359596 0.769727
C29   C     C_R   0.261208 0.056440 0.216331 -0.262719
C30   C     C_R   0.305370 0.107676 0.306090 -0.050174
C31   C     C_R   0.293009 0.050521 0.341411 -0.012558
C32   C     C_R   0.205814 0.902693 0.008193 -0.138598
C33   C     C_R   0.162324 0.859157 0.920451 -0.137296
C34   C     C_3   0.197648 0.499582 0.200225 0.098854
C35   C     C_R   0.070662 0.815524 0.891889 -0.119627
C36   C     C_R   0.022204 0.814998 0.950928 -0.129078
C37   C     C_R   0.065327 0.857901 0.038617 -0.120278
C38   C     C_R   0.157418 0.901785 0.067635 0.154636
C39   C     C_R   0.921233 0.658676 0.590257 -0.151538
C40   C     C_R   0.641886 0.500755 0.640693 0.787411
C41   C     C_R   0.872135 0.593536 0.616444 -0.152945
C42   C     C_R   0.843624 0.628573 0.690003 0.154077
C43   C     C_R   0.865510 0.729661 0.737630 -0.122881
C44   C     C_R   0.914568 0.794494 0.711171 -0.125943
C45   C     C_3   0.156430 0.387871 0.172569 -0.427791
C46   C     C_R   0.942310 0.758990 0.637491 -0.103973
C47   C     C_R   0.841764 0.555149 0.770607 -0.282134
C48   C     C_R   0.799343 0.496291 0.803821 -0.042793
C49   C     C_R   0.704939 0.438028 0.782219 -0.019472
C50   C     C_R   0.655904 0.443072 0.730091 -0.275415
C51   C     C_R   0.698389 0.502603 0.697431 -0.044137
C52   C     C_R   0.357514 0.499785 0.359633 0.771810
C53   C     C_R   0.792780 0.560442 0.718670 -0.018516
C54   C     C_R   0.627773 0.266930 0.760207 -0.130095
C55   C     C_R   0.580166 0.202557 0.787457 -0.130438
C56   C     C_3   0.203380 0.563334 0.299322 -0.477415
C57   C     C_R   0.558554 0.240533 0.865176 -0.109222
C58   C     C_R   0.584170 0.342805 0.915543 -0.147145
C59   C     C_R   0.631877 0.407507 0.888582 -0.139865
C60   C     C_R   0.654312 0.369954 0.810981 0.150256
C61   C     C_R   0.453116 0.862849 0.820965 -0.163648
C62   C     C_R   0.413901 0.773253 0.818890 -0.173065
C63   C     C_R   0.340040 0.678486 0.745336 0.148357
C64   C     C_3   0.355674 0.549076 0.256065 -0.484877
C65   C     C_R   0.305109 0.674765 0.674558 -0.076834
C66   C     C_R   0.345412 0.764216 0.676268 -0.131194
C67   C     C_3   0.640748 0.939224 0.737424 -0.383940
C68   C     C_R   0.419270 0.858247 0.749502 -0.125963
C69   C     C_R   0.240358 0.581763 0.799490 -0.250219
C70   C     C_R   0.192110 0.495640 0.802518 -0.052149
C71   C     C_R   0.197319 0.410183 0.750183 -0.009749
C72   C     C_R   0.253406 0.415232 0.698975 -0.250982
C73   C     C_R   0.302333 0.501808 0.696613 -0.058061
C74   C     C_R   0.294242 0.585493 0.746205 -0.015281
C75   C     C_R   0.168371 0.301228 0.805857 -0.074437
C76   C     C_3   0.296126 0.551807 0.197988 0.372134
C77   C     C_R   0.118191 0.206003 0.794864 -0.143515
C78   C     C_3   0.699221 0.058541 0.798286 -0.367708
C79   C     C_R   0.043514 0.119988 0.718521 -0.124727
C80   C     C_R   0.018401 0.129264 0.653416 -0.173640
C81   C     C_R   0.067022 0.224897 0.665221 -0.196406
C82   C     C_R   0.142016 0.311644 0.741840 0.142370
C83   C     C_R   0.857178 0.500244 0.142888 0.755760
C84   C     C_R   0.136938 0.497926 0.860022 0.791083
C85   C     C_R   0.856791 0.219029 0.863249 0.755096
C86   C     C_R   0.136894 0.779913 0.141160 0.788070
C87   C     C_R   0.855876 0.499011 0.861313 0.798105
C88   C     C_3   0.217757 0.388206 0.231050 -0.402215
C89   C     C_3   0.772160 0.939338 0.779223 -0.413624
C90   C     C_R   0.139660 0.499714 0.142803 0.795099
C91   C     C_3   0.846385 0.177764 0.667049 0.063547
C92   C     C_3   0.817966 0.241246 0.661470 -0.333626
C93   C     C_3   0.894466 0.329687 0.660542 -0.974025
C94   C     C_3   0.289767 0.424635 0.057270 0.122183
C95   C     C_3   0.369032 0.438074 0.022915 -0.352870
C96   C     C_3   0.358338 0.335334 0.962892 -1.003613
H1    H     H_    0.385209 0.507444 0.217824 0.176825
H2    H     H_    0.827158 0.086174 0.908794 0.175217
H3    H     H_    0.786309 0.913719 0.618792 0.141596
H4    H     H_    0.414287 0.629689 0.307634 0.132374
H5    H     H_    0.692206 0.912828 0.589148 0.186170
H6    H     H_    0.874667 0.087581 0.711421 0.066803
H7    H     H_    0.815668 0.912357 0.754590 0.183418
H8    H     H_    0.902152 0.088743 0.845320 0.185580
H9    H     H_    0.610916 0.333087 0.203399 0.201600
H10   H     H_    0.699627 0.375348 0.288672 0.154653
H11   H     H_    0.784506 0.371336 0.196485 0.154499
H12   H     H_    0.135158 0.529200 0.305362 0.190374
H13   H     H_    0.696852 0.333317 0.113006 0.190549
H14   H     H_    0.605420 0.466769 0.195866 0.166197
H15   H     H_    0.323807 0.635399 0.233438 0.095882
H16   H     H_    0.695878 0.472898 0.110078 0.178939
H17   H     H_    0.816680 0.565834 0.404872 0.083992
H18   H     H_    0.903506 0.563418 0.317002 0.136573
H19   H     H_    0.904126 0.660586 0.314183 0.198970
H20   H     H_    0.685762 0.602543 0.279002 0.192046
H21   H     H_    0.779476 0.607222 0.195282 0.163102
H22   H     H_    0.457628 0.218045 0.678935 0.137298
H23   H     H_    0.178519 0.352277 0.264054 0.158622
H24   H     H_    0.543906 0.215803 0.574016 0.123683
H25   H     H_    0.468817 0.139796 0.418580 0.102395
H26   H     H_    0.219641 0.066178 0.472558 0.122949
H27   H     H_    0.295952 0.143542 0.628031 0.132037
H28   H     H_    0.227741 0.900127 0.313088 0.171276
H29   H     H_    0.269413 0.099886 0.189204 0.170701
H30   H     H_    0.276958 0.936674 0.029773 0.121434
H31   H     H_    0.199730 0.859496 0.874670 0.131191
H32   H     H_    0.037318 0.782188 0.824015 0.137246
H33   H     H_    0.951256 0.781378 0.928761 0.123448
H34   H     H_    0.089287 0.356112 0.181161 0.161448
H35   H     H_    0.027285 0.857240 0.083899 0.101155
H36   H     H_    0.980428 0.809350 0.617220 0.109135
H37   H     H_    0.240294 0.339548 0.188209 0.175707
H38   H     H_    0.943097 0.631484 0.533451 0.112033
H39   H     H_    0.856235 0.516008 0.579545 0.115866
H40   H     H_    0.844538 0.757931 0.794972 0.105565
H41   H     H_    0.931431 0.872377 0.747961 0.108632
H42   H     H_    0.913945 0.598288 0.785511 0.181053
H43   H     H_    0.583714 0.399717 0.715054 0.179546
H44   H     H_    0.643817 0.236681 0.699685 0.110730
H45   H     H_    0.607741 0.909062 0.776180 0.181734
H46   H     H_    0.559739 0.123162 0.748183 0.116311
H47   H     H_    0.521687 0.190619 0.886192 0.116301
H48   H     H_    0.566944 0.371861 0.975412 0.119972
H49   H     H_    0.144088 0.334395 0.100982 0.164509
H50   H     H_    0.651602 0.486680 0.928124 0.114439
H51   H     H_    0.450169 0.927596 0.751015 0.116859
H52   H     H_    0.509946 0.935864 0.877884 0.122642
H53   H     H_    0.440376 0.777791 0.874801 0.123972
H54   H     H_    0.246939 0.602647 0.618219 0.108779
H55   H     H_    0.318932 0.760803 0.621168 0.116302
H56   H     H_    0.586998 0.911504 0.682207 0.188536
H57   H     H_    0.235978 0.647080 0.838776 0.172163
H58   H     H_    0.257226 0.349581 0.659053 0.171742
H59   H     H_    0.227389 0.366940 0.864046 0.126211
H60   H     H_    0.137392 0.198457 0.845059 0.108509
H61   H     H_    0.225544 0.533081 0.394875 0.177017
H62   H     H_    0.005046 0.046179 0.709812 0.116413
H63   H     H_    0.960738 0.062487 0.594137 0.131363
H64   H     H_    0.046888 0.231206 0.614368 0.126886
H65   H     H_    0.321373 0.646710 0.410441 0.181126
H66   H     H_    0.230679 0.644491 0.323725 0.181309
H67   H     H_    0.673165 0.087317 0.771977 0.209468
H68   H     H_    0.863091 0.140596 0.606592 0.144922
H69   H     H_    0.907565 0.231991 0.726763 0.144761
H70   H     H_    0.759485 0.190116 0.600116 0.219687
H71   H     H_    0.797501 0.274346 0.720042 0.232069
H72   H     H_    0.952418 0.383599 0.722890 0.264732
H73   H     H_    0.871263 0.373522 0.655652 0.264682
H74   H     H_    0.916351 0.298741 0.602541 0.258644
H75   H     H_    0.877188 0.729679 0.461408 0.325171
H76   H     H_    0.227363 0.372935 0.999938 0.159154
H77   H     H_    0.281357 0.385131 0.089750 0.129234
H78   H     H_    0.693680 0.085403 0.866029 0.153339
H79   H     H_    0.374828 0.471683 0.985041 0.227185
H80   H     H_    0.432082 0.492754 0.080415 0.220753
H81   H     H_    0.354727 0.301603 0.000135 0.265874
H82   H     H_    0.416959 0.348473 0.939297 0.270833
H83   H     H_    0.296688 0.279702 0.903960 0.263466
H84   H     H_    0.740717 0.908517 0.818169 0.165327
O1    O     O_3   0.500000 0.500000 0.500000 -0.477679
O2    O     O_R   0.113800 0.731630 0.056520 -0.631563
O3    O     O_R   0.819390 0.439310 0.886160 -0.638351
O4    O     O_R   0.383400 0.268380 0.323710 -0.651775
O5    O     O_R   0.115110 0.560720 0.179280 -0.659456
O6    O     O_R   0.941380 0.560750 0.885620 -0.642287
O7    O     O_R   0.115110 0.439270 0.057830 -0.629984
O8    O     O_R   0.942690 0.268390 0.886930 -0.663810
O9    O     O_R   0.114340 0.731630 0.178520 -0.650033
O10   O     O_R   0.820160 0.439310 0.057830 -0.643415
O11   O     O_R   0.113800 0.560730 0.885620 -0.645530
O12   O     O_R   0.383400 0.560740 0.616060 -0.642094
O13   O     O_R   0.555060 0.731630 0.615290 -0.643123
O14   O     O_R   0.383950 0.439280 0.616600 -0.642718
O15   O     O_R   0.677590 0.560710 0.444390 -0.607523
O16   O     O_R   0.556370 0.439260 0.616600 -0.644178
O17   O     O_R   0.382640 0.439290 0.322940 -0.649210
O18   O     O_R   0.678360 0.560700 0.616060 -0.638868
O19   O     O_R   0.382640 0.560750 0.444390 -0.653027
O20   O     O_3   0.774344 0.099994 0.671593 -0.652836
O21   O     O_3   0.818576 0.684432 0.413869 -0.765562
O22   O     O_3   0.304074 0.522597 0.112066 -0.647578
O23   O     O_R   0.555060 0.439270 0.322940 -0.660458
O24   O     O_R   0.383950 0.268380 0.445700 -0.633023
O25   O     O_R   0.677590 0.731610 0.615290 -0.632847
O26   O     O_3   0.997750 0.500010 0.002220 -0.474838
O27   O     O_R   0.942690 0.560750 0.179280 -0.653516
O28   O     O_R   0.114340 0.439270 0.886160 -0.638829
O29   O     O_R   0.820160 0.268410 0.886930 -0.633747
Zn1   Zn    Zn3+2 0.456040 0.586770 0.543190 0.957096
Zn2   Zn    Zn3+2 0.456820 0.413240 0.543960 0.966969
Zn3   Zn    Zn3+2 0.631110 0.586750 0.543190 0.982778
Zn4   Zn    Zn3+2 0.456040 0.413240 0.369660 0.942935
Zn5   Zn    Zn3+2 0.041710 0.413240 0.959030 0.961702
Zn6   Zn    Zn3+2 0.866640 0.413270 0.959030 0.961297
Zn7   Zn    Zn3+2 0.040930 0.586780 0.958260 0.971285
Zn8   Zn    Zn3+2 0.041710 0.586770 0.132560 0.945264

loop_
_geom_bond_atom_site_label_1
_geom_bond_atom_site_label_2
_ccdc_geom_bond_type
O26   Zn6   S    
C25   C31   A    
C66   C68   A    
C63   C65   A    
C34   C56   S    
C44   H41   S    
C62   H53   S    
C29   H29   S    
C27   C29   A    
O13   Zn1   S    
C41   C42   A    
C83   O10   A    
C95   C96   S    
C92   H71   S    
C9    C14   S    
C8    H9    S    
C79   H62   S    
C81   C82   A    
C57   C58   A    
C10   H20   S    
C4    O25   A    
C39   C41   A    
C54   C60   A    
C12   C23   S    
C93   H73   S    
C26   C27   A    
C8    C13   S    
C49   C60   S    
O5    Zn8   S    
O1    Zn3   S    
C18   C24   A    
C6    H2    S    
C92   C93   S    
C36   C37   A    
C61   H52   S    
C88   H37   S    
C10   C15   S    
C77   H60   S    
C46   H36   S    
C30   C31   A    
C76   O22   S    
C90   O7    A    
C27   C38   S    
C56   H66   S    
C33   H31   S    
C28   O15   A    
C11   C17   S    
C84   O11   A    
C18   C19   A    
C11   O21   S    
C89   H84   S    
C32   H30   S    
C7    O20   S    
C6    C89   S    
C95   H79   S    
C75   H59   S    
C83   O27   A    
C16   O12   A    
C94   H76   S    
C12   H65   S    
C65   H54   S    
O16   Zn2   S    
C54   H44   S    
C2    C7    S    
C93   H72   S    
C44   C46   A    
C8    C9    S    
C7    H6    S    
O6    Zn7   S    
C95   H80   S    
C13   C28   S    
C70   C71   A    
C94   O22   S    
C6    H8    S    
C12   H61   S    
C29   C30   A    
C70   C84   S    
O10   Zn6   S    
C47   C53   A    
C71   C82   S    
C5    C85   S    
O26   Zn5   S    
C85   O8    A    
O14   Zn2   S    
O7    Zn5   S    
C45   H34   S    
C81   H64   S    
C21   C22   A    
C89   H7    S    
O2    Zn7   S    
C14   C17   S    
C69   C70   A    
C67   C78   S    
C14   C83   S    
C15   H16   S    
C1    O4    A    
O9    Zn8   S    
C17   H18   S    
C87   O6    A    
C21   H26   S    
C77   C79   A    
O26   Zn8   S    
O3    Zn6   S    
C4    O13   A    
C93   H74   S    
O27   Zn8   S    
C72   H58   S    
C57   H47   S    
C78   H67   S    
C16   C73   S    
C22   H27   S    
C45   C88   S    
C91   C92   S    
C5    C7    S    
O8    Zn5   S    
C50   H43   S    
C72   C73   A    
C80   H63   S    
C2    H5    S    
C47   H42   S    
C25   C26   A    
C69   H57   S    
C37   H35   S    
C85   O29   A    
O1    Zn1   S    
C51   C53   A    
C35   C36   A    
H75   O21   S    
C23   C52   S    
C43   C44   A    
C34   C90   S    
C37   C38   A    
C58   H48   S    
O11   Zn7   S    
C84   O28   A    
C47   C48   A    
C64   H4    S    
C26   C86   S    
O18   Zn3   S    
C62   C63   A    
C50   C51   A    
C64   C76   S    
C48   C87   S    
C69   C74   A    
C52   O19   A    
O29   Zn6   S    
C88   H23   S    
C75   C77   A    
O12   Zn1   S    
C12   C56   S    
C68   H51   S    
C34   C45   S    
C39   C46   A    
C91   O20   S    
C15   H21   S    
C23   C64   S    
C90   O5    A    
C2    H3    S    
C49   C50   A    
C94   C95   S    
C32   C38   A    
C23   C88   S    
C55   C57   A    
O23   Zn4   S    
C96   H81   S    
C45   H49   S    
C91   H68   S    
C42   C43   A    
C9    H13   S    
C67   H45   S    
C73   C74   A    
C18   H24   S    
C41   H39   S    
O17   Zn4   S    
C17   H19   S    
C78   H78   S    
C40   O16   A    
O26   Zn7   S    
C54   C55   A    
C19   H25   S    
C86   O9    A    
O28   Zn5   S    
C67   H56   S    
C28   O23   A    
C64   H1    S    
C91   H69   S    
C3    C67   S    
C80   C81   A    
C10   C13   S    
C8    H10   S    
C75   C82   A    
C63   C74   S    
C9    H11   S    
C40   C51   S    
C24   H22   S    
C43   H40   S    
O25   Zn3   S    
C3    C89   S    
O1    Zn2   S    
O19   Zn1   S    
O15   Zn3   S    
C32   C33   A    
C19   C20   A    
C2    C3    S    
C58   C59   A    
C66   H55   S    
C42   C53   S    
C36   H33   S    
C87   O3    A    
C11   C13   S    
C61   C68   A    
O4    Zn4   S    
C5    C6    S    
C40   O18   A    
C76   H15   S    
C48   C49   A    
O24   Zn2   S    
C1    C30   S    
C33   C35   A    
C10   H14   S    
C22   C24   A    
C96   H83   S    
C61   C62   A    
C11   H17   S    
C25   H28   S    
C16   O14   A    
C94   H77   S    
C79   C80   A    
C59   H50   S    
C92   H70   S    
C59   C60   A    
C71   C72   A    
C20   C21   A    
C65   C66   A    
C35   H32   S    
C86   O2    A    
C56   H12   S    
C14   C15   S    
O1    Zn4   S    
C52   O17   A    
C96   H82   S    
C5    C78   S    
C1    O24   A    
C39   H38   S    
C3    C4    S    
C34   C76   S    
C20   C31   S    
C55   H46   S    
