data_mof_unit_64490.cif
_audit_creation_date              2012-12-10T17:28:56-0500
_audit_creation_method            fapswitch 2.2
_symmetry_space_group_name_H-M    P1
_symmetry_Int_Tables_number       1
_space_group_crystal_system       triclinic
_cell_length_a                    18.616673
_cell_length_b                    18.796212
_cell_length_c                    18.779927
_cell_angle_alpha                 109.67846
_cell_angle_beta                  109.026677
_cell_angle_gamma                 109.077591
_cell_volume                      5097.62014824

loop_
_atom_site_label
_atom_site_type_symbol
_atom_type_description
_atom_site_fract_x
_atom_site_fract_y
_atom_site_fract_z
_atom_type_partial_charge
C1    C     C_R   0.619419 0.499141 0.619658 0.825095
C2    C     C_R   0.376128 0.496007 0.380003 0.824310
C3    C     C_3   0.276375 0.219820 0.424742 0.175452
C4    C     C_3   0.731852 0.779387 0.579953 0.177564
C5    C     C_3   0.309265 0.312311 0.500129 0.056502
C6    C     C_3   0.692286 0.687077 0.499792 0.049995
C7    C     C_3   0.188651 0.190786 0.502086 -0.009894
C8    C     C_3   0.813102 0.808396 0.497801 -0.009349
C9    C     C_3   0.160300 0.259306 0.495248 -0.027149
C10   C     C_3   0.843921 0.742453 0.509165 -0.037088
C11   C     C_3   0.200690 0.149440 0.422060 -0.097327
C12   C     C_3   0.800374 0.850810 0.576644 -0.104000
C13   C     C_3   0.784468 0.567994 0.711825 0.248602
C14   C     C_3   0.227270 0.396103 0.236150 0.276242
C15   C     C_3   0.853251 0.573022 0.791916 0.165724
C16   C     C_3   0.165106 0.403667 0.161676 0.121602
C17   C     C_3   0.677998 0.524808 0.771683 0.172242
C18   C     C_3   0.348662 0.539495 0.266990 0.063051
C19   C     C_3   0.680326 0.407192 0.659866 0.063280
C20   C     C_3   0.266993 0.549282 0.349560 0.100889
C21   C     C_3   0.690342 0.500877 0.688801 -0.061487
C22   C     C_3   0.305090 0.492893 0.309082 -0.053340
C23   C     C_R   0.377872 0.380426 0.498271 0.786936
C24   C     C_R   0.622909 0.619481 0.502138 0.786836
C25   C     C_3   0.809593 0.500822 0.813312 -0.147545
C26   C     C_3   0.189414 0.501167 0.189186 -0.084731
C27   C     C_3   0.742380 0.516743 0.842736 0.447383
C28   C     C_3   0.284178 0.554331 0.203431 0.536662
C29   C     C_3   0.759750 0.412070 0.727297 0.069873
C30   C     C_3   0.188178 0.539562 0.276266 0.012627
C31   C     C_3   0.004097 0.312992 0.813538 0.054889
C32   C     C_3   0.994522 0.687454 0.184921 0.011645
C33   C     C_R   0.999285 0.119464 0.619786 0.813384
C34   C     C_R   0.001567 0.881222 0.380503 0.829569
C35   C     C_R   0.119775 0.121403 0.501757 0.810510
C36   C     C_R   0.880625 0.878038 0.497674 0.833797
C37   C     C_R   0.996375 0.619367 0.116667 0.821937
C38   C     C_R   0.003557 0.380684 0.883274 0.894398
C39   C     C_R   0.879862 0.500644 0.881048 0.871513
C40   C     C_R   0.120070 0.500963 0.120460 0.946248
C41   C     C_3   0.955185 0.150902 0.735969 -0.088872
C42   C     C_3   0.079140 0.793779 0.348406 -0.037061
C43   C     C_3   0.095653 0.260478 0.757434 -0.398013
C44   C     C_3   0.006149 0.837072 0.241895 -0.431685
C45   C     C_3   0.946415 0.300922 0.723632 0.648433
C46   C     C_3   0.906758 0.652098 0.188716 0.722263
C47   C     C_3   0.099798 0.333502 0.831317 -0.077959
C48   C     C_3   0.015755 0.771269 0.175402 -0.084850
C49   C     C_3   0.962683 0.224958 0.811644 -0.467067
C50   C     C_3   0.069753 0.716036 0.273916 -0.487402
C51   C     C_3   0.999946 0.188762 0.689569 -0.005856
C52   C     C_3   0.001496 0.811858 0.311686 -0.037228
C53   C     C_3   0.948502 0.230427 0.651068 0.121490
C54   C     C_3   0.915176 0.724625 0.268368 0.064676
C55   C     C_3   0.346936 0.316287 0.591264 0.564461
C56   C     C_3   0.652265 0.688751 0.412370 0.538325
C57   C     C_3   0.277423 0.238376 0.586936 -0.395610
C58   C     C_3   0.725348 0.758384 0.411593 -0.396706
C59   C     C_3   0.224758 0.322891 0.480614 -0.113600
C60   C     C_3   0.772125 0.669246 0.509112 -0.103364
Cu1   Cu    Cu3+1 0.499950 0.562450 0.562440 0.996688
Cu2   Cu    Cu3+1 0.500050 0.437550 0.437560 0.979915
Cu3   Cu    Cu3+1 0.062480 0.999960 0.562430 0.912306
Cu4   Cu    Cu3+1 0.937520 0.000040 0.437570 0.962454
Cu5   Cu    Cu3+1 0.062470 0.562430 0.999950 0.990330
Cu6   Cu    Cu3+1 0.937530 0.437570 0.000050 1.019411
H1    H     H_    0.249325 0.219713 0.361986 0.060112
H2    H     H_    0.766522 0.777312 0.639682 0.054088
H3    H     H_    0.139519 0.125744 0.362750 0.124214
H4    H     H_    0.863471 0.881551 0.636826 0.123106
H5    H     H_    0.190076 0.299130 0.409881 0.102493
H6    H     H_    0.801904 0.676221 0.574641 0.105076
H7    H     H_    0.095052 0.224413 0.436389 0.163757
H8    H     H_    0.902353 0.778436 0.574791 0.150608
H9    H     H_    0.900510 0.558918 0.774081 0.164026
H10   H     H_    0.097937 0.369739 0.150954 0.161925
H11   H     H_    0.619876 0.365684 0.657305 0.127380
H12   H     H_    0.319487 0.618519 0.389067 0.146943
H13   H     H_    0.805706 0.408440 0.701983 0.147235
H14   H     H_    0.126062 0.493982 0.268126 0.156408
H15   H     H_    0.609264 0.477379 0.748280 0.068061
H16   H     H_    0.402508 0.604032 0.321142 0.068913
H17   H     H_    0.002680 0.232384 0.875300 0.206759
H18   H     H_    0.131731 0.732572 0.271342 0.222978
H19   H     H_    0.880173 0.177402 0.603566 0.140074
H20   H     H_    0.922180 0.704092 0.317988 0.136404
H21   H     H_    0.884626 0.107771 0.688502 0.157706
H22   H     H_    0.074151 0.774803 0.397500 0.168826
H23   H     H_    0.896316 0.206698 0.804048 0.225835
H24   H     H_    0.057152 0.661198 0.287351 0.209465
H25   H     H_    0.128576 0.285854 0.724705 0.164277
H26   H     H_    0.947498 0.841423 0.209134 0.184484
H27   H     H_    0.133646 0.233063 0.786241 0.187307
H28   H     H_    0.061882 0.902585 0.271981 0.168663
H29   H     H_    0.132342 0.332224 0.891979 0.188117
H30   H     H_    0.085961 0.801771 0.193309 0.203620
H31   H     H_    0.300262 0.191458 0.590997 0.175069
H32   H     H_    0.705283 0.804529 0.399272 0.172575
H33   H     H_    0.268139 0.260705 0.644454 0.157726
H34   H     H_    0.735323 0.727826 0.356358 0.199656
O1    O     O_R   0.591120 0.552750 0.643890 -0.553310
O2    O     O_R   0.408880 0.447250 0.356110 -0.588988
O3    O     O_R   0.947240 0.538460 0.091150 -0.531022
O4    O     O_R   0.052760 0.461540 0.908850 -0.567913
O5    O     O_R   0.961590 0.552710 0.908800 -0.569960
O6    O     O_R   0.038410 0.447290 0.091200 -0.622507
O7    O     O_R   0.856080 0.447270 0.908890 -0.548618
O8    O     O_R   0.143920 0.552730 0.091110 -0.571750
O9    O     O_R   0.591210 0.447270 0.538420 -0.541417
O10   O     O_R   0.408790 0.552730 0.461580 -0.571953
O11   O     O_R   0.408810 0.461590 0.552740 -0.556022
O12   O     O_R   0.591190 0.538410 0.447260 -0.563127
O13   O     O_R   0.408900 0.356100 0.447280 -0.574278
O14   O     O_R   0.591100 0.643900 0.552720 -0.559648
O15   O     O_R   0.052750 0.091090 0.643890 -0.595158
O16   O     O_R   0.947250 0.908910 0.356110 -0.575931
O17   O     O_R   0.947230 0.091150 0.538450 -0.560075
O18   O     O_R   0.052770 0.908850 0.461550 -0.609665
O19   O     O_R   0.143910 0.091120 0.552710 -0.594792
O20   O     O_R   0.856090 0.908880 0.447290 -0.583584
O21   O     O_R   0.038380 0.091180 0.447270 -0.593017
O22   O     O_R   0.961620 0.908820 0.552730 -0.611150
O23   O     O_R   0.052740 0.643910 0.091070 -0.615960
O24   O     O_R   0.947260 0.356090 0.908930 -0.580444
O25   O     O_3   0.977455 0.381210 0.725532 -0.748412
H35   H     H_    0.936434 0.373428 0.670423 0.328511
O26   O     O_3   0.834289 0.622953 0.109665 -0.719682
H36   H     H_    0.831211 0.673286 0.106688 0.324906
O27   O     O_3   0.345376 0.201679 0.432365 -0.707705
H37   H     H_    0.332616 0.164663 0.372803 0.333292
O28   O     O_3   0.666564 0.799319 0.585933 -0.699717
H38   H     H_    0.688300 0.837483 0.648331 0.332375
C61   C     C_3   0.211013 0.068889 0.410781 -0.802512
H39   H     H_    0.271391 0.084854 0.465576 0.265095
H40   H     H_    0.154552 0.019490 0.405914 0.210970
H41   H     H_    0.212642 0.039472 0.349577 0.221183
C62   C     C_3   0.781120 0.925772 0.580442 -0.774252
H42   H     H_    0.718022 0.903525 0.525454 0.250976
H43   H     H_    0.780827 0.958138 0.641819 0.232261
H44   H     H_    0.832102 0.975432 0.579264 0.202307
C63   C     C_3   0.794516 0.658832 0.728253 -0.711457
H45   H     H_    0.783976 0.692066 0.781374 0.272560
H46   H     H_    0.861279 0.703485 0.744841 0.217607
H47   H     H_    0.748171 0.653423 0.669187 0.184412
C64   C     C_3   0.256188 0.329358 0.198564 -0.684906
H48   H     H_    0.303122 0.351171 0.176730 0.269443
H49   H     H_    0.284436 0.309935 0.245714 0.219637
H50   H     H_    0.198442 0.268260 0.141480 0.219313
C65   C     C_3   0.803193 0.536976 0.635112 -0.819673
H51   H     H_    0.863672 0.588730 0.647070 0.213903
H52   H     H_    0.813783 0.480563 0.625041 0.245180
H53   H     H_    0.749013 0.519576 0.574185 0.258611
C66   C     C_3   0.174688 0.354825 0.274616 -0.857466
H54   H     H_    0.128271 0.284519 0.228639 0.217249
H55   H     H_    0.220205 0.361854 0.335073 0.230316
H56   H     H_    0.134225 0.383449 0.288487 0.252383
O29   O     O_3   0.905907 0.656773 0.865454 -0.712969
H57   H     H_    0.868375 0.677609 0.881724 0.388971
O30   O     O_3   0.157504 0.359502 0.079833 -0.739845
H58   H     H_    0.216324 0.378244 0.085944 0.394170
O31   O     O_3   0.979942 0.262355 0.603288 -0.733380
H59   H     H_    0.036855 0.315964 0.644651 0.346528
O32   O     O_3   0.838748 0.731660 0.249283 -0.726027
H60   H     H_    0.837254 0.765573 0.218963 0.337927
O33   O     O_3   0.685751 0.607642 0.806706 -0.683831
H61   H     H_    0.654544 0.608604 0.840722 0.355042
O34   O     O_3   0.384281 0.495866 0.225589 -0.724107
H62   H     H_    0.445454 0.518856 0.268938 0.366364
O35   O     O_3   0.787180 0.594071 0.922529 -0.717981
H63   H     H_    0.825538 0.586458 0.966718 0.343268
O36   O     O_3   0.281706 0.523601 0.122357 -0.698110
H64   H     H_    0.340717 0.556737 0.131186 0.351562
O37   O     O_3   0.671496 0.367476 0.576947 -0.707204
H65   H     H_    0.649118 0.304774 0.557482 0.328262
O38   O     O_3   0.242449 0.527208 0.405645 -0.751309
H66   H     H_    0.233809 0.574053 0.439362 0.327634
O39   O     O_3   0.732504 0.341208 0.741195 -0.693724
H67   H     H_    0.710263 0.288327 0.686295 0.339047
O40   O     O_3   0.189974 0.619537 0.297513 -0.770333
H68   H     H_    0.179621 0.635291 0.347830 0.325188
C67   C     C_3   0.686420 0.444270 0.855039 -0.759024
H69   H     H_    0.643604 0.463411 0.876967 0.216304
H70   H     H_    0.642577 0.381193 0.794179 0.226508
H71   H     H_    0.726067 0.435310 0.906106 0.269293
C68   C     C_3   0.318818 0.654479 0.242941 -0.810271
H72   H     H_    0.381572 0.685955 0.244263 0.190654
H73   H     H_    0.274438 0.671625 0.206003 0.272698
H74   H     H_    0.333235 0.686659 0.311086 0.228266
C69   C     C_3   0.987454 0.095845 0.767923 -0.823071
H75   H     H_    0.952359 0.073597 0.800616 0.229382
H76   H     H_    0.973333 0.036764 0.713063 0.243700
H77   H     H_    0.058309 0.133577 0.814914 0.249608
C70   C     C_3   0.171509 0.871852 0.394983 -0.841718
H78   H     H_    0.220713 0.852529 0.419171 0.237036
H79   H     H_    0.183735 0.894196 0.350393 0.236854
H80   H     H_    0.183148 0.926510 0.452455 0.254337
O41   O     O_3   0.860061 0.272370 0.709064 -0.767747
H81   H     H_    0.823578 0.264235 0.651818 0.300484
O42   O     O_3   0.894755 0.580496 0.202066 -0.736178
H82   H     H_    0.836237 0.555431 0.197184 0.349543
C71   C     C_3   0.162044 0.422792 0.848195 -0.767250
H83   H     H_    0.132823 0.437654 0.797456 0.275155
H84   H     H_    0.184473 0.475485 0.913161 0.262811
H85   H     H_    0.222481 0.423883 0.849366 0.210135
C72   C     C_3   0.968704 0.759545 0.084330 -0.834601
H86   H     H_    0.968718 0.707506 0.034318 0.282409
H87   H     H_    0.901179 0.747334 0.064178 0.254972
H88   H     H_    0.003958 0.820455 0.085035 0.237504
O43   O     O_3   0.363239 0.394959 0.655034 -0.732547
H89   H     H_    0.383791 0.396641 0.711786 0.315489
O44   O     O_3   0.619019 0.606451 0.341910 -0.734059
H90   H     H_    0.598527 0.609073 0.287408 0.326562
C73   C     C_3   0.434197 0.314085 0.619066 -0.818489
H91   H     H_    0.463692 0.329452 0.687805 0.188206
H92   H     H_    0.425602 0.249492 0.580938 0.261665
H93   H     H_    0.481934 0.362712 0.613752 0.213215
C74   C     C_3   0.576040 0.708807 0.400863 -0.815664
H94   H     H_    0.536292 0.689775 0.332166 0.198177
H95   H     H_    0.534006 0.674044 0.421317 0.234655
H96   H     H_    0.598272 0.778325 0.439419 0.249313
C75   C     C_3   0.237691 0.415831 0.520185 -0.695273
H97   H     H_    0.276654 0.452445 0.591857 0.283807
H98   H     H_    0.269230 0.452521 0.493761 0.264044
H99   H     H_    0.173459 0.413311 0.500654 0.215859
C76   C     C_3   0.751242 0.576526 0.447750 -0.679805
H100  H     H_    0.708353 0.525023 0.453409 0.232231
H101  H     H_    0.723224 0.559395 0.378768 0.282739
H102  H     H_    0.811588 0.571511 0.466794 0.198237
C77   C     C_3   0.147283 0.304139 0.572086 -0.794826
H103  H     H_    0.209897 0.352450 0.632685 0.257680
H104  H     H_    0.109575 0.336970 0.556438 0.243197
H105  H     H_    0.109356 0.255485 0.584611 0.229586
C78   C     C_3   0.877213 0.709786 0.445834 -0.809108
H106  H     H_    0.823960 0.668817 0.377531 0.259113
H107  H     H_    0.928710 0.764284 0.450407 0.228922
H108  H     H_    0.908891 0.672942 0.463302 0.221509

loop_
_geom_bond_atom_site_label_1
_geom_bond_atom_site_label_2
_ccdc_geom_bond_type
C34   O18   A    
C15   H9    S    
O36   H64   S    
C1    C21   S    
O29   H57   S    
Cu4   O16   S    
C69   H77   S    
C71   H84   S    
C71   H83   S    
C35   O19   A    
O32   H60   S    
C24   O12   A    
C3    C11   S    
Cu6   O7    S    
C53   O31   S    
Cu3   O22   S    
C27   C67   S    
C64   H48   S    
C68   H72   S    
C3    O27   S    
C50   H18   S    
C44   C48   S    
C20   C30   S    
C73   H91   S    
C74   H96   S    
C24   O14   A    
C62   H43   S    
C14   C64   S    
O33   H61   S    
C19   C21   S    
Cu6   O6    S    
C15   O29   S    
C75   H99   S    
C11   C61   S    
C68   H73   S    
C20   O38   S    
C55   O43   S    
C60   H6    S    
C34   O16   A    
Cu4   O21   S    
C57   H33   S    
C2    O2    A    
C76   H102  S    
C47   C71   S    
O43   H89   S    
C9    C77   S    
C60   C76   S    
C8    C36   S    
Cu5   O5    S    
C19   H11   S    
C38   O4    A    
C34   C52   S    
C59   C75   S    
C1    O9    A    
C37   O23   A    
C65   H51   S    
C50   H24   S    
O44   H90   S    
C45   O25   S    
C70   H79   S    
C5    C23   S    
C48   C72   S    
C2    C22   S    
C61   H41   S    
C30   O40   S    
C72   H86   S    
C13   C63   S    
C54   O32   S    
C66   H55   S    
C48   H30   S    
C78   H106  S    
C27   O35   S    
Cu5   O8    S    
C17   H15   S    
C44   H26   S    
C40   O8    A    
C30   H14   S    
C44   C52   S    
Cu2   O12   S    
C16   H10   S    
C45   C53   S    
O42   H82   S    
C75   H98   S    
C31   C47   S    
C16   O30   S    
C16   C26   S    
C53   H19   S    
C32   C48   S    
C69   H75   S    
C9    H7    S    
C31   C49   S    
Cu1   O10   S    
C18   H16   S    
C41   C49   S    
C56   C74   S    
C64   H49   S    
C52   C54   S    
C7    C11   S    
C4    O28   S    
C67   H70   S    
C25   C29   S    
C33   O17   A    
C41   H21   S    
C62   H44   S    
C33   O15   A    
C5    C59   S    
C13   C21   S    
C17   C27   S    
O35   H63   S    
C6    C60   S    
C46   O26   S    
C35   O21   A    
C58   H34   S    
C56   O44   S    
C4    C6    S    
C65   H53   S    
C49   H23   S    
O34   H62   S    
C54   H20   S    
Cu3   O18   S    
C68   H74   S    
C74   H94   S    
C67   H69   S    
C4    H2    S    
O41   H81   S    
C17   C21   S    
Cu4   O17   S    
O40   H68   S    
C9    C59   S    
C63   H46   S    
C42   C70   S    
Cu1   O1    S    
C19   O37   S    
C55   C73   S    
C77   H103  S    
O38   H66   S    
C23   O13   A    
C75   H97   S    
Cu3   O19   S    
C28   O36   S    
O30   H58   S    
C29   H13   S    
C13   C15   S    
C8    C12   S    
C70   H80   S    
C57   H31   S    
C46   C54   S    
C76   H100  S    
C18   C28   S    
C32   C37   S    
C66   H56   S    
C33   C51   S    
C78   H107  S    
C32   C50   S    
C42   C50   S    
C49   H17   S    
C41   C51   S    
C20   C22   S    
Cu5   Cu6   S    
C55   C57   S    
C14   C66   S    
C61   H39   S    
C71   H85   S    
C14   C16   S    
C63   H47   S    
C4    C12   S    
O28   H38   S    
C19   C29   S    
C1    O1    A    
C64   H50   S    
C40   O6    A    
O27   H37   S    
C72   H88   S    
C39   O5    A    
C73   H93   S    
C10   C60   S    
C2    O10   A    
C10   C78   S    
C8    C58   S    
C67   H71   S    
Cu2   O13   S    
C18   C22   S    
C32   C46   S    
Cu6   O3    S    
C5    C55   S    
C3    H1    S    
C6    C56   S    
C43   C47   S    
C3    C5    S    
Cu4   O20   S    
C39   O7    A    
C37   O3    A    
C18   O34   S    
C11   H3    S    
C26   C30   S    
C6    C24   S    
C41   C69   S    
C58   H32   S    
C77   H105  S    
C23   O11   A    
C62   H42   S    
C26   C28   S    
C74   H95   S    
C31   C38   S    
C20   H12   S    
C43   H27   S    
C14   C22   S    
C65   H52   S    
C73   H92   S    
C13   C65   S    
C77   H104  S    
C36   O22   A    
C17   O33   S    
C63   H45   S    
C25   C39   S    
C10   H8    S    
C26   C40   S    
C46   O42   S    
O25   H35   S    
Cu2   O9    S    
O31   H59   S    
Cu3   O15   S    
C43   C51   S    
C7    C35   S    
C76   H101  S    
C56   C58   S    
Cu6   O24   S    
C12   H4    S    
Cu5   O23   S    
Cu1   Cu2   S    
C36   O20   A    
C78   H108  S    
C43   H25   S    
C44   H28   S    
O39   H67   S    
O37   H65   S    
Cu3   Cu4   S    
C7    C9    S    
C42   H22   S    
C15   C25   S    
C8    C10   S    
C70   H78   S    
C31   C45   S    
C42   C52   S    
Cu1   O14   S    
C61   H40   S    
C47   H29   S    
C12   C62   S    
C29   O39   S    
Cu5   O4    S    
C51   C53   S    
C66   H54   S    
C28   C68   S    
C72   H87   S    
C45   O41   S    
C7    C57   S    
C38   O24   A    
O26   H36   S    
C59   H5    S    
C69   H76   S    
Cu2   O2    S    
C25   C27   S    
Cu1   O11   S    
