data_mof_unit_36882.cif
_audit_creation_date              2012-10-26T18:43:29-0400
_audit_creation_method            fapswitch 2.2
_symmetry_space_group_name_H-M    P1
_symmetry_Int_Tables_number       1
_space_group_crystal_system       triclinic
_cell_length_a                    10.729016
_cell_length_b                    10.815583
_cell_length_c                    9.555909
_cell_angle_alpha                 89.973365
_cell_angle_beta                  90.105974
_cell_angle_gamma                 90.239622
_cell_volume                      1108.86135081

loop_
_atom_site_label
_atom_site_type_symbol
_atom_type_description
_atom_site_fract_x
_atom_site_fract_y
_atom_site_fract_z
_atom_type_partial_charge
C1    C     C_R   0.501547 0.262448 0.500090 0.538088
C2    C     C_R   0.489761 0.936435 0.624439 0.095355
C3    C     C_3   0.380947 0.930297 0.721749 -0.247403
C4    C     C_R   0.259920 0.496997 0.499772 0.534886
C5    C     C_3   0.382220 0.070581 0.722267 -0.283969
C6    C     C_R   0.604025 0.534553 0.074094 0.054766
C7    C     C_R   0.402086 0.453362 0.074130 -0.008376
C8    C     C_R   0.402060 0.453389 0.925428 -0.021925
C9    C     C_R   0.604388 0.534038 0.926786 0.210132
C10   C     C_3   0.670885 0.655648 0.923742 0.683440
C11   C     C_3   0.669458 0.655943 0.082282 -0.168747
C12   C     C_3   0.878234 0.495541 0.499130 0.039499
C13   C     C_R   0.501252 0.737662 0.500021 0.553376
C14   C     C_R   0.740152 0.497458 0.499875 0.545910
C15   C     C_3   0.071676 0.400898 0.607970 -0.235309
C16   C     C_3   0.927945 0.402650 0.609614 -0.229906
C17   C     C_3   0.072823 0.625589 0.536226 -0.238492
C18   C     C_3   0.071220 0.457935 0.352639 -0.232111
C19   C     C_3   0.121978 0.495236 0.499143 0.048950
C20   C     C_3   0.929100 0.626431 0.532945 -0.229395
C21   C     C_3   0.928239 0.455906 0.353365 -0.231156
C22   C     C_R   0.490427 0.063770 0.624518 0.029164
C23   C     C_R   0.511552 0.129393 0.501086 -0.000868
C24   C     C_R   0.547283 0.064911 0.380193 -0.163882
C25   C     C_R   0.546899 0.936024 0.380207 -0.167489
C26   C     C_R   0.510724 0.871008 0.500951 0.008928
Cu1   Cu    Cu3+1 0.499990 0.499980 0.640670 1.006395
Cu2   Cu    Cu3+1 0.500010 0.500020 0.359330 0.922960
F1    F     F_    0.789692 0.646950 0.869089 -0.659387
F2    F     F_    0.601783 0.750448 0.866043 -0.624200
H1    H     H_    0.106951 0.423734 0.714508 0.129999
H2    H     H_    0.408847 0.110675 0.825227 0.145739
H3    H     H_    0.104873 0.306297 0.581939 0.105349
H4    H     H_    0.763575 0.648344 0.129862 0.106640
H5    H     H_    0.609771 0.729378 0.127086 0.130905
H6    H     H_    0.891236 0.308253 0.587414 0.110316
H7    H     H_    0.893391 0.658539 0.635579 0.212235
H8    H     H_    0.103764 0.524866 0.271848 0.135802
H9    H     H_    0.894167 0.361338 0.327088 0.123658
H10   H     H_    0.321978 0.417059 0.129202 0.114775
H11   H     H_    0.321982 0.417018 0.870089 0.110237
H12   H     H_    0.894033 0.519609 0.270583 0.134773
H13   H     H_    0.895603 0.429082 0.716055 0.171497
H14   H     H_    0.106006 0.653185 0.642207 0.136614
H15   H     H_    0.106666 0.364995 0.322895 0.114376
H16   H     H_    0.109457 0.694962 0.460484 0.113549
H17   H     H_    0.896365 0.693392 0.452488 0.111266
H18   H     H_    0.570875 0.113507 0.284641 0.142888
H19   H     H_    0.570361 0.888026 0.284758 0.135159
H20   H     H_    0.296358 0.889978 0.671718 0.116799
H21   H     H_    0.405730 0.889755 0.824890 0.201028
H22   H     H_    0.298192 0.112085 0.672991 0.124083
N1    N     N_R   0.500800 0.500930 0.147930 -0.237680
N2    N     N_R   0.500800 0.500890 0.852020 -0.235418
O1    O     O_R   0.500000 0.319640 0.618810 -0.506776
O2    O     O_R   0.500010 0.319680 0.381230 -0.508159
O3    O     O_R   0.317690 0.499960 0.618790 -0.522688
O4    O     O_R   0.317700 0.500000 0.381210 -0.515990
O5    O     O_R   0.499990 0.680320 0.618770 -0.425225
O6    O     O_R   0.500000 0.680360 0.381190 -0.518018
O7    O     O_R   0.682300 0.500000 0.618790 -0.470078
O8    O     O_R   0.682310 0.500040 0.381210 -0.516895

loop_
_geom_bond_atom_site_label_1
_geom_bond_atom_site_label_2
_ccdc_geom_bond_type
C4    O3    A    
C2    C22   A    
C23   C24   A    
C5    H22   S    
C15   H1    S    
C13   O5    A    
Cu2   O4    S    
C18   C21   S    
C4    C19   S    
C9    C10   S    
C10   F2    S    
C24   H18   S    
C10   F1    S    
Cu2   N1    S    
C5    H2    S    
C12   C20   S    
C6    C9    A    
C11   H5    S    
C2    C3    S    
C18   H8    S    
C17   H14   S    
C7    C8    A    
C2    C26   A    
C13   O6    A    
Cu1   O5    S    
C24   C25   A    
C15   C19   S    
C20   H7    S    
C14   O7    A    
C16   H13   S    
C21   H9    S    
C15   C16   S    
C17   C19   S    
C1    O2    A    
C12   C14   S    
C1    C23   S    
Cu1   O1    S    
Cu2   O6    S    
Cu2   O2    S    
C13   C26   S    
C25   H19   S    
C1    O1    A    
Cu1   N2    S    
C20   H17   S    
C10   C11   S    
C7    N1    A    
C6    N1    A    
C4    O4    A    
C21   H12   S    
C14   O8    A    
C18   H15   S    
Cu1   Cu2   S    
C17   C20   S    
C17   H16   S    
C18   C19   S    
Cu1   O3    S    
C8    N2    A    
C6    C11   S    
C3    H21   S    
C22   C23   A    
C9    N2    A    
Cu1   O7    S    
C8    H11   S    
C25   C26   A    
C7    H10   S    
C12   C21   S    
C3    H20   S    
C11   H4    S    
C16   H6    S    
C5    C22   S    
C12   C16   S    
C15   H3    S    
C3    C5    S    
Cu2   O8    S    
