data_mof_unit_5700.cif
_audit_creation_date              2012-12-10T19:05:55-0500
_audit_creation_method            fapswitch 2.2
_symmetry_space_group_name_H-M    P1
_symmetry_Int_Tables_number       1
_space_group_crystal_system       triclinic
_cell_length_a                    19.320315
_cell_length_b                    10.816982
_cell_length_c                    9.550124
_cell_angle_alpha                 90.033202
_cell_angle_beta                  90.26825
_cell_angle_gamma                 90.200056
_cell_volume                      1995.8221409

loop_
_atom_site_label
_atom_site_type_symbol
_atom_type_description
_atom_site_fract_x
_atom_site_fract_y
_atom_site_fract_z
_atom_type_partial_charge
C1    C     C_R   0.499181 0.262446 0.500040 0.794620
C2    C     C_R   0.291344 0.508952 0.498947 -0.137174
C3    C     C_R   0.929357 0.514222 0.502797 0.401799
C4    C     C_R   0.069514 0.503186 0.499691 0.428226
C5    C     C_R   0.817615 0.445457 0.602309 -0.180292
C6    C     C_R   0.745645 0.439542 0.601101 -0.176121
C7    C     C_R   0.707929 0.505570 0.500962 -0.107887
C8    C     C_R   0.742597 0.579654 0.403641 -0.123830
C9    C     C_R   0.814595 0.590259 0.406785 0.443765
C10   C     C_R   0.853110 0.518865 0.504539 -0.056654
C11   C     C_R   0.507903 0.063936 0.623682 0.076413
C12   C     C_R   0.367478 0.503555 0.499639 0.769597
C13   C     C_R   0.494096 0.129348 0.500993 -0.109041
C14   C     C_R   0.472498 0.064286 0.380910 -0.174571
C15   C     C_R   0.472685 0.935208 0.380802 -0.200601
C16   C     C_R   0.495235 0.870671 0.500260 -0.058336
C17   C     C_R   0.510460 0.936953 0.621913 0.109481
C18   C     C_3   0.570492 0.932844 0.722962 -0.389248
C19   C     C_3   0.567250 0.074215 0.724500 -0.266063
C20   C     C_R   0.535122 0.589348 0.074375 0.187069
C21   C     C_R   0.459666 0.419984 0.073958 -0.013309
C22   C     C_R   0.459438 0.420334 0.925082 -0.004229
C23   C     C_R   0.499377 0.737525 0.499935 0.828770
C24   C     C_R   0.536186 0.587885 0.927095 0.217177
C25   C     C_3   0.612628 0.611150 0.926165 0.185051
C26   C     C_3   0.610503 0.616838 0.084791 -0.504950
C27   C     C_R   0.632345 0.500603 0.500257 0.840181
C28   C     C_R   0.255154 0.456418 0.611498 -0.219595
C29   C     C_R   0.183083 0.454278 0.611919 -0.143899
C30   C     C_R   0.145698 0.502944 0.498672 -0.034128
C31   C     C_R   0.181540 0.555511 0.385918 -0.136246
C32   C     C_R   0.253650 0.562711 0.386587 0.403586
Cu1   Cu    Cu3+1 0.500000 0.499980 0.640670 1.001286
Cu2   Cu    Cu3+1 0.500000 0.500020 0.359330 0.972591
H1    H     H_    0.282686 0.415287 0.698802 0.169095
H2    H     H_    0.457497 0.886496 0.286340 0.168706
H3    H     H_    0.555840 0.887875 0.823328 0.144859
H4    H     H_    0.612893 0.121554 0.677410 0.147882
H5    H     H_    0.428195 0.353357 0.129408 0.126032
H6    H     H_    0.427731 0.354069 0.868931 0.133374
H7    H     H_    0.627451 0.699169 0.874402 0.104291
H8    H     H_    0.640389 0.541739 0.136042 0.245445
H9    H     H_    0.156673 0.413092 0.700219 0.171649
H10   H     H_    0.620574 0.711036 0.126927 0.170134
H11   H     H_    0.153479 0.596295 0.299102 0.180255
H12   H     H_    0.845628 0.390140 0.678055 0.182059
H13   H     H_    0.719474 0.380930 0.676160 0.193761
H14   H     H_    0.713469 0.634148 0.328848 0.167440
H15   H     H_    0.457512 0.112721 0.286380 0.156376
N1    N     N_R   0.033318 0.523448 0.379838 -0.226310
N2    N     N_R   0.964573 0.528042 0.381221 -0.200494
N3    N     N_R   0.965469 0.491801 0.622332 -0.215500
N4    N     N_R   0.034254 0.486585 0.620861 -0.221081
N5    N     N_R   0.500440 0.500930 0.147930 -0.172575
N6    N     N_R   0.500440 0.500890 0.852020 -0.161898
O1    O     O_R   0.500000 0.319640 0.618810 -0.576135
O2    O     O_R   0.500010 0.319680 0.381230 -0.580760
O3    O     O_R   0.400140 0.499970 0.618830 -0.587169
O4    O     O_R   0.400150 0.500010 0.381250 -0.572795
O5    O     O_R   0.499990 0.680320 0.618770 -0.594565
O6    O     O_R   0.500000 0.680360 0.381190 -0.587095
O7    O     O_R   0.599850 0.499990 0.618750 -0.518000
O8    O     O_R   0.599860 0.500030 0.381170 -0.587720
C33   C     C_2   0.638925 0.886423 0.666190 0.883719
O9    O     O_2   0.642942 0.842524 0.548732 -0.559824
O10   O     O_R   0.698786 0.893904 0.748391 -0.716579
H16   H     H_    0.689858 0.931320 0.843896 0.299565
C34   C     C_2   0.546138 0.127571 0.863479 0.893951
O11   O     O_2   0.581585 0.208568 0.917428 -0.559589
O12   O     O_R   0.486391 0.084955 0.930379 -0.773237
H17   H     H_    0.477922 0.128538 0.022665 0.312542
O13   O     O_3   0.649718 0.507999 0.879982 -0.650089
H18   H     H_    0.699254 0.532096 0.885484 0.338106
O14   O     O_3   0.284612 0.625819 0.278038 -0.718673
H19   H     H_    0.326887 0.666902 0.314447 0.325828
O15   O     O_3   0.844580 0.673334 0.315727 -0.699322
H20   H     H_    0.887154 0.706654 0.359988 0.340901

loop_
_geom_bond_atom_site_label_1
_geom_bond_atom_site_label_2
_ccdc_geom_bond_type
Cu1   N6    S    
Cu1   O3    S    
C4    N4    A    
C2    C12   S    
C26   H10   S    
C7    C8    A    
C24   N6    A    
C11   C19   S    
C5    C6    A    
C28   C29   A    
C19   H4    S    
C18   H3    S    
Cu1   O7    S    
C32   O14   S    
C21   N5    A    
C14   H15   S    
C15   C16   A    
C7    C27   S    
C2    C32   A    
C18   C19   S    
C34   O11   D    
C12   O4    A    
C20   C24   A    
C28   H1    S    
C8    C9    A    
Cu2   O2    S    
O12   H17   S    
C9    O15   S    
C9    C10   A    
C12   O3    A    
Cu1   O1    S    
O10   H16   S    
C21   C22   A    
C29   H9    S    
Cu1   Cu2   S    
C23   O5    A    
C6    H13   S    
O15   H20   S    
C20   N5    A    
O14   H19   S    
C25   H7    S    
C3    N2    A    
C16   C17   A    
N1    N2    A    
C25   C26   S    
Cu2   O6    S    
C4    N1    A    
C33   O10   S    
C8    H14   S    
C29   C30   A    
C27   O7    A    
C1    O2    A    
C31   C32   A    
C21   H5    S    
C22   H6    S    
C17   C18   S    
C19   C34   S    
C25   O13   S    
C24   C25   S    
C6    C7    A    
C27   O8    A    
Cu2   N5    S    
Cu1   O5    S    
Cu2   O4    S    
C1    C13   S    
C15   H2    S    
N3    N4    A    
C26   H8    S    
C11   C17   A    
C1    O1    A    
O13   H18   S    
C3    N3    A    
C22   N6    A    
C16   C23   S    
C5    H12   S    
C33   O9    D    
C5    C10   A    
C3    C10   S    
C11   C13   A    
C18   C33   S    
C30   C31   A    
C20   C26   S    
Cu2   O8    S    
C23   O6    A    
C34   O12   S    
C31   H11   S    
C14   C15   A    
C2    C28   A    
C13   C14   A    
C4    C30   S    
