data_mof_unit_59486.cif
_audit_creation_date              2012-12-11T15:11:43-0500
_audit_creation_method            fapswitch 2.2
_symmetry_space_group_name_H-M    P1
_symmetry_Int_Tables_number       1
_space_group_crystal_system       triclinic
_cell_length_a                    20.14255
_cell_length_b                    7.094004
_cell_length_c                    13.71078
_cell_angle_alpha                 89.999984
_cell_angle_beta                  103.843054
_cell_angle_gamma                 90.0
_cell_volume                      1902.24757205

loop_
_atom_site_label
_atom_site_type_symbol
_atom_type_description
_atom_site_fract_x
_atom_site_fract_y
_atom_site_fract_z
_atom_type_partial_charge
O1    O     O_R   0.449830 0.506740 0.599960 -0.536497
O2    O     O_R   0.550170 0.006740 0.400040 -0.536496
O3    O     O_R   0.588980 0.179860 0.596720 -0.549504
O4    O     O_R   0.411020 0.679860 0.403280 -0.549504
C1    C     C_R   0.615532 0.344887 0.621798 0.717720
C2    C     C_R   0.384468 0.844887 0.378202 0.717720
O5    O     O_R   0.452740 0.177340 0.612040 -0.543336
O6    O     O_R   0.547260 0.677340 0.387960 -0.543336
O7    O     O_R   0.412960 0.002070 0.415460 -0.543062
O8    O     O_R   0.587040 0.502070 0.584540 -0.543062
C3    C     C_R   0.436634 0.346403 0.638430 0.756921
C4    C     C_R   0.563366 0.846403 0.361570 0.756920
O9    O     O_3   0.487110 0.337570 0.435490 -0.375254
O10   O     O_3   0.512890 0.837570 0.564510 -0.375254
V1    V     V_3+5 0.502390 0.064650 0.511970 1.436367
V2    V     V_3+5 0.497610 0.564650 0.488030 1.436367
C5    C     C_R   0.615192 0.996155 0.129919 -0.134125
C6    C     C_R   0.384808 0.496155 0.870081 -0.134125
H1    H     H_    0.521318 0.972308 0.174977 0.192935
H2    H     H_    0.478682 0.472308 0.825023 0.192935
H3    H     H_    0.702264 0.115737 0.026038 0.157511
H4    H     H_    0.297736 0.615737 0.973962 0.157511
H5    H     H_    0.590917 0.068875 0.061074 0.157556
H6    H     H_    0.409083 0.568875 0.938925 0.157556
C7    C     C_R   0.605631 0.861293 0.288085 -0.054602
C8    C     C_R   0.394369 0.361293 0.711915 -0.054602
C9    C     C_R   0.925367 0.711927 0.291059 -0.151259
C10   C     C_R   0.074633 0.211927 0.708941 -0.151259
C11   C     C_R   0.883089 0.609147 0.337604 -0.125763
C12   C     C_R   0.116911 0.109146 0.662397 -0.125763
C13   C     C_R   0.813348 0.645416 0.314656 -0.183134
C14   C     C_R   0.186652 0.145416 0.685344 -0.183134
C15   C     C_R   0.785848 0.801524 0.254689 0.082992
C16   C     C_R   0.214152 0.301524 0.745311 0.082992
C17   C     C_R   0.827035 0.887698 0.196074 0.075685
C18   C     C_R   0.172965 0.387698 0.803926 0.075685
C19   C     C_R   0.716496 0.859570 0.242566 0.034831
C20   C     C_R   0.283504 0.359570 0.757434 0.034830
C21   C     C_R   0.685532 0.961529 0.154155 0.117145
C22   C     C_R   0.314468 0.461529 0.845844 0.117145
C23   C     C_R   0.725347 0.032512 0.091742 -0.171790
C24   C     C_R   0.274653 0.532512 0.908258 -0.171790
C25   C     C_R   0.795656 0.004223 0.115285 -0.218243
C26   C     C_R   0.204344 0.504223 0.884715 -0.218243
C27   C     C_R   0.677417 0.829468 0.316012 0.075015
C28   C     C_R   0.322583 0.329468 0.683988 0.075015
C29   C     C_R   0.575463 0.941010 0.194814 -0.191560
C30   C     C_R   0.424537 0.441010 0.805186 -0.191560
C31   C     C_R   0.897475 0.841716 0.214889 -0.092614
C32   C     C_R   0.102525 0.341716 0.785111 -0.092614
H7    H     H_    0.978860 0.672740 0.305236 0.104156
H8    H     H_    0.021140 0.172740 0.694764 0.104156
H9    H     H_    0.781079 0.550737 0.344720 0.119811
H10   H     H_    0.218921 0.050737 0.655280 0.119811
H11   H     H_    0.903985 0.495246 0.388233 0.119329
H12   H     H_    0.096014 0.995246 0.611767 0.119329
H13   H     H_    0.824731 0.069008 0.067507 0.129046
H14   H     H_    0.175269 0.569009 0.932493 0.129046
C33   C     C_3   0.220879 0.659747 0.185778 -0.324242
C34   C     C_3   0.779121 0.159747 0.814222 -0.324241
H15   H     H_    0.189012 0.554563 0.214169 0.146414
H16   H     H_    0.810988 0.054563 0.785831 0.146414
H17   H     H_    0.222537 0.616179 0.108590 0.139291
H18   H     H_    0.777463 0.116179 0.891410 0.139291
C35   C     C_3   0.294051 0.657011 0.253649 -0.290162
C36   C     C_3   0.705949 0.157011 0.746351 -0.290162
H19   H     H_    0.330723 0.616576 0.208201 0.190485
H20   H     H_    0.669277 0.116576 0.791799 0.190485
H21   H     H_    0.297196 0.544547 0.310158 0.135465
H22   H     H_    0.702804 0.044547 0.689842 0.135465
H23   H     H_    0.153565 0.809803 0.320888 0.136505
H24   H     H_    0.846435 0.309803 0.679112 0.136505
H25   H     H_    0.260767 0.811932 0.426161 0.151491
H26   H     H_    0.739232 0.311933 0.573839 0.151491
C37   C     C_3   0.186659 0.911248 0.292431 -0.333534
C38   C     C_3   0.813341 0.411248 0.707569 -0.333536
C39   C     C_3   0.237066 0.000602 0.147451 -0.327746
C40   C     C_3   0.762934 0.500602 0.852549 -0.327747
C41   C     C_3   0.188704 0.859015 0.183613 0.067397
C42   C     C_3   0.811296 0.359015 0.816387 0.067397
H27   H     H_    0.215626 0.145697 0.144193 0.121853
H28   H     H_    0.784373 0.645697 0.855807 0.121853
H29   H     H_    0.239651 0.963277 0.069616 0.175797
H30   H     H_    0.760349 0.463277 0.930384 0.175797
C43   C     C_3   0.314132 0.852255 0.304849 0.056473
C44   C     C_3   0.685868 0.352255 0.695151 0.056473
C45   C     C_3   0.259478 0.908960 0.362410 -0.423416
C46   C     C_3   0.740522 0.408961 0.637590 -0.423415
C47   C     C_3   0.309991 0.000959 0.219643 0.258240
C48   C     C_3   0.690009 0.500959 0.780357 0.258240
H31   H     H_    0.320003 0.143520 0.253975 0.095887
H32   H     H_    0.679997 0.643520 0.746025 0.095887
H33   H     H_    0.163839 0.053821 0.293940 0.143643
H34   H     H_    0.836160 0.553821 0.706060 0.143643
H35   H     H_    0.271178 0.052327 0.394020 0.147041
H36   H     H_    0.728822 0.552327 0.605980 0.147041
O11   O     O_R   0.912980 0.203550 0.915410 -0.543421
O12   O     O_R   0.087020 0.703550 0.084590 -0.543421
O13   O     O_R   0.047270 0.535570 0.887960 -0.546446
O14   O     O_R   0.952730 0.035570 0.112040 -0.546446
C49   C     C_R   0.063894 0.366652 0.862273 0.692000
C50   C     C_R   0.936106 0.866652 0.137727 0.692000
O15   O     O_R   0.911030 0.532970 0.903270 -0.544736
O16   O     O_R   0.088970 0.032970 0.096730 -0.544736
O17   O     O_R   0.949820 0.708150 0.099970 -0.533924
O18   O     O_R   0.050180 0.208150 0.900030 -0.533924
C51   C     C_R   0.883088 0.365092 0.884191 0.662923
C52   C     C_R   0.116912 0.865092 0.115809 0.662923
O19   O     O_3   0.012900 0.375230 0.064480 -0.374891
O20   O     O_3   0.987100 0.875230 0.935520 -0.374891
V3    V     V_3+5 0.997610 0.648190 0.988040 1.396931
V4    V     V_3+5 0.002390 0.148190 0.011960 1.396931
Cl1   Cl    Cl    0.373915 0.963446 0.150393 -0.741948
Cl2   Cl    Cl    0.626085 0.463445 0.849607 -0.741948
C53   C     C_3   0.711536 0.790329 0.426423 -0.411502
C54   C     C_3   0.699754 0.945539 0.497455 -0.751321
H37   H     H_    0.687603 0.081930 0.457385 0.228238
H38   H     H_    0.657957 0.904318 0.533016 0.229804
H39   H     H_    0.746696 0.965089 0.558511 0.195308
H40   H     H_    0.692807 0.652939 0.447594 0.170561
H41   H     H_    0.767599 0.783844 0.442076 0.199264
C55   C     C_3   0.288464 0.290328 0.573577 -0.411502
C56   C     C_3   0.300246 0.445539 0.502545 -0.751321
H42   H     H_    0.312398 0.581930 0.542614 0.228238
H43   H     H_    0.342043 0.404317 0.466984 0.229804
H44   H     H_    0.253304 0.465088 0.441489 0.195308
H45   H     H_    0.307193 0.152939 0.552406 0.170561
H46   H     H_    0.232401 0.283844 0.557924 0.199264

loop_
_geom_bond_atom_site_label_1
_geom_bond_atom_site_label_2
_ccdc_geom_bond_type
C36   H20   S    
C46   H36   S    
C53   H41   S    
C9    C11   A    
O1    C3    A    
H24   C38   S    
O2    C4    A    
C2    O7    A    
O3    V1    S    
C56   H42   S    
C21   C23   A    
O18   V4    S    
C40   C48   S    
O5    C3    A    
C42   C51   S    
C39   C47   S    
C5    H5    S    
C2    C43   S    
C6    H6    S    
O15   V3    S    
C20   C22   A    
O19   V3    S    
C44   C46   S    
C56   H43   S    
C39   H29   S    
C53   C54   S    
O12   C52   A    
C54   H37   S    
C50   O17   A    
C34   H16   S    
C5    C21   A    
C55   H45   S    
C27   C53   S    
O20   V3    S    
H25   C45   S    
C6    C22   A    
C38   H34   S    
C10   C32   A    
C26   H14   S    
C35   H19   S    
C45   H35   S    
C17   C31   A    
C13   C15   A    
C47   H31   S    
C17   C25   A    
C7    C29   A    
C16   C18   A    
C8    C30   A    
O5    V1    S    
O17   V3    S    
C34   C36   S    
O6    V2    S    
H23   C37   S    
C23   C25   A    
C24   C26   A    
C14   H10   S    
C9    H7    S    
C39   C41   S    
C47   Cl1   S    
C33   H15   S    
C43   C45   S    
C38   C42   S    
O4    C2    A    
C44   C48   S    
O19   V4    S    
C33   C41   S    
C31   C50   S    
O16   V4    S    
O11   V4    S    
C43   C47   S    
C56   H44   S    
C11   H11   S    
C3    C8    S    
C12   H12   S    
C15   C19   A    
C14   C16   A    
O4    V2    S    
C40   H28   S    
C48   H32   S    
C39   H27   S    
O6    C4    A    
O13   V3    S    
O14   C50   A    
C40   C42   S    
O1    V2    S    
C13   H9    S    
O2    V1    S    
H2    C30   S    
H3    C23   S    
C1    C44   S    
C37   C45   S    
O13   C49   A    
O14   V4    S    
C18   C26   A    
C19   C27   A    
C7    C27   A    
O16   C52   A    
C18   C32   A    
C37   H33   S    
C49   O18   A    
C38   C46   S    
C34   C42   S    
O12   V3    S    
C16   C20   A    
C5    C29   A    
O3    C1    A    
C6    C30   A    
C36   C44   S    
C35   C43   S    
C36   H22   S    
C33   H17   S    
C54   H39   S    
C4    C7    S    
C34   H18   S    
C10   C12   A    
O7    V1    S    
C1    O8    A    
C11   C13   A    
O8    V2    S    
C33   C35   S    
C12   C14   A    
C10   H8    S    
H4    C24   S    
C35   H21   S    
C22   C24   A    
C15   C17   A    
C54   H38   S    
C41   C52   S    
H1    C29   S    
C48   Cl2   S    
C55   H46   S    
O20   V4    S    
C20   C28   A    
C25   H13   S    
O11   C51   A    
C40   H30   S    
C32   C49   S    
C19   C21   A    
C53   H40   S    
O9    V2    S    
O10   V1    S    
C28   C55   S    
O15   C51   A    
H26   C46   S    
C55   C56   S    
C8    C28   A    
C37   C41   S    
C9    C31   A    
