data_mof_unit_32125.cif
_audit_creation_date              2013-03-05T16:22:15-0500
_audit_creation_method            fapswitch 2.2
_symmetry_space_group_name_H-M    P1
_symmetry_Int_Tables_number       1
_space_group_crystal_system       triclinic
_cell_length_a                    10.484186
_cell_length_b                    10.480827
_cell_length_c                    9.807071
_cell_angle_alpha                 89.696288
_cell_angle_beta                  89.565235
_cell_angle_gamma                 90.045733
_cell_volume                      1077.58324906

loop_
_atom_site_label
_atom_site_type_symbol
_atom_site_description
_atom_site_fract_x
_atom_site_fract_y
_atom_site_fract_z
_atom_type_partial_charge
O1    O     O_R   0.500010 0.313960 0.616610 -0.636867
O2    O     O_R   0.499990 0.686040 0.383390 -0.636877
O3    O     O_R   0.500060 0.313950 0.383350 -0.569452
O4    O     O_R   0.499940 0.686050 0.616650 -0.569417
C1    C     C_R   0.500023 0.257668 0.500444 0.863637
C2    C     C_R   0.499977 0.742332 0.499556 0.863631
O5    O     O_R   0.313930 0.499970 0.616610 -0.637729
O6    O     O_R   0.686070 0.500030 0.383390 -0.637730
O7    O     O_R   0.313980 0.499960 0.383350 -0.582527
O8    O     O_R   0.686020 0.500040 0.616650 -0.582542
C3    C     C_R   0.257660 0.499932 0.500547 0.855979
C4    C     C_R   0.742340 0.500068 0.499453 0.855972
Zn1   Zn    Zn3+2 0.499970 0.500010 0.655740 0.994087
Zn2   Zn    Zn3+2 0.500030 0.499990 0.344260 0.994062
C5    C     C_3   0.039064 0.501924 0.630299 -0.115892
C6    C     C_3   0.960935 0.498076 0.369701 -0.115896
C7    C     C_3   0.956818 0.395966 0.566582 -0.198059
C8    C     C_3   0.043181 0.604034 0.433418 -0.198057
H1    H     H_    0.916725 0.311378 0.620465 0.143080
H2    H     H_    0.083275 0.688622 0.379535 0.143080
H3    H     H_    0.074847 0.503500 0.736547 0.150867
H4    H     H_    0.925153 0.496500 0.263453 0.150865
C9    C     C_3   0.877566 0.500040 0.498295 0.019124
C10   C     C_3   0.122434 0.499960 0.501705 0.019124
C11   C     C_3   0.957113 0.605993 0.561829 -0.155637
C12   C     C_3   0.042887 0.394007 0.438171 -0.155632
H5    H     H_    0.917376 0.692281 0.611688 0.169774
H6    H     H_    0.082624 0.307719 0.388313 0.169776
C13   C     C_3   0.500629 0.039491 0.630256 -0.073897
C14   C     C_3   0.499370 0.960509 0.369744 -0.073957
C15   C     C_3   0.605308 0.957241 0.562865 -0.150030
C16   C     C_3   0.394692 0.042759 0.437134 -0.150064
H7    H     H_    0.690881 0.917473 0.613761 0.177957
H8    H     H_    0.309119 0.082527 0.386239 0.177959
H9    H     H_    0.501166 0.075667 0.736478 0.189863
H10   H     H_    0.498834 0.924333 0.263522 0.189838
C17   C     C_3   0.499981 0.877547 0.498504 -0.009832
C18   C     C_3   0.500019 0.122453 0.501495 -0.009860
C19   C     C_3   0.395299 0.957089 0.565707 -0.196948
C20   C     C_3   0.604701 0.042911 0.434293 -0.197003
H11   H     H_    0.310229 0.917176 0.618928 0.152466
H12   H     H_    0.689771 0.082824 0.381072 0.152459
C21   C     C_3   0.448198 0.399759 0.047697 0.439702
C22   C     C_3   0.551801 0.600241 0.952302 0.439714
C23   C     C_3   0.562658 0.402523 0.950941 -0.189960
C24   C     C_3   0.437342 0.597477 0.049058 -0.189961
H13   H     H_    0.613507 0.320039 0.905320 0.168484
H14   H     H_    0.386493 0.679962 0.094679 0.168486
N1    N     N_3   0.499910 0.500030 0.863290 -0.128507
N2    N     N_3   0.500090 0.499970 0.136710 -0.128517
C25   C     C_3   0.384185 0.494717 0.952107 -0.220478
C26   C     C_3   0.615815 0.505284 0.047893 -0.220551
H15   H     H_    0.287274 0.488105 0.907844 0.159869
H16   H     H_    0.712726 0.511895 0.092156 0.159877
N3    N     N_R   0.388096 0.286246 0.105268 0.212711
O9    O     O_R   0.436530 0.174099 0.082354 -0.412791
O10   O     O_R   0.282901 0.296206 0.175435 -0.418844
N4    N     N_R   0.611893 0.713758 0.894728 0.212717
O11   O     O_R   0.563361 0.825881 0.917495 -0.412784
O12   O     O_R   0.717112 0.703813 0.824600 -0.418862

loop_
_geom_bond_atom_site_label_1
_geom_bond_atom_site_label_2
_geom_bond_distance
_ccdc_geom_bond_type
C13   C18   1.529422 S    
C22   N1    1.475522 S    
C18   C20   1.526497 S    
O7    Zn2   1.985041 S    
C15   H7    1.110379 S    
C21   N2    1.475525 S    
C5    C7    1.543141 S    
C8    C10   1.526707 S    
C16   C18   1.526484 S    
C11   H5    1.110283 S    
O7    C3    1.288166 A    
C13   H9    1.110521 S    
C12   H6    1.110284 S    
N2    C26   1.489031 S    
C23   N1    1.488772 S    
O6    C4    1.286013 A    
C21   C25   1.523304 S    
C13   C19   1.543042 S    
N3    O9    1.300737 A    
N3    O10   1.300078 A    
C2    C17   1.417147 S    
C14   C20   1.543043 S    
C17   C19   1.526497 S    
C8    C11   1.543918 S    
C1    C18   1.417146 S    
O5    C3    1.286013 A    
C21   C23   1.524353 S    
C4    C9    1.417691 S    
C22   C26   1.523304 S    
C7    C9    1.526707 S    
O3    Zn2   1.985188 S    
O8    C4    1.288166 A    
O1    C1    1.285728 A    
C7    C12   1.543917 S    
C21   N3    1.455172 S    
C5    C10   1.529190 S    
C7    H1    1.110389 S    
C22   C24   1.524353 S    
C6    C9    1.529190 S    
C8    H2    1.110390 S    
C9    C11   1.526652 S    
C6    C12   1.543135 S    
O2    Zn2   1.989356 S    
Zn1   N1    2.035453 S    
C5    H3    1.110337 S    
C5    C11   1.543136 S    
O4    C2    1.288209 A    
O1    Zn1   1.989356 S    
Zn2   N2    2.035453 S    
N4    O12   1.300074 A    
C14   C16   1.543020 S    
C24   H14   1.110387 S    
C15   C17   1.526484 S    
C3    C10   1.417691 S    
O5    Zn1   1.990727 S    
C15   C20   1.544118 S    
C19   H11   1.110362 S    
C10   C12   1.526651 S    
C6    C8    1.543140 S    
C23   H13   1.110386 S    
C22   N4    1.455169 S    
O4    Zn1   1.985188 S    
C16   C19   1.544118 S    
N1    C25   1.489031 S    
C24   N2    1.488773 S    
C14   H10   1.110522 S    
C6    H4    1.110337 S    
O6    Zn2   1.990726 S    
C23   C26   1.546787 S    
O3    C1    1.288209 A    
N4    O11   1.300660 A    
C13   C15   1.543020 S    
C24   C25   1.546778 S    
O2    C2    1.285728 A    
C14   C17   1.529424 S    
C26   H16   1.110160 S    
C20   H12   1.110362 S    
C25   H15   1.110159 S    
O8    Zn1   1.985040 S    
C16   H8    1.110379 S    
