data_mof_unit_27491.cif
_audit_creation_date              2012-12-11T19:54:07-0500
_audit_creation_method            fapswitch 2.2
_symmetry_space_group_name_H-M    P1
_symmetry_Int_Tables_number       1
_space_group_crystal_system       triclinic
_cell_length_a                    8.206067
_cell_length_b                    16.149474
_cell_length_c                    17.362942
_cell_angle_alpha                 112.267279
_cell_angle_beta                  82.793896
_cell_angle_gamma                 96.18724
_cell_volume                      2108.03394846

loop_
_atom_site_label
_atom_site_type_symbol
_atom_type_description
_atom_site_fract_x
_atom_site_fract_y
_atom_site_fract_z
_atom_type_partial_charge
Ba1   Ba    Ba6+2 0.325860 0.460280 0.530510 1.700617
Ba2   Ba    Ba6+2 0.863950 0.539650 0.469460 1.731110
Br1   Br    Br    0.026137 0.275842 0.123535 -0.491215
C1    C     C_3   0.023053 0.139908 0.668268 -0.246457
C2    C     C_3   0.819520 0.428286 0.760868 -0.019267
C3    C     C_2   0.779065 0.458753 0.853534 -0.115560
C4    C     C_3   0.515299 0.274643 0.701736 0.426309
C5    C     C_2   0.643591 0.504769 0.888572 0.054787
C6    C     C_2   0.557046 0.538135 0.835165 -0.099962
C7    C     C_1   0.622708 0.531972 0.758815 -0.007843
C8    C     C_R   0.405683 0.536293 0.146726 -0.105181
C9    C     C_R   0.345239 0.548329 0.228761 0.013999
C10   C     C_R   0.569231 0.470030 0.242572 0.048233
C11   C     C_R   0.630348 0.457183 0.159489 -0.109864
C12   C     C_3   0.011446 0.230237 0.661532 0.333203
C13   C     C_R   0.551501 0.492339 0.111421 -0.009167
C14   C     C_2   0.579643 0.523343 0.977929 -0.012169
C15   C     C_2   0.617330 0.476284 0.023066 -0.025190
C16   C     C_3   0.540212 0.240049 0.770117 0.318363
C17   C     C_R   0.430216 0.518568 0.277270 -0.301958
C18   C     C_2   0.427045 0.802022 0.569253 0.154849
C19   C     C_R   0.802564 0.247082 0.478287 -0.300412
C20   C     C_2   0.182853 0.874291 0.570500 -0.107226
C21   C     C_2   0.244658 0.806388 0.581428 -0.081924
C22   C     C_2   0.500908 0.816150 0.501165 -0.045432
C23   C     C_3   0.997384 0.674684 0.736691 0.324075
C24   C     C_3   0.441480 0.889876 0.478875 -0.115088
C25   C     C_3   0.294349 0.936908 0.538740 0.070737
C26   C     C_2   0.579601 0.959541 0.479718 0.015251
C27   C     C_2   0.561509 0.027035 0.455706 -0.095611
C28   C     C_3   0.668725 0.260270 0.313728 0.318919
C29   C     C_R   0.851580 0.064211 0.414064 0.001526
C30   C     C_R   0.698286 0.093868 0.455262 -0.048855
C31   C     C_R   0.977545 0.125033 0.402790 -0.127179
C32   C     C_R   0.951236 0.216442 0.432317 0.059449
C33   C     C_R   0.674181 0.186221 0.488335 0.012362
C34   C     C_3   0.021342 0.683829 0.825972 0.330238
C35   C     C_3   0.658708 0.158853 0.269410 -0.340658
C36   C     C_3   0.589016 0.743366 0.811499 0.264827
C37   C     C_3   0.450961 0.772880 0.881081 -0.281113
C38   C     C_3   0.204627 0.332675 0.268364 0.326941
C39   C     C_3   0.233424 0.302182 0.173469 0.087289
C40   C     C_3   0.699223 0.718351 0.291387 0.326883
C41   C     C_3   0.724143 0.744504 0.215119 -0.316749
C42   C     C_3   0.179610 0.766750 0.331768 0.343913
C43   C     C_3   0.175669 0.854468 0.318586 -0.337302
C44   C     C_2   0.757359 0.488431 0.723622 -0.251591
H1    H     H_    0.074014 0.228135 0.600422 0.071222
H2    H     H_    0.325004 0.350637 0.294681 -0.054781
H3    H     H_    0.130349 0.392342 0.292572 0.063688
H4    H     H_    0.153571 0.124964 0.663134 0.176618
H5    H     H_    0.304733 0.241322 0.147981 0.111509
H6    H     H_    0.304172 0.355473 0.155571 0.002388
H7    H     H_    0.879227 0.239301 0.663222 -0.072732
H8    H     H_    0.961630 0.086302 0.616809 0.046800
H9    H     H_    0.866280 0.667872 0.726515 -0.052797
H10   H     H_    0.051747 0.611042 0.695353 -0.010714
H11   H     H_    0.947123 0.628991 0.840295 -0.054490
H12   H     H_    0.755753 0.138870 0.216321 0.172007
H13   H     H_    0.151584 0.673900 0.827905 0.018079
H14   H     H_    0.960709 0.140047 0.728895 0.169442
H15   H     H_    0.652860 0.274643 0.800476 -0.026660
H16   H     H_    0.763917 0.656395 0.276700 0.087711
H17   H     H_    0.565243 0.704657 0.304407 -0.073972
H18   H     H_    0.857449 0.756711 0.198924 0.157562
H19   H     H_    0.672659 0.689649 0.161079 0.078820
H20   H     H_    0.660387 0.806335 0.228119 0.119974
H21   H     H_    0.308657 0.757862 0.338332 -0.071541
H22   H     H_    0.101383 0.770971 0.390017 0.073186
H23   H     H_    0.676378 0.126015 0.312885 0.045060
H24   H     H_    0.217584 0.911652 0.373582 0.058005
H25   H     H_    0.048552 0.864696 0.310060 0.152483
H26   H     H_    0.446780 0.336509 0.727932 0.094261
H27   H     H_    0.258044 0.853186 0.262332 0.123552
H28   H     H_    0.699476 0.422391 0.994632 0.108955
H29   H     H_    0.438734 0.566364 0.859134 0.093764
H30   H     H_    0.334849 0.558398 0.110487 0.091364
H31   H     H_    0.496437 0.576801 0.006049 0.071440
H32   H     H_    0.851165 0.435602 0.888660 0.094930
H33   H     H_    0.737656 0.418942 0.132071 0.139787
H34   H     H_    0.536037 0.135389 0.245402 0.126110
H35   H     H_    0.808463 0.483400 0.661413 0.065691
H36   H     H_    0.381189 0.527539 0.340507 0.068647
H37   H     H_    0.055298 0.888461 0.589307 0.151638
H38   H     H_    0.639194 0.292402 0.676975 -0.254314
H39   H     H_    0.092105 0.100233 0.367447 0.091407
H40   H     H_    0.783145 0.317945 0.501737 0.071485
H41   H     H_    0.695866 0.956812 0.502270 0.119470
H42   H     H_    0.443744 0.033689 0.437064 0.093526
H43   H     H_    0.559473 0.167141 0.742298 0.084885
H44   H     H_    0.792378 0.282866 0.335551 0.011374
H45   H     H_    0.665501 0.804248 0.811533 0.179328
H46   H     H_    0.573303 0.278598 0.367628 0.034990
H47   H     H_    0.908685 0.919425 0.916355 0.379397
H48   H     H_    0.346346 0.821191 0.740652 0.335077
H49   H     H_    0.350148 0.276695 0.980477 0.375894
H50   H     H_    0.668028 0.702078 0.827098 0.000007
H51   H     H_    0.385282 0.714012 0.891508 0.085587
H52   H     H_    0.363895 0.810929 0.865919 0.185601
H53   H     H_    0.503087 0.817052 0.940103 0.149333
O1    O     O_2   0.351410 0.559500 0.703710 -0.469938
O2    O     O_2   0.840067 0.812731 0.506505 -0.451728
O3    O     O_3   0.764530 0.788383 0.359342 -0.614106
O4    O     O_3   0.622300 0.553110 0.604480 -0.462532
O5    O     O_3   0.040530 0.390860 0.438530 -0.496807
O6    O     O_2   0.927940 0.718960 0.581060 -0.396820
O7    O     O_3   0.072472 0.748995 0.719611 -0.585117
O8    O     O_2   0.008142 0.529621 0.224013 -0.458200
O9    O     O_3   0.119044 0.696189 0.262975 -0.596391
O10   O     O_3   0.077860 0.395310 0.623380 -0.499686
O11   O     O_2   0.161239 0.473934 0.779008 -0.471913
O12   O     O_3   0.123389 0.261992 0.288794 -0.617588
O13   O     O_3   0.528206 0.701627 0.732235 -0.589738
O14   O     O_3   0.085361 0.299407 0.727560 -0.527272
O15   O     O_2   0.261760 0.281010 0.418880 -0.469352
O16   O     O_3   0.488390 0.347430 0.574410 -0.483713
O17   O     O_2   0.329343 0.189717 0.495392 -0.505080
O18   O     O_2   0.811116 0.774783 0.955871 -0.339453
O19   O     O_2   0.102205 0.821305 0.965788 -0.280541
O20   O     O_3   0.949053 0.867295 0.867822 -0.470232
O21   O     O_2   0.671565 0.812779 0.662972 -0.260018
O22   O     O_2   0.596006 0.952124 0.658711 -0.273651
O23   O     O_3   0.431658 0.208501 0.637866 -0.607266
O24   O     O_3   0.400464 0.880646 0.747250 -0.451824
O25   O     O_2   0.315282 0.352799 0.872875 -0.308715
O26   O     O_2   0.233116 0.191683 0.820832 -0.233776
O27   O     O_3   0.438264 0.252633 0.935046 -0.485804
O28   O     O_2   0.838300 0.440470 0.296230 -0.437819
O29   O     O_3   0.567380 0.446810 0.395500 -0.511279
O30   O     O_3   0.111820 0.604620 0.376600 -0.508386
O31   O     O_3   0.642678 0.297938 0.256441 -0.604624
O32   O     O_3   0.149150 0.609060 0.561440 -0.496708
O33   O     O_3   0.701290 0.652490 0.425560 -0.490797
P1    P     P_3+3 0.533580 0.585010 0.696460 1.016185
P2    P     P_3+3 0.097450 0.292710 0.397510 0.992841
P3    P     P_3+3 0.479182 0.231345 0.546230 0.968877
P4    P     P_3+3 0.656110 0.414920 0.303520 1.014400
P5    P     P_3+3 0.699598 0.767340 0.450544 0.997332
P6    P     P_3+3 0.038039 0.401956 0.725851 1.003249
P7    P     P_3+3 0.103918 0.722259 0.611227 1.012759
P8    P     P_3+3 0.145550 0.594402 0.272240 0.957169
S1    S     S_3+6 0.969207 0.788783 0.907093 -0.078197
S2    S     S_3+6 0.529582 0.862298 0.660392 -0.031866
S3    S     S_3+6 0.372875 0.260501 0.850228 -0.026835

loop_
_geom_bond_atom_site_label_1
_geom_bond_atom_site_label_2
_ccdc_geom_bond_type
H48   O24   S    
C35   H23   S    
Br1   C39   S    
C15   H28   S    
C24   C26   S    
C38   C39   S    
O21   S2    D    
C41   H19   S    
O28   P4    D    
Ba1   O32   S    
C30   C33   A    
C37   H52   S    
O11   P6    D    
C4    H26   S    
C42   C43   S    
C21   P7    S    
C19   C32   A    
C2    C44   S    
C36   H45   S    
C16   S3    S    
O4    P1    S    
C12   H1    S    
O10   P6    S    
C31   C32   A    
Ba1   O29   S    
C39   H6    S    
C37   H51   S    
C2    C3    S    
C42   O9    S    
C36   H50   S    
O25   S3    D    
O2    P5    D    
Ba2   O29   S    
C9    P8    S    
Ba1   Ba2   S    
C31   H39   S    
C44   H35   S    
O7    P7    S    
O30   P8    S    
C26   H41   S    
C28   O31   S    
C8    H30   S    
H47   O20   S    
O32   P7    S    
C5    C6    S    
C36   O13   S    
C38   O12   S    
Ba2   O32   S    
C20   C21   D    
O24   S2    S    
Ba1   O16   S    
C11   H33   S    
C6    C7    D    
C43   H25   S    
C34   H11   S    
C10   C17   A    
O5    P2    S    
O33   P5    S    
C10   C11   A    
C41   H18   S    
O22   S2    D    
C27   H42   S    
C33   P3    S    
C38   H2    S    
O8    P8    D    
C40   H17   S    
C2    P6    S    
Ba2   O33   S    
C34   S1    S    
C1    H4    S    
C40   H16   S    
C12   H7    S    
O20   S1    S    
C18   S2    S    
C20   H37   S    
O3    P5    S    
C32   P2    S    
C36   C37   S    
C3    C5    D    
C28   H46   S    
C42   H22   S    
C1    H14   S    
Ba2   O6    S    
H49   O27   S    
C23   H9    S    
C10   P4    S    
C40   C41   S    
C26   C27   D    
O31   P4    S    
Ba1   O10   S    
C8    C13   A    
O6    P7    D    
Ba2   O4    S    
C9    C17   A    
C42   H21   S    
C14   C15   D    
C12   O14   S    
O14   P6    S    
Ba1   O4    S    
C43   H24   S    
Ba1   O15   S    
C6    H29   S    
C28   H44   S    
O13   P1    S    
C35   H34   S    
C11   C13   A    
C18   C21   S    
C20   C25   S    
O12   P2    S    
Ba1   P1    S    
Ba1   O1    S    
C38   H3    S    
C43   H27   S    
C18   C22   D    
C39   H5    S    
C27   C30   S    
Ba2   P4    S    
C7    P1    S    
C4    O23   S    
O18   S1    D    
C19   H40   S    
C23   O7    S    
C37   H53   S    
C8    C9    A    
C23   C34   S    
O16   P3    S    
C22   C24   S    
C19   C33   A    
Ba2   O5    S    
C4    C16   S    
C5    C14   S    
C28   C35   S    
O23   P3    S    
C29   C30   A    
C1    C12   S    
C22   P5    S    
C1    H8    S    
C16   H43   S    
O1    P1    D    
C3    H32   S    
C4    H38   S    
O15   P2    D    
O26   S3    D    
C14   H31   S    
Ba2   O30   S    
O27   S3    S    
C23   H10   S    
C40   O3    S    
C34   H13   S    
C35   H12   S    
O29   P4    S    
C13   C15   S    
C17   H36   S    
Ba1   O5    S    
C7    C44   D    
O19   S1    D    
C41   H20   S    
O9    P8    S    
C16   H15   S    
Ba1   P2    S    
O17   P3    D    
C29   C31   A    
C24   C25   S    
Ba2   O28   S    
