data_mof_unit_52377.cif
_audit_creation_date              2012-12-10T16:52:39-0500
_audit_creation_method            fapswitch 2.2
_symmetry_space_group_name_H-M    P1
_symmetry_Int_Tables_number       1
_space_group_crystal_system       triclinic
_cell_length_a                    13.010874
_cell_length_b                    10.934988
_cell_length_c                    9.674253
_cell_angle_alpha                 90.574402
_cell_angle_beta                  96.433743
_cell_angle_gamma                 90.119717
_cell_volume                      1367.64800211

loop_
_atom_site_label
_atom_site_type_symbol
_atom_type_description
_atom_site_fract_x
_atom_site_fract_y
_atom_site_fract_z
_atom_type_partial_charge
C1    C     C_R   0.502536 0.265213 0.499300 0.831610
C2    C     C_R   0.028270 0.507481 0.567189 0.071580
C3    C     C_R   0.971116 0.489503 0.435629 0.046221
C4    C     C_R   0.863912 0.488357 0.423863 -0.252571
C5    C     C_R   0.868466 0.518777 0.673172 -0.292896
C6    C     C_R   0.976393 0.524264 0.686238 0.437750
C7    C     C_2   0.518852 0.930638 0.390249 -0.197892
C8    C     C_2   0.512481 0.866478 0.506129 -0.345934
C9    C     C_2   0.532769 0.064090 0.391953 0.026900
C10   C     C_2   0.501361 0.132608 0.496781 -0.379684
C11   C     C_2   0.446236 0.423006 0.913185 -0.079272
C12   C     C_R   0.300312 0.497782 0.473548 0.822718
C13   C     C_2   0.450611 0.419074 0.069516 -0.019787
C14   C     C_R   0.502464 0.734715 0.501154 0.864779
C15   C     C_R   0.699481 0.500432 0.526280 0.821678
C16   C     C_R   0.812195 0.502191 0.542016 -0.113612
C17   C     C_R   0.187082 0.493271 0.457668 -0.173587
C18   C     C_R   0.021568 0.472252 0.317041 -0.288934
C19   C     C_R   0.129282 0.470928 0.327308 0.447982
C20   C     C_R   0.135893 0.509603 0.576688 -0.312676
Cu1   Cu    Cu3+1 0.500020 0.500020 0.638640 0.929468
Cu2   Cu    Cu3+1 0.499980 0.499980 0.361360 0.959221
H1    H     H_    0.820802 0.475855 0.322131 0.163025
H2    H     H_    0.467205 0.091326 0.582171 0.138545
H3    H     H_    0.396979 0.356674 0.853583 0.148580
H4    H     H_    0.549843 0.557360 0.902272 0.189430
H5    H     H_    0.409878 0.345205 0.113884 0.155526
H6    H     H_    0.534014 0.571748 0.111876 0.187590
H7    H     H_    0.829108 0.529051 0.765516 0.168619
H8    H     H_    0.977641 0.458202 0.216035 0.154527
H9    H     H_    0.180057 0.524927 0.677157 0.213891
H10   H     H_    0.518224 0.883415 0.290749 0.170524
H11   H     H_    0.520307 0.909078 0.608393 0.148544
N1    N     N_2   0.498860 0.498660 0.846770 -0.282042
N2    N     N_2   0.498840 0.498630 0.152900 -0.279686
O1    O     O_R   0.500020 0.321960 0.617050 -0.583526
O2    O     O_R   0.499980 0.321920 0.382890 -0.567997
O3    O     O_R   0.349010 0.500000 0.598060 -0.586301
O4    O     O_R   0.348980 0.499950 0.363910 -0.531944
O5    O     O_R   0.500020 0.678080 0.617110 -0.582507
O6    O     O_R   0.499980 0.678040 0.382950 -0.580155
O7    O     O_R   0.651020 0.500050 0.636090 -0.587470
O8    O     O_R   0.650990 0.500000 0.401940 -0.581702
O9    O     O_3   0.030737 0.538875 0.816559 -0.595360
C21   C     C_3   0.036904 0.664924 0.849257 0.018295
H12   H     H_    0.958472 0.704237 0.854433 0.143130
H13   H     H_    0.076570 0.715618 0.770924 0.141739
C22   C     C_3   0.099188 0.682676 0.990672 -0.707604
H14   H     H_    0.177366 0.642167 0.989927 0.269104
H15   H     H_    0.107426 0.781782 0.015660 0.179270
H16   H     H_    0.058955 0.637932 0.072024 0.262777
O10   O     O_3   0.176773 0.453536 0.207829 -0.564811
C23   C     C_3   0.177834 0.327254 0.174532 0.060881
H17   H     H_    0.112467 0.274265 0.210489 0.121292
H18   H     H_    0.251486 0.286992 0.222747 0.147509
C24   C     C_3   0.171315 0.311488 0.017366 -0.770759
H19   H     H_    0.230631 0.368671 0.974849 0.250639
H20   H     H_    0.183925 0.214127 0.990442 0.182096
H21   H     H_    0.093630 0.339574 0.969124 0.278584
C25   C     C_R   0.581386 0.117106 0.273989 0.168393
C26   C     C_R   0.676518 0.179297 0.297853 -0.095243
C27   C     C_R   0.722587 0.227500 0.186321 -0.137796
C28   C     C_R   0.674350 0.213790 0.050513 -0.100125
C29   C     C_R   0.580265 0.151114 0.025825 -0.144675
C30   C     C_R   0.533897 0.102715 0.136983 -0.190623
H22   H     H_    0.714794 0.190306 0.402590 0.106075
H23   H     H_    0.795942 0.274965 0.205024 0.117672
H24   H     H_    0.709967 0.251486 0.964377 0.130201
H25   H     H_    0.543002 0.140552 0.920572 0.132252
H26   H     H_    0.460636 0.055055 0.116477 0.118554

loop_
_geom_bond_atom_site_label_1
_geom_bond_atom_site_label_2
_ccdc_geom_bond_type
C12   C17   S    
C4    C16   A    
C27   C28   A    
C18   H8    S    
C9    C10   D    
Cu2   O8    S    
C11   N1    D    
C24   H21   S    
C1    O2    A    
C9    C25   S    
C29   C30   A    
C12   O4    A    
C22   H15   S    
C2    C3    A    
C3    C4    A    
C15   O8    A    
C7    C8    D    
Cu1   O1    S    
C6    O9    S    
C23   H17   S    
C24   H19   S    
Cu2   N2    S    
C11   C13   S    
C2    C6    A    
Cu1   O5    S    
C27   H23   S    
C25   C26   A    
C14   O6    A    
C5    C6    A    
Cu2   O4    S    
C19   O10   S    
Cu1   Cu2   S    
C22   H14   S    
C17   C19   A    
C24   H20   S    
C25   C30   A    
C13   N2    D    
H6    N2    S    
C5    H7    S    
C8    H11   S    
C23   H18   S    
C12   O3    A    
C26   C27   A    
C7    H10   S    
C23   C24   S    
Cu2   O6    S    
C11   H3    S    
C2    C20   A    
C15   C16   S    
C21   H12   S    
C17   C20   A    
O10   C23   S    
C15   O7    A    
C3    C18   A    
C18   C19   A    
C1    C10   S    
C21   H13   S    
C7    C9    S    
C4    H1    S    
C28   H24   S    
Cu1   O3    S    
C5    C16   A    
C8    C14   S    
Cu1   N1    S    
C21   C22   S    
C10   H2    S    
C30   H26   S    
C29   H25   S    
Cu2   O2    S    
C14   O5    A    
C26   H22   S    
H4    N1    S    
C22   H16   S    
C13   H5    S    
O9    C21   S    
Cu1   O7    S    
C1    O1    A    
C28   C29   A    
C20   H9    S    
