data_mof_unit_66233.cif
_audit_creation_date              2012-12-10T18:08:01-0500
_audit_creation_method            fapswitch 2.2
_symmetry_space_group_name_H-M    P1
_symmetry_Int_Tables_number       1
_space_group_crystal_system       triclinic
_cell_length_a                    12.751895
_cell_length_b                    13.904022
_cell_length_c                    15.870398
_cell_angle_alpha                 90.233067
_cell_angle_beta                  92.696052
_cell_angle_gamma                 97.942464
_cell_volume                      2783.62726076

loop_
_atom_site_label
_atom_site_type_symbol
_atom_type_description
_atom_site_fract_x
_atom_site_fract_y
_atom_site_fract_z
_atom_type_partial_charge
C1    C     C_R   0.483570 0.315824 0.499125 0.812348
C2    C     C_R   0.516430 0.684176 0.500874 0.812349
C3    C     C_2   0.543509 0.978389 0.502316 -0.154344
C4    C     C_2   0.456491 0.021611 0.497684 -0.154344
C5    C     C_1   0.465653 0.125428 0.498171 0.020622
C6    C     C_1   0.534346 0.874571 0.501829 0.020622
C7    C     C_2   0.028253 0.473018 0.476168 0.381562
C8    C     C_2   0.971747 0.526982 0.523832 0.381562
C9    C     C_1   0.854585 0.519326 0.517040 0.239019
C10   C     C_1   0.145415 0.480674 0.482960 0.239019
C11   C     C_R   0.500729 0.500016 0.339497 0.821726
C12   C     C_R   0.499271 0.499984 0.660503 0.821726
C13   C     C_3   0.442533 0.417681 0.969973 -0.154489
C14   C     C_3   0.557467 0.582319 0.030027 -0.154489
C15   C     C_3   0.543513 0.423125 0.028925 -0.152150
C16   C     C_3   0.456487 0.576875 0.971075 -0.152150
C17   C     C_1   0.502117 0.500098 0.249828 -0.155977
C18   C     C_1   0.497883 0.499901 0.750172 -0.155977
C19   C     C_3   0.400286 0.494620 0.025174 -0.148936
C20   C     C_3   0.599714 0.505380 0.974826 -0.148936
C21   C     C_3   0.501262 0.500063 0.082591 0.177609
C22   C     C_3   0.498738 0.499936 0.917409 0.177609
C23   C     C_1   0.502197 0.500108 0.174278 -0.055709
C24   C     C_1   0.497803 0.499892 0.825722 -0.055709
C25   C     C_1   0.525813 0.787517 0.501374 -0.148344
C26   C     C_1   0.474187 0.212483 0.498625 -0.148344
Cu1   Cu    Cu3+1 0.395330 0.493960 0.494680 1.014353
Cu2   Cu    Cu3+1 0.604670 0.506040 0.505320 1.014353
H1    H     H_    0.579292 0.360047 0.054023 0.143781
H2    H     H_    0.420708 0.639953 0.945977 0.143781
H3    H     H_    0.395303 0.350129 0.943971 0.142109
H4    H     H_    0.604696 0.649871 0.056029 0.142109
H5    H     H_    0.681567 0.509796 0.952787 0.145406
H6    H     H_    0.318433 0.490204 0.047213 0.145406
H7    H     H_    0.378060 0.979337 0.493510 0.168097
H8    H     H_    0.621939 0.020663 0.506490 0.168097
N1    N     N_1   0.238040 0.484880 0.486690 -0.159799
N2    N     N_1   0.761960 0.515120 0.513310 -0.159799
O1    O     O_R   0.399110 0.356330 0.494860 -0.567524
O2    O     O_R   0.600890 0.643670 0.505140 -0.567525
O3    O     O_R   0.575890 0.366540 0.503840 -0.564563
O4    O     O_R   0.424110 0.633460 0.496160 -0.564562
O5    O     O_R   0.411620 0.494890 0.374590 -0.568795
O6    O     O_R   0.588380 0.505110 0.625410 -0.568795
O7    O     O_R   0.588400 0.505100 0.383570 -0.564841
O8    O     O_R   0.411600 0.494900 0.616430 -0.564841
F1    F     F_    0.024299 0.591617 0.580958 -0.671161
F2    F     F_    0.975701 0.408383 0.419042 -0.671161

loop_
_geom_bond_atom_site_label_1
_geom_bond_atom_site_label_2
_ccdc_geom_bond_type
C8    C9    S    
C7    C10   S    
C11   O5    A    
C14   C20   S    
C1    O1    A    
Cu2   N2    S    
C15   C20   S    
C3    C6    S    
C7    F2    S    
C13   C15   S    
C8    F1    S    
C7    C8    D    
C12   O6    A    
Cu1   O4    S    
C17   C23   T    
Cu1   O1    S    
C3    H8    S    
Cu1   N1    S    
C16   C19   S    
C18   C24   T    
C20   H5    S    
Cu1   O8    S    
C1    O3    A    
C9    N2    T    
C19   C21   S    
C2    O4    A    
C13   C22   S    
C15   H1    S    
C2    C25   S    
C14   C16   S    
C21   C23   S    
C1    C26   S    
C13   H3    S    
C22   C24   S    
Cu2   O7    S    
C4    H7    S    
C6    C25   T    
C11   O7    A    
C13   C19   S    
C16   H2    S    
C5    C26   T    
C2    O2    A    
Cu2   O3    S    
C15   C21   S    
C14   C21   S    
C12   O8    A    
C10   N1    T    
C14   H4    S    
Cu1   Cu2   S    
Cu1   O5    S    
Cu2   O2    S    
C11   C17   S    
C16   C22   S    
Cu2   O6    S    
C3    C4    D    
C20   C22   S    
C4    C5    S    
C19   H6    S    
C12   C18   S    
