data_mof_unit_26394.cif
_audit_creation_date              2012-12-10T20:44:00-0500
_audit_creation_method            fapswitch 2.2
_symmetry_space_group_name_H-M    P1
_symmetry_Int_Tables_number       1
_space_group_crystal_system       triclinic
_cell_length_a                    17.474466
_cell_length_b                    10.726387
_cell_length_c                    9.860829
_cell_angle_alpha                 90.19319
_cell_angle_beta                  89.513129
_cell_angle_gamma                 90.187564
_cell_volume                      1848.20596381

loop_
_atom_site_label
_atom_site_type_symbol
_atom_type_description
_atom_site_fract_x
_atom_site_fract_y
_atom_site_fract_z
_atom_type_partial_charge
C1    C     C_R   0.504269 0.260212 0.498990 0.873345
C2    C     C_R   0.885055 0.461985 0.507086 0.095977
C3    C     C_1   0.965297 0.449908 0.507184 0.023965
C4    C     C_1   0.033232 0.448534 0.507783 0.140895
C5    C     C_R   0.149088 0.539103 0.600459 0.391470
C6    C     C_R   0.227899 0.554389 0.595738 -0.155946
C7    C     C_R   0.271296 0.487696 0.500933 -0.177742
C8    C     C_R   0.236134 0.406389 0.409156 -0.226824
C9    C     C_R   0.157282 0.390640 0.412679 0.399693
C10   C     C_R   0.113944 0.456952 0.508817 -0.084313
C11   C     C_R   0.476100 0.064918 0.606611 0.126570
C12   C     C_R   0.353602 0.498932 0.500392 0.933613
C13   C     C_R   0.506733 0.127545 0.494956 -0.160387
C14   C     C_R   0.531523 0.060920 0.377102 0.068180
C15   C     C_R   0.525339 0.931786 0.380121 -0.215527
C16   C     C_R   0.499926 0.871149 0.497450 -0.136541
C17   C     C_R   0.472669 0.937878 0.607995 0.143363
C18   C     C_3   0.494858 0.929986 0.753692 -0.469274
C19   C     C_3   0.499842 0.070781 0.752094 -0.481209
C20   C     C_R   0.468930 0.402232 0.071939 0.109884
C21   C     C_R   0.537884 0.589511 0.071697 -0.085010
C22   C     C_R   0.538313 0.589034 0.927660 -0.083689
C23   C     C_R   0.500379 0.739597 0.499985 0.889033
C24   C     C_R   0.466322 0.404696 0.929619 0.103013
C25   C     C_3   0.383430 0.367073 0.932623 0.225966
C26   C     C_3   0.389063 0.356120 0.085589 -0.494448
C27   C     C_R   0.646204 0.501955 0.499444 0.843285
C28   C     C_R   0.852896 0.569521 0.563063 -0.155772
C29   C     C_R   0.773967 0.587670 0.559027 0.079612
C30   C     C_R   0.728392 0.494235 0.498499 -0.029338
C31   C     C_R   0.761494 0.387400 0.441143 -0.232568
C32   C     C_R   0.840033 0.371192 0.445474 -0.135267
H1    H     H_    0.889657 0.640254 0.607205 0.168373
H2    H     H_    0.544080 0.876770 0.294255 0.162807
H3    H     H_    0.447396 0.894041 0.818529 0.224578
H4    H     H_    0.550984 0.884039 0.769350 0.192750
H5    H     H_    0.559133 0.106785 0.764390 0.207752
H6    H     H_    0.456133 0.115707 0.818050 0.199632
H7    H     H_    0.567149 0.663207 0.125808 0.125266
H8    H     H_    0.568213 0.661972 0.873129 0.122073
H9    H     H_    0.371784 0.277147 0.880688 0.109493
H10   H     H_    0.351714 0.421388 0.143268 0.260588
H11   H     H_    0.386950 0.258135 0.121794 0.165585
H12   H     H_    0.726277 0.315777 0.395023 0.137556
H13   H     H_    0.865565 0.288549 0.400923 0.164455
H14   H     H_    0.255163 0.619345 0.664543 0.220683
H15   H     H_    0.270021 0.353696 0.336655 0.184037
N1    N     N_R   0.499490 0.499140 0.142800 -0.084528
N2    N     N_R   0.499490 0.499180 0.857150 -0.081510
O1    O     O_R   0.500010 0.316790 0.614690 -0.617274
O2    O     O_R   0.500000 0.316760 0.385350 -0.635428
O3    O     O_R   0.389120 0.500020 0.614710 -0.558785
O4    O     O_R   0.389110 0.499990 0.385370 -0.616182
O5    O     O_R   0.500000 0.683240 0.614650 -0.618325
O6    O     O_R   0.499990 0.683210 0.385310 -0.628085
O7    O     O_R   0.610890 0.500010 0.614630 -0.623672
O8    O     O_R   0.610880 0.499980 0.385290 -0.624529
Zn1   Zn    Zn3+2 0.500010 0.500020 0.653130 0.979165
Zn2   Zn    Zn3+2 0.499990 0.499980 0.346870 0.947831
Cl1   Cl    Cl    0.319841 0.490173 0.888764 -0.546437
C33   C     C_3   0.741278 0.709377 0.611994 -0.443335
C34   C     C_3   0.723709 0.798153 0.494590 -0.343606
C35   C     C_3   0.704503 0.928743 0.546255 -0.868485
H16   H     H_    0.691583 0.990347 0.459226 0.253367
H17   H     H_    0.653896 0.925681 0.614666 0.261818
H18   H     H_    0.753781 0.968945 0.601995 0.267948
H19   H     H_    0.774278 0.804932 0.425742 0.239041
H20   H     H_    0.674669 0.761632 0.435270 0.211669
H21   H     H_    0.688931 0.692513 0.673911 0.208156
H22   H     H_    0.783173 0.754977 0.680687 0.216345
Cl2   Cl    Cl    0.095956 0.625620 0.720696 -0.548523
Cl3   Cl    Cl    0.114570 0.288249 0.295241 -0.554858
C36   C     C_3   0.567515 0.126106 0.253966 -0.358954
C37   C     C_3   0.608715 0.042627 0.149400 -0.412364
C38   C     C_3   0.648420 0.121127 0.040554 -0.851810
H23   H     H_    0.606469 0.182781 0.990062 0.254368
H24   H     H_    0.694145 0.179384 0.086383 0.267328
H25   H     H_    0.674693 0.058959 0.962975 0.252155
H26   H     H_    0.652469 0.984703 0.200497 0.229178
H27   H     H_    0.566544 0.980807 0.098396 0.228188
H28   H     H_    0.521742 0.176212 0.199248 0.224064
H29   H     H_    0.610260 0.194745 0.291610 0.206430

loop_
_geom_bond_atom_site_label_1
_geom_bond_atom_site_label_2
_ccdc_geom_bond_type
C33   H22   S    
C35   H17   S    
O6    Zn2   S    
C36   C37   S    
C9    Cl3   S    
O4    Zn2   S    
C7    C8    A    
C11   C19   S    
C34   C35   S    
C34   H19   S    
N1    Zn2   S    
C18   H3    S    
C28   C29   A    
C5    C6    A    
O8    Zn2   S    
C15   C16   A    
C2    C32   A    
C18   C19   S    
C32   H13   S    
C19   H5    S    
C20   C24   A    
C8    C9    A    
C25   Cl1   S    
C1    O1    A    
C15   H2    S    
C12   O4    A    
C21   N1    A    
C35   H18   S    
C37   H27   S    
C21   C22   A    
C27   C30   S    
C9    C10   A    
C36   H28   S    
C12   O3    A    
C26   H11   S    
C7    C12   S    
C29   C33   S    
C31   H12   S    
O1    Zn1   S    
C14   C36   S    
C24   C25   S    
C27   O8    A    
C25   H9    S    
C27   O7    A    
C16   C17   A    
C25   C26   S    
N2    Zn1   S    
C38   H23   S    
C29   C30   A    
C19   H6    S    
C38   H24   S    
C31   C32   A    
C21   H7    S    
C22   H8    S    
C17   C18   S    
C1    O2    A    
C20   N1    A    
O3    Zn1   S    
C22   N2    A    
C28   H1    S    
C16   C23   S    
C37   H26   S    
C1    C13   S    
C4    C10   S    
C3    C4    T    
C36   H29   S    
C26   H10   S    
C23   O5    A    
O5    Zn1   S    
C33   H21   S    
C24   N2    A    
C11   C17   A    
C6    H14   S    
C23   O6    A    
C6    C7    A    
C34   H20   S    
C2    C3    S    
C8    H15   S    
C5    C10   A    
C5    Cl2   S    
C11   C13   A    
C30   C31   A    
C20   C26   S    
O7    Zn1   S    
C33   C34   S    
C38   H25   S    
C35   H16   S    
O2    Zn2   S    
C37   C38   S    
C14   C15   A    
C2    C28   A    
C13   C14   A    
C18   H4    S    
