data_mof_unit_56717.cif
_audit_creation_date              2012-12-11T16:26:32-0500
_audit_creation_method            fapswitch 2.2
_symmetry_space_group_name_H-M    P1
_symmetry_Int_Tables_number       1
_space_group_crystal_system       triclinic
_cell_length_a                    14.008426
_cell_length_b                    14.008458
_cell_length_c                    31.990701
_cell_angle_alpha                 90.000317
_cell_angle_beta                  90.0002
_cell_angle_gamma                 120.000226
_cell_volume                      5436.67124453

loop_
_atom_site_label
_atom_site_type_symbol
_atom_type_description
_atom_site_fract_x
_atom_site_fract_y
_atom_site_fract_z
_atom_type_partial_charge
C1    C     C_R   0.567616 0.444092 0.810524 0.559669
C2    C     C_R   0.444090 0.567614 0.189477 0.559202
C3    C     C_3   0.167437 0.806098 0.434934 -0.128469
C4    C     C_3   0.609361 0.806373 0.063217 -0.101231
C5    C     C_3   0.193900 0.361348 0.434936 -0.128479
C6    C     C_3   0.795674 0.165372 0.552637 -0.125803
C7    C     C_3   0.806478 0.609511 0.936767 -0.101228
C8    C     C_3   0.369765 0.204270 0.552671 -0.125767
C9    C     C_3   0.803032 0.193520 0.936768 -0.101225
C10   C     C_3   0.834546 0.630331 0.552704 -0.125791
C11   C     C_3   0.390492 0.196969 0.936767 -0.101225
C12   C     C_3   0.875129 0.283156 0.161333 -0.096146
C13   C     C_R   0.432140 0.876185 0.310324 0.570070
C14   C     C_3   0.298580 0.032100 0.348862 -0.103621
C15   C     C_3   0.716844 0.591968 0.161333 -0.096148
C16   C     C_3   0.967880 0.266476 0.348858 -0.103622
C17   C     C_3   0.408034 0.124868 0.161336 -0.096145
C18   C     C_3   0.733522 0.701409 0.348862 -0.103620
C19   C     C_3   0.270828 0.967242 0.647545 -0.101149
C20   C     C_3   0.124996 0.407474 0.839036 -0.097404
C21   C     C_3   0.696354 0.729179 0.647563 -0.101143
C22   C     C_3   0.282455 0.874996 0.839045 -0.097418
C23   C     C_3   0.032644 0.303479 0.647535 -0.101123
C24   C     C_R   0.123523 0.555909 0.189477 0.559199
C25   C     C_3   0.592605 0.717645 0.839100 -0.097432
C26   C     C_1   0.003415 0.514623 0.018720 0.034629
C27   C     C_1   0.509187 0.015695 0.478949 0.053169
C28   C     C_1   0.485376 0.488791 0.018720 0.034627
C29   C     C_1   0.984304 0.493487 0.478949 0.053208
C30   C     C_1   0.511205 0.996579 0.018719 0.034629
C31   C     C_1   0.506497 0.490857 0.478955 0.053214
C32   C     C_1   0.515518 0.032272 0.515800 0.056911
C33   C     C_R   0.874381 0.431096 0.689233 0.570440
C34   C     C_1   0.996495 0.511165 0.981291 0.034656
C35   C     C_1   0.516741 0.484523 0.515806 0.056978
C36   C     C_1   0.514668 0.003500 0.981291 0.034656
C37   C     C_1   0.967725 0.483240 0.515799 0.057004
C38   C     C_1   0.488834 0.485328 0.981291 0.034660
C39   C     C_R   0.930758 0.470799 0.851647 -0.024647
C40   C     C_R   0.546801 0.087592 0.645991 -0.010910
C41   C     C_R   0.529201 0.459960 0.851647 -0.024604
C42   C     C_R   0.912410 0.459208 0.645991 -0.010898
C43   C     C_R   0.540040 0.069241 0.851646 -0.024639
C44   C     C_R   0.555908 0.123524 0.810524 0.559632
C45   C     C_R   0.540784 0.453205 0.645994 -0.010889
C46   C     C_R   0.467980 0.927201 0.351618 -0.008131
C47   C     C_R   0.069239 0.540047 0.148358 -0.024706
C48   C     C_R   0.459217 0.532032 0.351620 -0.008122
C49   C     C_R   0.470806 0.930758 0.148357 -0.024708
C50   C     C_R   0.072801 0.540779 0.351618 -0.008126
C51   C     C_R   0.459952 0.529191 0.148358 -0.024705
C52   C     C_R   0.911471 0.545196 0.874632 -0.181470
C53   C     C_R   0.637592 0.147560 0.619445 -0.165216
C54   C     C_R   0.454806 0.366277 0.874632 -0.181475
C55   C     C_R   0.568900 0.443286 0.689234 0.570474
C56   C     C_R   0.852471 0.490071 0.619446 -0.165250
C57   C     C_R   0.633724 0.088529 0.874632 -0.181486
C58   C     C_R   0.509980 0.362427 0.619442 -0.165225
C59   C     C_R   0.512269 0.881549 0.379272 -0.177090
C60   C     C_R   0.088564 0.633731 0.125365 -0.181277
C61   C     C_R   0.369277 0.487763 0.379275 -0.177089
C62   C     C_R   0.545163 0.911430 0.125364 -0.181274
C63   C     C_R   0.118459 0.630718 0.379273 -0.177096
C64   C     C_R   0.366267 0.454834 0.125364 -0.181275
C65   C     C_R   0.936094 0.562007 0.917541 0.277406
C66   C     C_R   0.876476 0.432384 0.810524 0.559621
C67   C     C_R   0.628021 0.129406 0.576393 0.300121
C68   C     C_R   0.437993 0.374087 0.917540 0.277406
C69   C     C_R   0.870627 0.498659 0.576393 0.300138
C70   C     C_R   0.625912 0.063904 0.917541 0.277388
C71   C     C_R   0.501389 0.372008 0.576391 0.300130
C72   C     C_R   0.530604 0.913308 0.421558 0.287698
C73   C     C_R   0.063925 0.625903 0.082458 0.277517
C74   C     C_R   0.382699 0.469444 0.421562 0.287702
C75   C     C_R   0.561974 0.936067 0.082457 0.277518
C76   C     C_R   0.086701 0.617293 0.421559 0.287717
C77   C     C_R   0.556714 0.125617 0.689233 0.570451
C78   C     C_R   0.374094 0.438022 0.082457 0.277518
C79   C     C_R   0.985282 0.507535 0.936719 -0.003639
C80   C     C_R   0.526304 0.050708 0.559808 0.015482
C81   C     C_R   0.492465 0.477747 0.936719 -0.003625
C82   C     C_R   0.949289 0.475590 0.559807 0.015577
C83   C     C_R   0.522251 0.014715 0.936718 -0.003640
C84   C     C_R   0.524390 0.473725 0.559813 0.015506
C85   C     C_R   0.502415 0.990953 0.435423 0.002896
C86   C     C_R   0.014659 0.522223 0.063291 -0.003702
C87   C     C_R   0.488530 0.497627 0.435429 0.002905
C88   C     C_R   0.444046 0.567862 0.310324 0.570078
C89   C     C_R   0.507561 0.985334 0.063290 -0.003703
C90   C     C_R   0.009049 0.511459 0.435423 0.002906
C91   C     C_R   0.477775 0.492434 0.063291 -0.003702
C92   C     C_R   0.014672 0.442046 0.913289 -0.183797
C93   C     C_R   0.436284 0.987750 0.585980 -0.153485
C94   C     C_R   0.557954 0.572626 0.913290 -0.183834
C95   C     C_R   0.012216 0.448484 0.585977 -0.153429
C96   C     C_R   0.427373 0.985326 0.913289 -0.183805
C97   C     C_R   0.551434 0.563730 0.585990 -0.153481
C98   C     C_R   0.463884 0.041192 0.407721 -0.162219
C99   C     C_R   0.432386 0.876476 0.189477 0.559198
C100  C     C_R   0.985238 0.427349 0.086729 -0.183655
C101  C     C_R   0.577300 0.536138 0.407727 -0.162216
C102  C     C_R   0.442110 0.014757 0.086729 -0.183653
C103  C     C_R   0.958804 0.422691 0.407719 -0.162223
C104  C     C_R   0.572649 0.557885 0.086730 -0.183657
C105  C     C_R   0.989233 0.424326 0.870591 0.240923
C106  C     C_R   0.444764 0.007911 0.629216 0.262007
C107  C     C_R   0.575671 0.564910 0.870590 0.240948
C108  C     C_R   0.992059 0.436810 0.629213 0.262043
C109  C     C_R   0.435092 0.010765 0.870590 0.240926
C110  C     C_R   0.123814 0.555954 0.310324 0.570070
C111  C     C_R   0.563115 0.555238 0.629225 0.262005
C112  C     C_R   0.443544 0.007745 0.365785 0.258441
C113  C     C_R   0.010733 0.435096 0.129418 0.240687
C114  C     C_R   0.564195 0.556464 0.365789 0.258439
C115  C     C_R   0.424363 0.989263 0.129418 0.240687
C116  C     C_R   0.992251 0.435800 0.365783 0.258442
C117  C     C_R   0.564902 0.575634 0.129419 0.240689
C118  C     C_3   0.193613 0.802990 0.063220 -0.101224
C119  C     C_3   0.638716 0.832620 0.434930 -0.128504
C120  C     C_3   0.197012 0.390633 0.063216 -0.101227
Cr1   Cr    Cr6+3 0.504240 0.249200 0.750000 1.032417
Cr2   Cr    Cr6+3 0.744960 0.495760 0.750000 1.032408
Cr3   Cr    Cr6+3 0.750800 0.255040 0.750000 1.032404
Cr4   Cr    Cr6+3 0.249200 0.504240 0.250000 1.034990
Cr5   Cr    Cr6+3 0.495760 0.744960 0.250000 1.034985
Cr6   Cr    Cr6+3 0.255040 0.750800 0.250000 1.034987
H1    H     H_    0.871922 0.585746 0.859775 0.154935
H2    H     H_    0.585679 0.871835 0.140214 0.154976
H3    H     H_    0.184123 0.709409 0.368300 0.125519
H4    H     H_    0.286156 0.414319 0.140214 0.154976
H5    H     H_    0.947196 0.347552 0.071503 0.127766
H6    H     H_    0.446943 0.104139 0.419019 0.130771
H7    H     H_    0.652447 0.599640 0.071505 0.127766
H8    H     H_    0.895852 0.342804 0.419016 0.130765
H9    H     H_    0.400355 0.052801 0.071503 0.127768
H10   H     H_    0.657186 0.553073 0.419026 0.130782
H11   H     H_    0.359459 0.924065 0.572727 0.126498
H12   H     H_    0.714616 0.213367 0.631758 0.137839
H13   H     H_    0.052622 0.400226 0.928534 0.127379
H14   H     H_    0.564557 0.640553 0.572742 0.126502
H15   H     H_    0.347603 0.947377 0.928533 0.127370
H16   H     H_    0.075875 0.435308 0.572722 0.126466
H17   H     H_    0.599779 0.652393 0.928536 0.127315
H18   H     H_    0.253515 0.772581 0.064047 0.100319
H19   H     H_    0.201923 0.852456 0.091498 0.162814
H20   H     H_    0.215238 0.858751 0.035872 0.149713
H21   H     H_    0.701700 0.897156 0.414129 0.094481
H22   H     H_    0.593098 0.752218 0.418571 0.122717
H23   H     H_    0.414256 0.286176 0.859774 0.154937
H24   H     H_    0.683351 0.821225 0.461347 0.129659
H25   H     H_    0.227428 0.480946 0.064041 0.100319
H26   H     H_    0.147545 0.349485 0.091494 0.162810
H27   H     H_    0.141250 0.356495 0.035868 0.149712
H28   H     H_    0.102922 0.804575 0.414129 0.094483
H29   H     H_    0.247841 0.840855 0.418579 0.122720
H30   H     H_    0.178847 0.862135 0.461350 0.129671
H31   H     H_    0.519049 0.746476 0.064040 0.100319
H32   H     H_    0.650508 0.798054 0.091495 0.162808
H33   H     H_    0.643500 0.784749 0.035869 0.149708
H34   H     H_    0.786680 0.501307 0.631762 0.137804
H35   H     H_    0.195446 0.298350 0.414142 0.094485
H36   H     H_    0.159120 0.406959 0.418570 0.122709
H37   H     H_    0.137868 0.316731 0.461355 0.129667
H38   H     H_    0.761539 0.076897 0.544461 0.118162
H39   H     H_    0.834207 0.182886 0.584131 0.090884
H40   H     H_    0.861673 0.215011 0.529764 0.133968
H41   H     H_    0.746541 0.519207 0.935952 0.100440
H42   H     H_    0.798188 0.650657 0.908483 0.162749
H43   H     H_    0.784886 0.643694 0.964110 0.149732
H44   H     H_    0.315298 0.238312 0.544575 0.118040
H45   H     H_    0.713825 0.128080 0.859775 0.154936
H46   H     H_    0.348922 0.165677 0.584156 0.090959
H47   H     H_    0.353391 0.138339 0.529764 0.133991
H48   H     H_    0.772666 0.253456 0.935952 0.100443
H49   H     H_    0.852470 0.201810 0.908484 0.162761
H50   H     H_    0.858807 0.215112 0.964110 0.149733
H51   H     H_    0.923057 0.684796 0.544637 0.118037
H52   H     H_    0.816738 0.651110 0.584183 0.090983
H53   H     H_    0.785046 0.646765 0.529792 0.133977
H54   H     H_    0.480797 0.227338 0.935952 0.100438
H55   H     H_    0.349347 0.147531 0.908483 0.162762
H56   H     H_    0.498791 0.285412 0.631752 0.137799
H57   H     H_    0.356309 0.141194 0.964109 0.149734
H58   H     H_    0.823410 0.251293 0.132726 0.116818
H59   H     H_    0.850993 0.335198 0.179796 0.115555
H60   H     H_    0.858309 0.211050 0.180922 0.153974
H61   H     H_    0.242449 0.941667 0.352470 0.105176
H62   H     H_    0.264997 0.060200 0.323297 0.145637
H63   H     H_    0.298608 0.076268 0.377710 0.093885
H64   H     H_    0.748708 0.572116 0.132725 0.116818
H65   H     H_    0.664803 0.515788 0.179795 0.115554
H66   H     H_    0.788950 0.647254 0.180923 0.153974
H67   H     H_    0.525300 0.815888 0.368299 0.125533
H68   H     H_    0.058312 0.300770 0.352468 0.105176
H69   H     H_    0.939778 0.204795 0.323292 0.145637
H70   H     H_    0.923708 0.222334 0.377706 0.093885
H71   H     H_    0.427897 0.176592 0.132730 0.116815
H72   H     H_    0.484209 0.148998 0.179800 0.115557
H73   H     H_    0.352749 0.141691 0.180925 0.153975
H74   H     H_    0.699231 0.757550 0.352464 0.105179
H75   H     H_    0.795206 0.734975 0.323296 0.145638
H76   H     H_    0.777660 0.701387 0.377712 0.093893
H77   H     H_    0.299887 0.057068 0.649266 0.114108
H78   H     H_    0.128157 0.713841 0.140215 0.154974
H79   H     H_    0.206627 0.926001 0.671906 0.145051
H80   H     H_    0.231300 0.933177 0.616844 0.092111
H81   H     H_    0.176003 0.426225 0.867792 0.117597
H82   H     H_    0.150121 0.484243 0.820828 0.114265
H83   H     H_    0.141719 0.352307 0.819330 0.153180
H84   H     H_    0.757137 0.700139 0.649281 0.114093
H85   H     H_    0.719299 0.793367 0.671928 0.145063
H86   H     H_    0.701809 0.768714 0.616865 0.092115
H87   H     H_    0.250181 0.824014 0.867806 0.117608
H88   H     H_    0.334089 0.849838 0.820848 0.114252
H89   H     H_    0.290587 0.474736 0.368300 0.125532
H90   H     H_    0.210578 0.858276 0.819332 0.153171
H91   H     H_    0.942807 0.242745 0.649247 0.114112
H92   H     H_    0.073846 0.280478 0.671898 0.145040
H93   H     H_    0.066714 0.298009 0.616836 0.092111
H94   H     H_    0.574071 0.749987 0.867886 0.117649
H95   H     H_    0.515712 0.666063 0.820943 0.114207
H96   H     H_    0.647743 0.789485 0.819367 0.153180
O1    O     O_R   0.480350 0.140770 0.796330 -0.451360
O2    O     O_R   0.140770 0.480350 0.203670 -0.451110
O3    O     O_R   0.519650 0.660420 0.296330 -0.485290
O4    O     O_R   0.339580 0.859230 0.203670 -0.451112
O5    O     O_R   0.514930 0.348530 0.793250 -0.515076
O6    O     O_R   0.833600 0.485070 0.706750 -0.518164
O7    O     O_R   0.651470 0.166400 0.793250 -0.515072
O8    O     O_R   0.514930 0.348530 0.706750 -0.518148
O9    O     O_R   0.833600 0.485070 0.793250 -0.515074
O10   O     O_R   0.651470 0.166400 0.706750 -0.518161
O11   O     O_R   0.348530 0.514930 0.293250 -0.517161
O12   O     O_R   0.660420 0.519650 0.703670 -0.490096
O13   O     O_R   0.485070 0.833600 0.206750 -0.515746
O14   O     O_R   0.166400 0.651470 0.293250 -0.517161
O15   O     O_R   0.348530 0.514930 0.206750 -0.515745
O16   O     O_R   0.485070 0.833600 0.293250 -0.517163
O17   O     O_R   0.166400 0.651470 0.206750 -0.515746
O18   O     O_3   0.666667 0.333333 0.750000 -0.260208
O19   O     O_3   0.333333 0.666667 0.250000 -0.259593
O20   O     O_3   0.083623 0.716996 0.058660 -0.534470
O21   O     O_3   0.564434 0.863395 0.451285 -0.547118
O22   O     O_3   0.283001 0.366630 0.058659 -0.534467
O23   O     O_R   0.859230 0.339580 0.796330 -0.451361
O24   O     O_3   0.136617 0.701033 0.451288 -0.547098
O25   O     O_3   0.633366 0.916366 0.058659 -0.534470
O26   O     O_3   0.298957 0.435634 0.451288 -0.547098
O27   O     O_3   0.714270 0.196183 0.550030 -0.526171
O28   O     O_3   0.916450 0.633452 0.941329 -0.534565
O29   O     O_3   0.481933 0.285779 0.550019 -0.526146
O30   O     O_3   0.717001 0.083548 0.941328 -0.534576
O31   O     O_3   0.803885 0.518173 0.550026 -0.526174
O32   O     O_3   0.366548 0.282997 0.941327 -0.534563
O33   O     O_3   0.988330 0.341161 0.151384 -0.545874
O34   O     O_R   0.480350 0.140770 0.703670 -0.490081
O35   O     O_3   0.406313 0.057467 0.337825 -0.532233
O36   O     O_3   0.658838 0.647164 0.151386 -0.545872
O37   O     O_3   0.942524 0.348849 0.337822 -0.532235
O38   O     O_3   0.352832 0.011669 0.151384 -0.545876
O39   O     O_3   0.651146 0.593675 0.337830 -0.532237
O40   O     O_3   0.357005 0.945285 0.655679 -0.535492
O41   O     O_3   0.011580 0.352759 0.848615 -0.545988
O42   O     O_3   0.588229 0.642983 0.655694 -0.535486
O43   O     O_3   0.341178 0.988417 0.848614 -0.545984
O44   O     O_3   0.054655 0.411629 0.655674 -0.535489
O45   O     O_R   0.660420 0.519650 0.796330 -0.451339
O46   O     O_3   0.647239 0.658820 0.848611 -0.545972
O47   O     O_R   0.859230 0.339580 0.703670 -0.490057
O48   O     O_R   0.140770 0.480350 0.296330 -0.485286
O49   O     O_R   0.519650 0.660420 0.203670 -0.451112
O50   O     O_R   0.339580 0.859230 0.296330 -0.485280

loop_
_geom_bond_atom_site_label_1
_geom_bond_atom_site_label_2
_ccdc_geom_bond_type
C76   C90   A    
C15   H66   S    
C23   H91   S    
C8    O29   S    
C65   C79   A    
C46   C112  A    
C46   C59   A    
C10   O31   S    
C11   H55   S    
C50   C110  S    
C91   C104  A    
C7    H42   S    
C33   O6    A    
Cr5   O13   S    
C6    H40   S    
C72   C85   A    
C100  H5    S    
C69   O31   S    
C59   H67   S    
C2    O49   A    
Cr4   O48   S    
C53   C67   A    
Cr5   O49   S    
C113  O33   S    
C10   H53   S    
C5    H37   S    
Cr6   O50   S    
C103  H8    S    
C104  C117  A    
C9    H49   S    
C22   H90   S    
C115  O38   S    
C17   H71   S    
C20   O41   S    
C94   H17   S    
C13   C46   S    
C89   C102  A    
C58   C71   A    
C4    H33   S    
C54   C68   A    
C63   C76   A    
C12   H59   S    
C36   C83   S    
C119  H21   S    
C32   C80   S    
C60   C73   A    
C106  O40   S    
C11   O32   S    
C14   H62   S    
C21   H84   S    
C9    H50   S    
C47   C113  A    
C120  O22   S    
C27   C85   S    
C102  H9    S    
C3    H30   S    
C15   H65   S    
C85   C98   A    
C42   C56   A    
C96   H15   S    
C87   C101  A    
C14   H63   S    
C34   C79   S    
C26   C34   T    
Cr2   O18   S    
Cr3   O10   S    
Cr4   O2    S    
C8    H44   S    
C77   O10   A    
Cr2   O9    S    
C19   H80   S    
C48   C88   S    
C25   H95   S    
C49   C62   A    
C3    O24   S    
C57   C70   A    
C18   H75   S    
Cr6   O14   S    
C97   H14   S    
C23   H93   S    
C105  O41   S    
C59   C72   A    
C33   O47   A    
Cr3   O47   S    
C119  H24   S    
C39   C52   A    
C47   C60   A    
C6    H39   S    
Cr2   O6    S    
C12   O33   S    
C65   O28   S    
Cr4   O15   S    
C101  C114  A    
C10   H51   S    
C55   O8    A    
Cr6   O4    S    
C77   O34   A    
C30   C89   S    
Cr5   O3    S    
Cr6   O17   S    
C71   O29   S    
C29   C90   S    
C52   H1    S    
C110  O14   A    
Cr2   O45   S    
C54   H23   S    
C50   C63   A    
C24   O2    A    
C41   C54   A    
C4    H32   S    
C45   C58   A    
C120  H26   S    
C31   C87   S    
C104  H7    S    
C51   C64   A    
C7    O28   S    
C118  O20   S    
C53   H12   S    
C10   H52   S    
C118  H20   S    
C9    O30   S    
C11   H57   S    
C81   C94   A    
C18   O39   S    
C109  O43   S    
C2    C51   S    
C13   O50   A    
C93   H11   S    
C110  O48   A    
C16   O37   S    
C75   C89   A    
C8    H47   S    
Cr5   O16   S    
C119  H22   S    
C66   O9    A    
C14   O35   S    
C3    H28   S    
C78   O22   S    
C21   H85   S    
C5    H35   S    
C43   C44   S    
C4    O25   S    
C16   H70   S    
C112  O35   S    
C49   C99   S    
C74   O26   S    
C100  C113  A    
C21   O42   S    
C4    H31   S    
C1    O45   A    
C88   O3    A    
C28   C38   T    
C26   C86   S    
C75   O25   S    
C12   H60   S    
C90   C103  A    
C17   H72   S    
Cr6   O19   S    
C19   H77   S    
Cr1   O1    S    
C25   H96   S    
C18   H76   S    
C44   O1    A    
C40   C106  A    
C20   H83   S    
C17   O38   S    
C108  O44   S    
C70   C83   A    
C15   O36   S    
C79   C92   A    
C116  O37   S    
Cr2   O12   S    
Cr4   O11   S    
C67   O27   S    
C1    C41   S    
C49   C115  A    
C15   H64   S    
C64   H4    S    
C99   O13   A    
C40   C53   A    
C94   C107  A    
C7    H43   S    
C93   C106  A    
C18   H74   S    
C74   C87   A    
C39   C66   S    
C31   C35   T    
C62   C75   A    
Cr5   O19   S    
C3    H29   S    
C68   C81   A    
C55   O12   A    
C29   C37   T    
C70   O30   S    
C25   O46   S    
C86   C100  A    
Cr1   O34   S    
C48   C114  A    
C71   C84   A    
C101  H10   S    
C39   C105  A    
C7    H41   S    
Cr1   O8    S    
C120  H25   S    
C82   C95   A    
C41   C107  A    
C6    O27   S    
C72   O21   S    
C27   C32   T    
C40   C77   S    
C24   C47   S    
C64   C78   A    
C114  O39   S    
C118  H19   S    
C76   O24   S    
C67   C80   A    
C6    H38   S    
Cr3   O23   S    
C102  C115  A    
C35   C84   S    
C45   C111  A    
C2    O15   A    
C13   O16   A    
C61   C74   A    
Cr1   O18   S    
C61   H89   S    
C96   C109  A    
C23   O44   S    
C118  H18   S    
Cr1   O5    S    
C21   H86   S    
C30   C36   T    
C88   O11   A    
C58   H56   S    
C5    H36   S    
C98   C112  A    
C22   H88   S    
C103  C116  A    
Cr4   O19   S    
C44   O7    A    
C38   C81   S    
C16   H69   S    
C117  O36   S    
C73   O20   S    
C19   O40   S    
C62   H2    S    
C14   H61   S    
C22   O43   S    
C1    O5    A    
C48   C61   A    
C12   H58   S    
C42   C108  A    
C97   C111  A    
C83   C96   A    
C120  H27   S    
C51   C117  A    
C69   C82   A    
C28   C91   S    
C50   C116  A    
C63   H3    S    
C84   C97   A    
C37   C82   S    
C16   H68   S    
C24   O17   A    
C73   C86   A    
C23   H92   S    
C99   O4    A    
C60   H78   S    
C95   C108  A    
C43   C57   A    
C111  O42   S    
C68   O32   S    
C92   C105  A    
C45   C55   S    
C95   H16   S    
C56   H34   S    
C56   C69   A    
C22   H87   S    
C98   H6    S    
C107  O46   S    
C19   H79   S    
C20   H82   S    
C78   C91   A    
Cr3   O18   S    
C25   H94   S    
C11   H54   S    
C43   C109  A    
C20   H81   S    
C9    H48   S    
C80   C93   A    
C92   H13   S    
C119  O21   S    
Cr3   O7    S    
C17   H73   S    
C52   C65   A    
C8    H46   S    
C33   C42   S    
C5    O26   S    
C57   H45   S    
C66   O23   A    
