data_mof_unit_51153.cif
_audit_creation_date              2012-12-11T14:39:18-0500
_audit_creation_method            fapswitch 2.2
_symmetry_space_group_name_H-M    P1
_symmetry_Int_Tables_number       1
_space_group_crystal_system       monoclinic
_cell_length_a                    7.210683
_cell_length_b                    14.162518
_cell_length_c                    16.341331
_cell_angle_alpha                 90.0
_cell_angle_beta                  97.508872
_cell_angle_gamma                 90.0
_cell_volume                      1654.48948911

loop_
_atom_site_label
_atom_site_type_symbol
_atom_type_description
_atom_site_fract_x
_atom_site_fract_y
_atom_site_fract_z
_atom_type_partial_charge
O1    O     O_R   0.525340 0.338340 0.164530 -0.538290
O2    O     O_R   0.474660 0.661660 0.835470 -0.538289
O3    O     O_R   0.974660 0.838340 0.835470 -0.538290
O4    O     O_R   0.025340 0.161660 0.164530 -0.538290
O5    O     O_R   0.253520 0.352000 0.336710 -0.541677
O6    O     O_R   0.746480 0.648000 0.663290 -0.541676
O7    O     O_R   0.246480 0.852000 0.663290 -0.541677
O8    O     O_R   0.753520 0.148000 0.336710 -0.541676
O9    O     O_R   0.083330 0.168380 0.337300 -0.542231
O10   O     O_R   0.916670 0.831620 0.662700 -0.542230
O11   O     O_R   0.416670 0.668380 0.662700 -0.542231
O12   O     O_R   0.583330 0.331620 0.337300 -0.542231
C1    C     C_R   0.432569 0.368664 0.363798 0.668029
C2    C     C_R   0.567431 0.631336 0.636202 0.668030
C3    C     C_R   0.067431 0.868664 0.636202 0.668030
C4    C     C_R   0.932569 0.131335 0.363798 0.668029
O13   O     O_R   0.195840 0.349670 0.165140 -0.527982
O14   O     O_R   0.804160 0.650330 0.834860 -0.527984
O15   O     O_R   0.304160 0.849670 0.834860 -0.527982
O16   O     O_R   0.695840 0.150330 0.165140 -0.527983
C5    C     C_R   0.356914 0.370130 0.136881 0.754726
C6    C     C_R   0.643086 0.629870 0.863119 0.754722
C7    C     C_R   0.143086 0.870130 0.863119 0.754724
C8    C     C_R   0.856914 0.129870 0.136881 0.754725
O17   O     O_3   0.387830 0.193120 0.250910 -0.371902
O18   O     O_3   0.612170 0.806880 0.749090 -0.371900
O19   O     O_3   0.112170 0.693120 0.749090 -0.371903
O20   O     O_3   0.887830 0.306880 0.250910 -0.371901
V1    V     V_3+5 0.113010 0.264540 0.250910 1.495780
V2    V     V_3+5 0.886990 0.735460 0.749090 1.495775
V3    V     V_3+5 0.386990 0.764540 0.749090 1.495777
V4    V     V_3+5 0.613010 0.235460 0.250910 1.495779
C9    C     C_R   0.884531 0.186741 0.529381 -0.171566
C10   C     C_R   0.115468 0.813259 0.470618 -0.171565
C11   C     C_R   0.615466 0.686741 0.470618 -0.171566
C12   C     C_R   0.384530 0.313259 0.529381 -0.171566
C13   C     C_R   0.859174 0.215684 0.608631 -0.172152
C14   C     C_R   0.140824 0.784315 0.391368 -0.172154
C15   C     C_R   0.640824 0.715685 0.391368 -0.172150
C16   C     C_R   0.359174 0.284316 0.608631 -0.172154
C17   C     C_R   0.889014 0.152866 0.675022 0.020844
C18   C     C_R   0.110984 0.847133 0.324977 0.020833
C19   C     C_R   0.610989 0.652866 0.324978 0.020842
C20   C     C_R   0.389017 0.347133 0.675023 0.020839
C21   C     C_R   0.945965 0.060152 0.660773 -0.165816
C22   C     C_R   0.054033 0.939847 0.339226 -0.165817
C23   C     C_R   0.554038 0.560152 0.339227 -0.165817
C24   C     C_R   0.445969 0.439847 0.660774 -0.165817
C25   C     C_R   0.972475 0.029137 0.580718 0.039567
C26   C     C_R   0.027524 0.970862 0.419282 0.039569
C27   C     C_R   0.527526 0.529137 0.419282 0.039568
C28   C     C_R   0.472476 0.470862 0.580718 0.039567
C29   C     C_R   0.940779 0.093475 0.513809 0.062907
C30   C     C_R   0.059220 0.906525 0.486191 0.062908
C31   C     C_R   0.559220 0.593475 0.486191 0.062907
C32   C     C_R   0.440779 0.406525 0.513809 0.062908
C33   C     C_R   0.032023 0.935804 0.566778 -0.151885
C34   C     C_R   0.967977 0.064196 0.433222 -0.151884
C35   C     C_R   0.467977 0.435804 0.433222 -0.151884
C36   C     C_R   0.532023 0.564196 0.566778 -0.151884
H1    H     H_    0.815897 0.287743 0.617761 0.165701
H2    H     H_    0.184102 0.712256 0.382239 0.165703
H3    H     H_    0.684101 0.787744 0.382239 0.165701
H4    H     H_    0.315896 0.212257 0.617761 0.165702
C37   C     C_2   0.146387 0.943507 0.927341 -0.302261
C38   C     C_2   0.853612 0.056493 0.072659 -0.302259
C39   C     C_2   0.353613 0.443507 0.072659 -0.302267
C40   C     C_2   0.646388 0.556493 0.927341 -0.302250
C41   C     C_2   0.005987 0.955870 0.975035 0.004858
C42   C     C_2   0.994013 0.044130 0.024964 0.004856
C43   C     C_2   0.494013 0.455871 0.024965 0.004858
C44   C     C_2   0.505987 0.544130 0.975036 0.004855
C45   C     C_2   0.138345 0.815499 0.240742 0.808410
O21   O     O_2   0.124910 0.871869 0.183550 -0.546627
O22   O     O_R   0.179139 0.720832 0.226393 -0.666045
H5    H     H_    0.194589 0.708023 0.166602 0.331294
C46   C     C_2   0.861653 0.184500 0.759258 0.808403
O23   O     O_2   0.875083 0.128130 0.816449 -0.546629
O24   O     O_R   0.820867 0.279168 0.773608 -0.666045
H6    H     H_    0.805417 0.291977 0.833398 0.331298
C47   C     C_2   0.361660 0.315499 0.759258 0.808408
O25   O     O_2   0.375113 0.371866 0.816452 -0.546631
O26   O     O_R   0.320853 0.220833 0.773607 -0.666047
H7    H     H_    0.305410 0.208024 0.833397 0.331297
C48   C     C_2   0.638355 0.684499 0.240743 0.808395
O27   O     O_2   0.624952 0.628126 0.183553 -0.546625
O28   O     O_R   0.679116 0.779171 0.226391 -0.666042
H8    H     H_    0.694576 0.791978 0.166601 0.331298
H9    H     H_    0.860414 0.238713 0.480614 0.123578
H10   H     H_    0.139586 0.761286 0.519386 0.123578
H11   H     H_    0.639582 0.738714 0.519386 0.123578
H12   H     H_    0.360411 0.261287 0.480614 0.123578
H13   H     H_    0.970621 0.012657 0.712930 0.133819
H14   H     H_    0.029377 0.987342 0.287070 0.133818
H15   H     H_    0.529384 0.512656 0.287071 0.133818
H16   H     H_    0.470626 0.487342 0.712930 0.133818
C49   C     C_2   0.136454 0.119161 0.020083 0.808829
O29   O     O_2   0.088709 0.196455 0.991414 -0.556701
O30   O     O_R   0.323942 0.101270 0.049380 -0.651393
H17   H     H_    0.407033 0.157563 0.042476 0.320729
C50   C     C_2   0.863547 0.880840 0.979917 0.808832
O31   O     O_2   0.911290 0.803547 0.008590 -0.556699
O32   O     O_R   0.676062 0.898728 0.950616 -0.651391
H18   H     H_    0.592970 0.842436 0.957521 0.320730
C51   C     C_2   0.363547 0.619161 0.979918 0.808821
O33   O     O_2   0.411294 0.696456 0.008585 -0.556704
O34   O     O_R   0.176059 0.601271 0.950623 -0.651394
H19   H     H_    0.092968 0.657564 0.957526 0.320729
C52   C     C_2   0.636453 0.380840 0.020083 0.808837
O35   O     O_2   0.588707 0.303545 0.991414 -0.556699
O36   O     O_R   0.823941 0.398730 0.049380 -0.651392
H20   H     H_    0.907032 0.342437 0.042475 0.320729
H21   H     H_    0.739345 0.006584 0.070635 0.167462
H22   H     H_    0.260655 0.993417 0.929363 0.167464
H23   H     H_    0.760655 0.506584 0.929364 0.167465
H24   H     H_    0.239346 0.493417 0.070637 0.167466

loop_
_geom_bond_atom_site_label_1
_geom_bond_atom_site_label_2
_ccdc_geom_bond_type
O28   H8    S    
O1    C5    A    
C50   O31   D    
C38   H21   S    
O13   V1    S    
C45   O21   D    
O3    C7    A    
O36   H20   S    
C39   H24   S    
C21   H13   S    
C47   O25   D    
C48   O27   D    
C51   O34   S    
C26   C30   A    
O20   V1    S    
O9    C4    A    
C14   C18   A    
O10   C3    A    
C52   O36   S    
C17   C46   S    
O4    C8    A    
O11   C2    A    
C25   C29   A    
C25   C33   A    
C37   H22   S    
C28   C36   A    
C47   O26   S    
C23   C27   A    
O16   C8    A    
C3    C33   S    
O2    C6    A    
O34   H19   S    
O14   V2    S    
C16   C20   A    
O5    C1    A    
O4    V1    S    
C42   C49   S    
C8    C38   S    
C12   H12   S    
O17   V4    S    
O7    C3    A    
O15   V3    S    
O18   V3    S    
C50   O32   S    
O14   C6    A    
C31   C36   A    
C5    C39   S    
O19   V2    S    
C45   O22   S    
C49   O30   S    
C49   O29   D    
O5    V1    S    
C46   O24   S    
C9    C29   A    
O7    V3    S    
C48   O28   S    
C11   C31   A    
C26   C34   A    
C12   C16   A    
C20   C47   S    
O15   C7    A    
C15   C19   A    
C27   C31   A    
C46   O23   D    
O1    V4    S    
O13   C5    A    
O2    V3    S    
O8    V4    S    
O3    V2    S    
C11   C15   A    
O22   H5    S    
C10   H10   S    
C12   C32   A    
C9    H9    S    
O6    C2    A    
O10   V2    S    
O26   H7    S    
C22   H14   S    
C21   C25   A    
C40   C44   D    
C4    C34   S    
O12   C1    A    
C6    C40   S    
O6    V2    S    
C10   C30   A    
C19   C48   S    
C18   C22   A    
C27   C35   A    
C15   H3    S    
O16   V4    S    
C18   C45   S    
C23   H15   S    
C24   H16   S    
C10   C14   A    
C13   H1    S    
C29   C34   A    
C32   C35   A    
C1    C35   S    
C41   C50   S    
C2    C36   S    
C51   O33   D    
C22   C26   A    
C16   H4    S    
O30   H17   S    
C7    C37   S    
C43   C44   S    
C52   O35   D    
O9    V1    S    
C38   C42   D    
C37   C41   D    
C43   C52   S    
C39   C43   D    
C13   C17   A    
C41   C42   S    
C9    C13   A    
C40   H23   S    
O11   V3    S    
O24   H6    S    
C28   C32   A    
C24   C28   A    
C44   C51   S    
O8    C4    A    
O32   H18   S    
C17   C21   A    
C19   C23   A    
O12   V4    S    
C20   C24   A    
C14   H2    S    
C30   C33   A    
C11   H11   S    
