data_mof_unit_21445.cif
_audit_creation_date              2012-12-10T16:50:54-0500
_audit_creation_method            fapswitch 2.2
_symmetry_space_group_name_H-M    P1
_symmetry_Int_Tables_number       1
_space_group_crystal_system       triclinic
_cell_length_a                    7.879543
_cell_length_b                    8.580198
_cell_length_c                    10.842099
_cell_angle_alpha                 92.878979
_cell_angle_beta                  86.492288
_cell_angle_gamma                 92.825255
_cell_volume                      729.930622485

loop_
_atom_site_label
_atom_site_type_symbol
_atom_type_description
_atom_site_fract_x
_atom_site_fract_y
_atom_site_fract_z
_atom_type_partial_charge
C1    C     C_R   0.544762 0.794081 0.497088 0.957337
C2    C     C_R   0.967101 0.507739 0.032675 -0.244171
C3    C     C_R   0.054796 0.646777 0.076243 -0.150760
C4    C     C_R   0.964141 0.577665 0.918459 -0.136695
C5    C     C_R   0.206167 0.635658 0.139255 0.548161
C6    C     C_R   0.805599 0.618944 0.878988 0.530497
C7    C     C_R   0.352406 0.574964 0.071918 -0.081143
C8    C     C_R   0.656980 0.549183 0.930554 -0.040351
C9    C     C_R   0.362457 0.596245 0.944025 0.047212
C10   C     C_R   0.653600 0.505720 0.051586 0.013716
C11   C     C_R   0.497795 0.518486 0.125979 -0.195608
C12   C     C_R   0.455696 0.206162 0.501556 0.927623
C13   C     C_R   0.507478 0.554642 0.872463 -0.158600
C14   C     C_3   0.318241 0.874066 0.206011 -0.322641
C15   C     C_3   0.719182 0.871809 0.871445 -0.416469
C16   C     C_3   0.973882 0.247220 0.341340 -0.203762
C17   C     C_3   0.052089 0.781134 0.626634 -0.038598
C18   C     C_2   0.569098 0.957536 0.498944 -0.386102
C19   C     C_2   0.433354 0.043120 0.496555 -0.420027
C20   C     C_R   0.503958 0.518695 0.739077 0.881420
C21   C     C_R   0.497832 0.501073 0.259543 0.858158
C22   C     C_R   0.243187 0.689407 0.896329 -0.232174
C23   C     C_R   0.810354 0.461817 0.092585 -0.187272
C24   C     C_R   0.079319 0.698735 0.954420 -0.214478
H1    H     H_    0.013932 0.500259 0.843363 0.151936
H2    H     H_    0.283359 0.914486 0.115183 0.134247
H3    H     H_    0.457119 0.856153 0.203893 0.164934
H4    H     H_    0.776575 0.981717 0.834255 0.188171
H5    H     H_    0.739590 0.876097 0.972502 0.155674
H6    H     H_    0.580936 0.869876 0.857192 0.187589
H7    H     H_    0.045318 0.321231 0.272444 0.127996
H8    H     H_    0.837401 0.231730 0.322557 0.163642
H9    H     H_    0.027703 0.129907 0.332174 0.148973
H10   H     H_    0.170494 0.852453 0.619485 0.118851
H11   H     H_    0.058543 0.707828 0.705665 0.153889
H12   H     H_    0.970301 0.721683 0.133703 0.183355
H13   H     H_    0.952062 0.867318 0.642358 0.183131
H14   H     H_    0.279088 0.756810 0.816364 0.138099
H15   H     H_    0.810957 0.370403 0.156492 0.153308
H16   H     H_    0.036971 0.815427 0.943192 0.172379
H17   H     H_    0.047177 0.407415 0.031002 0.144381
H18   H     H_    0.698288 0.007198 0.504694 0.201617
H19   H     H_    0.305432 0.994448 0.486824 0.196919
H20   H     H_    0.288820 0.970032 0.274551 0.179272
N1    N     N_2   0.950330 0.457950 0.466250 0.207192
N2    N     N_2   0.049670 0.542050 0.533750 0.183089
O1    O     O_R   0.389250 0.738570 0.508280 -0.596761
O2    O     O_3   0.794284 0.744079 0.804499 -0.644038
O3    O     O_3   0.993553 0.308027 0.462141 -0.521201
O4    O     O_3   0.020098 0.693132 0.517872 -0.504227
O5    O     O_R   0.610750 0.261430 0.491720 -0.614599
O6    O     O_R   0.678390 0.711630 0.486650 -0.576433
O7    O     O_R   0.321610 0.288370 0.513350 -0.584172
O8    O     O_R   0.355430 0.513480 0.694040 -0.651799
O9    O     O_R   0.644570 0.486520 0.305960 -0.646617
O10   O     O_R   0.644570 0.486540 0.672410 -0.597775
O11   O     O_R   0.355430 0.513460 0.327590 -0.565080
O12   O     O_3   0.225082 0.736881 0.242026 -0.558332
Zn1   Zn    Zn3+2 0.306940 0.517990 0.514440 1.046406
Zn2   Zn    Zn3+2 0.693060 0.482010 0.485560 1.040708

loop_
_geom_bond_atom_site_label_1
_geom_bond_atom_site_label_2
_ccdc_geom_bond_type
C17   O4    S    
C2    C4    A    
N1    Zn2   S    
C21   O11   A    
C8    C13   A    
N2    Zn1   S    
C14   H3    S    
C16   H8    S    
O6    Zn2   S    
C11   C21   S    
N2    O4    S    
C12   O7    A    
N1    O3    S    
C20   O10   A    
C6    C8    A    
C2    C3    A    
C3    C24   A    
C17   H13   S    
N1    N2    D    
C14   H2    S    
C16   H7    S    
C7    C11   A    
C4    H1    S    
C5    O12   S    
C15   H4    S    
C6    O2    S    
C3    H12   S    
C4    C24   A    
C15   O2    S    
C12   C19   S    
C14   H20   S    
C24   H16   S    
C19   H19   S    
C15   H5    S    
C5    C7    A    
O8    Zn1   S    
C18   H18   S    
O7    Zn1   S    
C16   H9    S    
C1    O6    A    
C22   C24   A    
C9    C22   A    
O11   Zn1   S    
C4    C6    A    
C10   C11   A    
C2    H17   S    
O1    Zn1   S    
C22   H14   S    
C7    C9    A    
C12   O5    A    
C16   O3    S    
C15   H6    S    
C20   O8    A    
C18   C19   D    
C17   H10   S    
C2    C23   A    
C21   O9    A    
C1    C18   S    
C1    O1    A    
C10   C23   A    
C9    C13   A    
O5    Zn2   S    
C17   H11   S    
C13   C20   S    
O9    Zn2   S    
C23   H15   S    
C8    C10   A    
O10   Zn2   S    
C14   O12   S    
C3    C5    A    
