data_mof_unit_47985.cif
_audit_creation_date              2012-12-11T14:54:31-0500
_audit_creation_method            fapswitch 2.2
_symmetry_space_group_name_H-M    P1
_symmetry_Int_Tables_number       1
_space_group_crystal_system       triclinic
_cell_length_a                    19.001708
_cell_length_b                    10.878347
_cell_length_c                    18.807998
_cell_angle_alpha                 89.910749
_cell_angle_beta                  90.010104
_cell_angle_gamma                 90.281694
_cell_volume                      3887.69634143

loop_
_atom_site_label
_atom_site_type_symbol
_atom_type_description
_atom_site_fract_x
_atom_site_fract_y
_atom_site_fract_z
_atom_type_partial_charge
C1    C     C_R   0.728909 0.374386 0.644504 0.561788
C2    C     C_R   0.310980 0.890980 0.463203 -0.117532
C3    C     C_R   0.040666 0.558982 0.447843 -0.132437
C4    C     C_R   0.201259 0.359048 0.539797 -0.129874
C5    C     C_R   0.810980 0.390980 0.463203 -0.117532
C6    C     C_R   0.699359 0.848426 0.466236 0.071446
C7    C     C_R   0.306790 0.881987 0.536764 0.057890
C8    C     C_R   0.199359 0.348426 0.466236 0.071446
C9    C     C_R   0.806790 0.381987 0.536764 0.057890
C10   C     C_R   0.748267 0.916718 0.424650 0.030479
C11   C     C_R   0.241173 0.899614 0.569739 0.036512
C12   C     C_R   0.248267 0.416718 0.424650 0.030479
C13   C     C_R   0.269162 0.377379 0.353918 0.553988
C14   C     C_R   0.741173 0.399614 0.569739 0.036512
C15   C     C_R   0.790890 0.005370 0.457018 -0.169095
C16   C     C_R   0.181088 0.922249 0.528064 -0.138202
C17   C     C_R   0.290890 0.505370 0.457018 -0.169096
C18   C     C_R   0.681088 0.422249 0.528064 -0.138202
C19   C     C_R   0.791661 0.016034 0.529680 -0.142231
C20   C     C_R   0.185305 0.926458 0.455312 -0.123842
C21   C     C_R   0.291661 0.516034 0.529680 -0.142231
C22   C     C_R   0.685305 0.426459 0.455312 -0.123842
C23   C     C_R   0.747741 0.941544 0.571703 -0.000162
C24   C     C_R   0.228909 0.874386 0.644504 0.561788
C25   C     C_R   0.250599 0.917524 0.422753 0.004989
C26   C     C_R   0.247741 0.441544 0.571703 -0.000162
C27   C     C_R   0.750599 0.417524 0.422753 0.004989
C28   C     C_R   0.556863 0.057846 0.979557 -0.131733
C29   C     C_R   0.537439 0.060436 0.050568 -0.127597
C30   C     C_R   0.056862 0.557844 0.979556 -0.131733
C31   C     C_R   0.037438 0.560434 0.050568 -0.127598
C32   C     C_R   0.507380 0.166758 0.079676 0.026823
C33   C     C_R   0.547778 0.161817 0.936773 0.027661
C34   C     C_R   0.007381 0.666758 0.079676 0.026824
C35   C     C_R   0.769162 0.877379 0.353918 0.553988
C36   C     C_R   0.047778 0.661818 0.936773 0.027662
C37   C     C_R   0.503289 0.274048 0.038461 -0.138560
C38   C     C_R   0.523592 0.271696 0.967291 -0.131512
C39   C     C_R   0.003292 0.774050 0.038462 -0.138559
C40   C     C_R   0.023595 0.771698 0.967292 -0.131509
C41   C     C_R   0.564075 0.151086 0.638988 0.562077
C42   C     C_R   0.468695 0.155404 0.353370 0.546514
C43   C     C_R   0.064075 0.651086 0.638988 0.562077
C44   C     C_R   0.968695 0.655404 0.353370 0.546514
C45   C     C_R   0.786826 0.026797 0.972986 -0.125781
C46   C     C_3   0.450410 0.359380 0.474044 -0.252443
C47   C     C_R   0.185695 0.949813 0.040545 -0.136360
C48   C     C_R   0.286827 0.526795 0.972986 -0.125780
C49   C     C_R   0.685697 0.449812 0.040544 -0.136364
C50   C     C_R   0.788030 0.013171 0.045620 -0.135874
C51   C     C_R   0.182089 0.944226 0.967899 -0.134091
C52   C     C_R   0.288032 0.513170 0.045620 -0.135874
C53   C     C_R   0.682090 0.444222 0.967898 -0.134093
C54   C     C_R   0.750536 0.916968 0.076934 0.031083
C55   C     C_R   0.240007 0.903406 0.928165 0.034484
C56   C     C_R   0.250536 0.416968 0.076934 0.031084
C57   C     C_3   0.471978 0.356361 0.551686 -0.254801
C58   C     C_R   0.740008 0.403408 0.928164 0.034482
C59   C     C_R   0.707214 0.840098 0.035363 -0.137510
C60   C     C_R   0.302069 0.868525 0.962577 -0.141715
C61   C     C_R   0.207213 0.340100 0.035363 -0.137509
C62   C     C_R   0.802071 0.368536 0.962575 -0.141718
C63   C     C_R   0.705357 0.854871 0.962122 -0.152326
C64   C     C_R   0.306670 0.878808 0.036045 -0.137718
C65   C     C_R   0.205356 0.354872 0.962122 -0.152325
C66   C     C_R   0.806673 0.378819 0.036043 -0.137719
C67   C     C_R   0.746556 0.946515 0.930673 0.033358
C68   C     C_3   0.950410 0.859380 0.474044 -0.252443
C69   C     C_R   0.248808 0.922681 0.074935 0.031271
C70   C     C_R   0.246556 0.446514 0.930672 0.033359
C71   C     C_R   0.748810 0.422686 0.074933 0.031269
C72   C     C_R   0.740791 0.972402 0.646113 0.543427
C73   C     C_R   0.258619 0.967457 0.351978 0.550715
C74   C     C_R   0.240791 0.472402 0.646113 0.543427
C75   C     C_R   0.758619 0.467457 0.351978 0.550716
C76   C     C_R   0.728196 0.375478 0.853895 0.546066
C77   C     C_R   0.269906 0.378859 0.147837 0.545705
C78   C     C_R   0.228195 0.875477 0.853896 0.546067
C79   C     C_3   0.971978 0.856361 0.551686 -0.254802
C80   C     C_R   0.769906 0.878859 0.147837 0.545705
C81   C     C_R   0.564073 0.153198 0.860890 0.559882
C82   C     C_R   0.469450 0.157437 0.147233 0.547135
C83   C     C_R   0.064074 0.653198 0.860890 0.559883
C84   C     C_R   0.969450 0.657437 0.147233 0.547134
C85   C     C_R   0.740312 0.975008 0.855924 0.543601
C86   C     C_R   0.258565 0.969853 0.146091 0.543386
C87   C     C_R   0.240312 0.475007 0.855924 0.543601
C88   C     C_R   0.758565 0.469855 0.146091 0.543386
C89   C     C_R   0.509763 0.164879 0.418700 0.012960
C90   C     C_R   0.701259 0.859047 0.539797 -0.129874
C91   C     C_R   0.549248 0.158718 0.562982 0.019815
C92   C     C_R   0.009763 0.664879 0.418700 0.012960
C93   C     C_R   0.049248 0.658718 0.562982 0.019815
C94   C     C_R   0.508995 0.271795 0.459831 0.003343
C95   C     C_R   0.528521 0.268684 0.530708 -0.001004
C96   C     C_R   0.008995 0.771795 0.459831 0.003343
C97   C     C_R   0.028521 0.768684 0.530708 -0.001004
C98   C     C_R   0.559518 0.055617 0.519627 -0.127945
C99   C     C_R   0.540666 0.058982 0.447843 -0.132437
C100  C     C_R   0.059518 0.555617 0.519627 -0.127945
Cr1   Cr    Cr6+3 0.771950 0.169480 0.750100 1.043144
Cr2   Cr    Cr6+3 0.383410 0.010620 0.249390 1.024614
Cr3   Cr    Cr6+3 0.116590 0.510620 0.750610 1.033359
Cr4   Cr    Cr6+3 0.883410 0.510620 0.249390 1.024613
Cr5   Cr    Cr6+3 0.228050 0.169480 0.249900 1.049959
Cr6   Cr    Cr6+3 0.271950 0.669480 0.750100 1.043144
Cr7   Cr    Cr6+3 0.728050 0.669480 0.249900 1.049959
Cr8   Cr    Cr6+3 0.614930 0.323340 0.749170 1.020183
Cr9   Cr    Cr6+3 0.385070 0.323340 0.250830 1.022393
Cr10  Cr    Cr6+3 0.114930 0.823340 0.749170 1.020183
Cr11  Cr    Cr6+3 0.885070 0.823340 0.250830 1.022393
Cr12  Cr    Cr6+3 0.616590 0.010620 0.750610 1.033359
H1    H     H_    0.577003 0.969948 0.542421 0.162292
H2    H     H_    0.132673 0.969275 0.943284 0.131938
H3    H     H_    0.321367 0.573612 0.076826 0.126720
H4    H     H_    0.632675 0.469266 0.943284 0.131943
H5    H     H_    0.678096 0.764316 0.058742 0.137337
H6    H     H_    0.346574 0.833870 0.932875 0.127280
H7    H     H_    0.178094 0.264320 0.058742 0.137335
H8    H     H_    0.846576 0.333888 0.932872 0.127283
H9    H     H_    0.672489 0.794814 0.930225 0.122504
H10   H     H_    0.356210 0.858019 0.061789 0.132870
H11   H     H_    0.172487 0.294817 0.930226 0.122503
H12   H     H_    0.543746 0.975348 0.417148 0.176172
H13   H     H_    0.856213 0.358038 0.061786 0.132875
H14   H     H_    0.897752 0.817645 0.464365 0.163287
H15   H     H_    0.993666 0.945480 0.570761 0.154476
H16   H     H_    0.397752 0.317646 0.464365 0.163287
H17   H     H_    0.493666 0.445480 0.570761 0.154476
H18   H     H_    0.459436 0.450276 0.448453 0.158489
H19   H     H_    0.431600 0.313706 0.586858 0.166475
H20   H     H_    0.959436 0.950276 0.448453 0.158489
H21   H     H_    0.931600 0.813706 0.586858 0.166475
H22   H     H_    0.664457 0.806610 0.571904 0.152402
H23   H     H_    0.077003 0.469948 0.542421 0.162292
H24   H     H_    0.362326 0.885575 0.438421 0.164419
H25   H     H_    0.164457 0.306610 0.571904 0.152402
H26   H     H_    0.862326 0.385574 0.438421 0.164419
H27   H     H_    0.827244 0.061611 0.426529 0.144916
H28   H     H_    0.129814 0.935876 0.551527 0.155996
H29   H     H_    0.327244 0.561611 0.426529 0.144916
H30   H     H_    0.629814 0.435876 0.551527 0.155996
H31   H     H_    0.826111 0.084968 0.552605 0.175231
H32   H     H_    0.138144 0.945474 0.424909 0.163888
H33   H     H_    0.326111 0.584968 0.552605 0.175231
H34   H     H_    0.043746 0.475348 0.417148 0.176172
H35   H     H_    0.638144 0.445474 0.424909 0.163888
H36   H     H_    0.576569 0.973068 0.957324 0.129410
H37   H     H_    0.542072 0.976751 0.081488 0.131361
H38   H     H_    0.076566 0.473065 0.957323 0.129410
H39   H     H_    0.042068 0.476748 0.081486 0.131361
H40   H     H_    0.480372 0.357201 0.059754 0.130190
H41   H     H_    0.517199 0.354045 0.935596 0.129993
H42   H     H_    0.980376 0.857204 0.059755 0.130188
H43   H     H_    0.017203 0.854048 0.935597 0.129991
H44   H     H_    0.817161 0.101514 0.950141 0.137273
H45   H     H_    0.140160 0.983068 0.069254 0.130183
H46   H     H_    0.317164 0.601509 0.950140 0.137271
H47   H     H_    0.640162 0.483062 0.069255 0.130185
H48   H     H_    0.821365 0.073615 0.076827 0.126721
I1    I     I_    0.617632 0.733062 0.426275 -0.423742
I2    I     I_    0.402626 0.854681 0.592820 -0.364403
I3    I     I_    0.117632 0.233062 0.426275 -0.423742
I4    I     I_    0.902626 0.354681 0.592820 -0.364403
O1    O     O_R   0.787510 0.042610 0.670410 -0.506463
O2    O     O_R   0.454250 0.051070 0.169440 -0.522584
O3    O     O_R   0.045750 0.551070 0.830560 -0.498765
O4    O     O_R   0.954250 0.551070 0.169440 -0.522586
O5    O     O_R   0.681210 0.959150 0.825320 -0.522195
O6    O     O_R   0.318790 0.959150 0.174680 -0.507114
O7    O     O_R   0.181210 0.459150 0.825320 -0.522195
O8    O     O_R   0.818790 0.459150 0.174680 -0.507115
O9    O     O_3   0.667820 0.167810 0.749960 -0.301118
O10   O     O_3   0.332180 0.167810 0.250040 -0.247974
O11   O     O_3   0.167820 0.667810 0.749960 -0.301118
O12   O     O_R   0.212490 0.042610 0.329590 -0.485790
O13   O     O_3   0.832180 0.667810 0.250040 -0.247974
O14   O     O_R   0.765670 0.292090 0.675090 -0.469122
O15   O     O_R   0.234330 0.292090 0.324910 -0.462762
O16   O     O_R   0.265670 0.792090 0.675090 -0.469122
O17   O     O_R   0.734330 0.792090 0.324910 -0.462762
O18   O     O_R   0.670220 0.409020 0.668560 -0.533373
O19   O     O_R   0.329780 0.409020 0.331440 -0.534092
O20   O     O_R   0.170220 0.909020 0.668560 -0.533373
O21   O     O_R   0.829780 0.909020 0.331440 -0.534092
O22   O     O_R   0.556580 0.251590 0.674980 -0.494246
O23   O     O_R   0.287510 0.542610 0.670410 -0.506463
O24   O     O_R   0.443420 0.251590 0.325020 -0.499253
O25   O     O_R   0.056580 0.751590 0.674980 -0.494246
O26   O     O_R   0.943420 0.751590 0.325020 -0.499253
O27   O     O_R   0.545890 0.049670 0.670030 -0.475579
O28   O     O_R   0.454110 0.049670 0.329970 -0.517727
O29   O     O_R   0.045890 0.549670 0.670030 -0.475579
O30   O     O_R   0.954110 0.549670 0.329970 -0.517727
O31   O     O_R   0.681340 0.957860 0.676500 -0.520556
O32   O     O_R   0.318660 0.957860 0.323500 -0.511796
O33   O     O_R   0.181340 0.457860 0.676500 -0.520556
O34   O     O_R   0.712490 0.542610 0.329590 -0.485790
O35   O     O_R   0.818660 0.457860 0.323500 -0.511796
O36   O     O_R   0.787380 0.044010 0.830940 -0.517897
O37   O     O_R   0.212620 0.044010 0.169060 -0.526802
O38   O     O_R   0.287380 0.544010 0.830940 -0.517898
O39   O     O_R   0.712620 0.544010 0.169060 -0.526802
O40   O     O_R   0.765540 0.293390 0.823910 -0.500203
O41   O     O_R   0.234460 0.293390 0.176090 -0.506234
O42   O     O_R   0.265540 0.793390 0.823910 -0.500203
O43   O     O_R   0.734460 0.793390 0.176090 -0.506235
O44   O     O_R   0.670090 0.410410 0.829090 -0.532199
O45   O     O_R   0.556450 0.252890 0.823790 -0.496704
O46   O     O_R   0.329910 0.410410 0.170910 -0.523041
O47   O     O_R   0.170090 0.910410 0.829090 -0.532199
O48   O     O_R   0.829910 0.910410 0.170910 -0.523041
O49   O     O_R   0.443550 0.252890 0.176210 -0.503072
O50   O     O_R   0.056450 0.752890 0.823790 -0.496703
O51   O     O_R   0.943550 0.752890 0.176210 -0.503072
O52   O     O_R   0.545750 0.051070 0.830560 -0.498764

loop_
_geom_bond_atom_site_label_1
_geom_bond_atom_site_label_2
_ccdc_geom_bond_type
C58   C62   A    
C81   O45   A    
C21   C26   A    
Cr2   O6    S    
C88   O8    A    
C53   C58   A    
C93   C97   A    
C61   H7    S    
C72   O1    A    
C20   H32   S    
Cr1   O9    S    
C2    C7    A    
C4    C8    A    
C72   O31   A    
Cr8   O45   S    
Cr1   O36   S    
C58   C76   S    
C5    H26   S    
Cr10  O11   S    
C7    C11   A    
C50   C54   A    
Cr7   O17   S    
C57   H17   S    
C28   C29   A    
Cr10  O50   S    
C25   C73   S    
Cr11  O51   S    
Cr6   O23   S    
C29   C32   A    
Cr9   O49   S    
C10   C15   A    
C82   O2    A    
C30   C31   A    
C90   H22   S    
C49   C53   A    
C52   H3    S    
C81   O52   A    
Cr4   O4    S    
C20   C25   A    
C36   C83   S    
C65   C70   A    
C11   C24   S    
C92   C96   A    
C76   O44   A    
C17   H29   S    
Cr3   O33   S    
C89   C94   A    
C68   H20   S    
C14   C18   A    
Cr11  O48   S    
C47   C69   A    
Cr1   O14   S    
C44   O26   A    
C4    H25   S    
C5    C27   A    
C3    C100  A    
Cr4   O13   S    
Cr12  O5    S    
C13   O19   A    
Cr5   O12   S    
C12   C17   A    
C24   O16   A    
Cr2   O28   S    
Cr6   O11   S    
C6    I1    S    
C40   H43   S    
C60   H6    S    
C10   C35   S    
C87   O38   A    
Cr7   O43   S    
C44   C92   S    
C100  H23   S    
C16   C20   A    
C76   O40   A    
C80   O48   A    
Cr9   O19   S    
C68   C79   S    
C65   H11   S    
Cr12  O9    S    
Cr10  O20   S    
Cr2   O2    S    
C86   O6    A    
C55   C60   A    
C96   C97   A    
Cr3   O7    S    
Cr7   O39   S    
C16   H28   S    
C34   C84   S    
Cr5   O15   S    
C27   C75   S    
C70   C87   S    
C43   C93   S    
Cr6   O16   S    
C63   H9    S    
C57   H19   S    
C15   H27   S    
C54   C59   A    
Cr9   O24   S    
C79   H21   S    
C7    I2    S    
C63   C67   A    
Cr11  O21   S    
C51   H2    S    
C67   C85   S    
C62   C66   A    
C39   H42   S    
C86   O37   A    
C34   C39   A    
C32   C37   A    
C18   H30   S    
C39   C40   A    
C55   C78   S    
C41   O27   A    
Cr9   O10   S    
C46   H18   S    
C98   H1    S    
C47   C51   A    
C64   C69   A    
C50   H48   S    
C6    C90   A    
C48   H46   S    
Cr1   O40   S    
C42   O28   A    
C85   O5    A    
C56   C77   S    
C3    C92   A    
C84   O51   A    
C21   H33   S    
C9    I4    S    
C15   C19   A    
C9    C14   A    
C78   O42   A    
Cr12  O31   S    
C5    C9    A    
C37   C38   A    
C84   O4    A    
Cr8   O18   S    
C77   O41   A    
Cr6   O38   S    
C82   O49   A    
C31   H39   S    
C1    O14   A    
C85   O36   A    
Cr5   O37   S    
C66   C71   A    
C46   C94   S    
C74   O33   A    
C36   C40   A    
C8    C12   A    
C87   O7    A    
Cr8   O9    S    
Cr3   O11   S    
C23   C90   A    
C45   H44   S    
C68   C96   S    
Cr3   O3    S    
C22   H35   S    
Cr1   O1    S    
C93   C100  A    
C77   O46   A    
Cr11  O26   S    
C41   C91   S    
C89   C99   A    
C28   C33   A    
Cr5   O10   S    
C54   C80   S    
C57   C95   S    
C22   C27   A    
Cr4   O35   S    
C35   O17   A    
C37   H40   S    
Cr9   O46   S    
C68   H14   S    
Cr4   O8    S    
C83   O50   A    
C31   C34   A    
C19   C23   A    
C74   O23   A    
C47   H45   S    
C75   O34   A    
C42   O24   A    
Cr8   O44   S    
C79   H15   S    
C19   H31   S    
C18   C22   A    
C28   H36   S    
C62   H8    S    
C23   C72   S    
C79   C97   S    
C48   C70   A    
C8    I3    S    
Cr2   O32   S    
Cr6   O42   S    
Cr7   O34   S    
C4    C26   A    
C1    O18   A    
C53   H4    S    
Cr5   O41   S    
C45   C67   A    
C75   O35   A    
C24   O20   A    
Cr2   O10   S    
C32   C82   S    
C43   O29   A    
Cr10  O25   S    
C59   C63   A    
C33   C38   A    
C66   H13   S    
C30   C36   A    
C60   C64   A    
C42   C89   S    
Cr10  O47   S    
C46   C57   S    
C13   O15   A    
C35   O21   A    
Cr12  O27   S    
C91   C98   A    
C83   O3    A    
C45   C50   A    
C73   O12   A    
C64   H10   S    
C44   O30   A    
C26   C74   S    
C91   C95   A    
C41   O22   A    
C2    C25   A    
C51   C55   A    
Cr12  O52   S    
C88   O39   A    
C94   C95   A    
C2    H24   S    
C46   H16   S    
C11   C16   A    
C30   H38   S    
C6    C10   A    
C29   H37   S    
C71   C88   S    
C61   C65   A    
C48   C52   A    
C80   O43   A    
C12   C13   S    
C43   O25   A    
C3    H34   S    
C59   H5    S    
C98   C99   A    
C49   C71   A    
C73   O32   A    
Cr11  O13   S    
Cr4   O30   S    
C56   C61   A    
C49   H47   S    
C1    C14   S    
Cr3   O29   S    
C38   H41   S    
Cr8   O22   S    
C33   C81   S    
C78   O47   A    
Cr7   O13   S    
C69   C86   S    
C52   C56   A    
C99   H12   S    
C17   C21   A    
