data_mof_unit_5054.cif
_audit_creation_date              2013-03-05T16:46:58-0500
_audit_creation_method            fapswitch 2.2
_symmetry_space_group_name_H-M    P1
_symmetry_Int_Tables_number       1
_space_group_crystal_system       triclinic
_cell_length_a                    15.010541
_cell_length_b                    8.935164
_cell_length_c                    8.104549
_cell_angle_alpha                 89.988776
_cell_angle_beta                  89.999988
_cell_angle_gamma                 90.0
_cell_volume                      1086.99542758

loop_
_atom_site_label
_atom_site_type_symbol
_atom_site_description
_atom_site_fract_x
_atom_site_fract_y
_atom_site_fract_z
_atom_type_partial_charge
O1    O     O_R   0.500000 0.285350 0.636850 -0.610708
O2    O     O_R   0.500000 0.714650 0.363150 -0.610708
O3    O     O_R   0.500000 0.714650 0.636850 -0.615757
O4    O     O_R   0.500000 0.285350 0.363150 -0.615757
C1    C     C_R   0.500000 0.217988 0.500009 0.940808
C2    C     C_R   0.500000 0.782012 0.499991 0.940808
O5    O     O_R   0.367850 0.500000 0.636890 -0.620221
O6    O     O_R   0.632150 0.500000 0.363110 -0.620221
O7    O     O_R   0.632150 0.500000 0.636890 -0.620221
O8    O     O_R   0.367850 0.500000 0.363110 -0.620221
C3    C     C_R   0.326211 0.500000 0.500000 0.877884
C4    C     C_R   0.673789 0.500000 0.500000 0.877884
Zn1   Zn    Zn3+2 0.500000 0.500000 0.682780 1.021063
Zn2   Zn    Zn3+2 0.500000 0.500000 0.317220 1.021063
N1    N     N_1   0.500000 0.500000 0.073640 -0.022019
N2    N     N_1   0.500000 0.500000 0.926360 -0.022019
C5    C     C_R   0.814921 0.548569 0.640285 -0.101891
C6    C     C_R   0.185078 0.451435 0.359715 -0.101890
C7    C     C_R   0.814921 0.451435 0.359715 -0.101890
C8    C     C_R   0.185079 0.548569 0.640285 -0.101891
C9    C     C_R   0.769419 0.500001 0.500000 -0.127417
C10   C     C_R   0.230581 0.500001 0.500000 -0.127417
C11   C     C_R   0.907197 0.450219 0.358555 -0.060170
C12   C     C_R   0.092803 0.549786 0.641445 -0.060175
C13   C     C_R   0.907197 0.549786 0.641445 -0.060176
C14   C     C_R   0.092803 0.450219 0.358555 -0.060170
C15   C     C_R   0.953613 0.500002 0.500000 -0.090241
C16   C     C_R   0.046387 0.500002 0.500000 -0.090241
C17   C     C_R   0.953719 0.399863 0.219144 0.583960
C18   C     C_R   0.046281 0.600147 0.780857 0.583949
C19   C     C_R   0.953719 0.600147 0.780858 0.583950
C20   C     C_R   0.046281 0.399863 0.219144 0.583961
C21   C     C_1   0.500000 0.065186 0.500014 -0.168070
C22   C     C_1   0.500000 0.934814 0.499986 -0.168070
H1    H     H_    0.778257 0.586857 0.747572 0.209181
H2    H     H_    0.221743 0.413148 0.252428 0.209183
H3    H     H_    0.778257 0.413147 0.252428 0.209183
H4    H     H_    0.221743 0.586856 0.747572 0.209181
F1    F     F_    0.909669 0.350112 0.083352 -0.613631
F2    F     F_    0.090331 0.649905 0.916653 -0.613618
F3    F     F_    0.909668 0.649906 0.916653 -0.613618
F4    F     F_    0.090331 0.350112 0.083352 -0.613631

loop_
_geom_bond_atom_site_label_1
_geom_bond_atom_site_label_2
_geom_bond_distance
_ccdc_geom_bond_type
O3    Zn1   1.953650 S    
C13   C19   1.402486 A    
C7    C11   1.385180 A    
C14   C20   1.402462 A    
C11   C15   1.413364 A    
C13   C15   1.413372 A    
C7    H3    1.084477 S    
C3    C10   1.435446 S    
C14   C16   1.413364 A    
C6    C14   1.385180 A    
O6    C4    1.273382 A    
O3    C2    1.261864 A    
C5    C13   1.385180 A    
C17   F1    1.358748 S    
C21   C22   1.164896 T    
C18   F2    1.358791 S    
C19   F3    1.358792 S    
O5    C3    1.273382 A    
O2    C2    1.261936 A    
C2    C22   1.365310 S    
O1    C1    1.261936 A    
C11   C17   1.402461 A    
C7    C9    1.395591 A    
C8    C10   1.395596 A    
C17   C20   1.389394 A    
O4    Zn2   1.953651 S    
C18   C19   1.389395 A    
O2    Zn2   1.953793 S    
O7    C4    1.273382 A    
C12   C18   1.402487 A    
O1    Zn1   1.953794 S    
O8    C3    1.273382 A    
N1    N2    1.193637 T    
C12   C16   1.413370 A    
O5    Zn1   2.018208 S    
C8    H4    1.084479 S    
O8    Zn2   2.018208 S    
Zn1   N2    1.974106 S    
C15   C16   1.392586 A    
O7    Zn1   2.018206 S    
Zn2   N1    1.974106 S    
O6    Zn2   2.018206 S    
C5    H1    1.084480 S    
C6    C10   1.395589 A    
C6    H2    1.084476 S    
C4    C9    1.435446 S    
C20   F4    1.358748 S    
C5    C9    1.395598 A    
C8    C12   1.385181 A    
O4    C1    1.261864 A    
C1    C21   1.365310 S    
