data_mof_unit_5813.cif
_audit_creation_date              2013-03-05T16:06:56-0500
_audit_creation_method            fapswitch 2.2
_symmetry_space_group_name_H-M    P1
_symmetry_Int_Tables_number       1
_space_group_crystal_system       triclinic
_cell_length_a                    14.534552
_cell_length_b                    16.168705
_cell_length_c                    6.935497
_cell_angle_alpha                 89.981151
_cell_angle_beta                  98.880332
_cell_angle_gamma                 89.99015
_cell_volume                      1610.33807931

loop_
_atom_site_label
_atom_site_type_symbol
_atom_site_description
_atom_site_fract_x
_atom_site_fract_y
_atom_site_fract_z
_atom_type_partial_charge
O1    O     O_R   0.584990 0.413650 0.534420 -0.605797
O2    O     O_R   0.584990 0.586350 0.534420 -0.609782
O3    O     O_R   0.596190 0.585230 0.208380 -0.602745
O4    O     O_R   0.596190 0.414770 0.208380 -0.605932
O5    O     O_R   0.415010 0.586420 0.976930 -0.551103
O6    O     O_R   0.415010 0.413580 0.976930 -0.554964
C1    C     C_R   0.618609 0.614268 0.384174 0.986280
C2    C     C_R   0.618667 0.385800 0.384204 0.989160
O7    O     O_3   0.440560 0.500000 0.319140 -0.208528
V1    V     V_3+5 0.511030 0.500000 0.068070 1.244447
O8    O     O_R   0.403810 0.414840 0.643540 -0.541778
O9    O     O_R   0.403810 0.585160 0.643540 -0.546136
C3    C     C_R   0.380245 0.386774 0.805564 0.967396
C4    C     C_R   0.380256 0.613252 0.805526 0.961350
V2    V     V_3+5 0.488970 0.500000 0.560620 1.293151
O10   O     O_3   0.559440 0.500000 0.859420 -0.315738
H1    H     H_    0.153211 0.775326 0.835678 0.179224
H2    H     H_    0.153182 0.224800 0.835510 0.168522
C5    C     C_2   0.305220 0.676877 0.794235 -0.192866
C6    C     C_2   0.305261 0.323138 0.794315 -0.183816
C7    C     C_2   0.290177 0.719262 0.956866 0.690994
C8    C     C_2   0.290094 0.280823 0.956990 0.704215
H3    H     H_    0.254814 0.824683 0.238848 0.232766
H4    H     H_    0.254682 0.175296 0.238755 0.242293
C9    C     C_2   0.201536 0.825103 0.111133 -0.316258
C10   C     C_2   0.201412 0.174947 0.111033 -0.303075
C11   C     C_2   0.209009 0.775097 0.959113 -0.172783
C12   C     C_2   0.208940 0.224981 0.959038 -0.213214
C13   C     C_R   0.674412 0.751320 0.532083 0.202631
C14   C     C_R   0.764121 0.318631 0.563454 0.159526
C15   C     C_R   0.686447 0.683666 0.412803 -0.254305
C16   C     C_R   0.688039 0.317642 0.413051 -0.255919
C17   C     C_R   0.763017 0.686716 0.310576 -0.274795
C18   C     C_R   0.681384 0.249942 0.283733 -0.235469
H5    H     H_    0.773501 0.636722 0.212233 0.164986
H6    H     H_    0.624367 0.247699 0.163046 0.173250
C19   C     C_R   0.830448 0.750855 0.343412 0.371180
C20   C     C_R   0.743400 0.181621 0.315812 0.351664
C21   C     C_R   0.820269 0.816004 0.477689 -0.368319
C22   C     C_R   0.817195 0.181718 0.477807 -0.368591
C23   C     C_R   0.738553 0.815580 0.562229 0.141969
C24   C     C_R   0.827086 0.253319 0.593660 0.153868
C25   C     C_3   0.722824 0.826941 0.768326 -0.395893
C26   C     C_3   0.839041 0.263846 0.810087 -0.427862
C27   C     C_3   0.652928 0.756189 0.735108 -0.479080
C28   C     C_3   0.769884 0.335104 0.776436 -0.457616
H7    H     H_    0.690081 0.887571 0.791140 0.216987
H8    H     H_    0.812322 0.210311 0.884690 0.239541
H9    H     H_    0.785148 0.811692 0.875696 0.239959
H10   H     H_    0.910682 0.283976 0.871831 0.191493
H11   H     H_    0.580054 0.776176 0.738906 0.203948
H12   H     H_    0.703329 0.322294 0.831344 0.207556
H13   H     H_    0.675535 0.700160 0.822919 0.206332
H14   H     H_    0.801816 0.396210 0.818557 0.198188
O11   O     O_R   0.921430 0.915960 0.371040 -0.548502
O12   O     O_R   0.921430 0.084040 0.371040 -0.563707
O13   O     O_R   0.910450 0.087500 0.697310 -0.592811
O14   O     O_R   0.910450 0.912500 0.697310 -0.587943
O15   O     O_R   0.091710 0.087460 0.928430 -0.605560
O16   O     O_R   0.091710 0.912540 0.928430 -0.604189
C29   C     C_R   0.885784 0.112633 0.517963 0.986461
C30   C     C_R   0.889688 0.884296 0.519468 1.005066
O17   O     O_3   0.065970 0.000000 0.586140 -0.279660
V3    V     V_3+5 0.995640 0.000000 0.837400 1.258440
O18   O     O_R   0.103020 0.915700 0.261710 -0.567625
O19   O     O_R   0.103020 0.084300 0.261710 -0.580708
C31   C     C_R   0.126066 0.886789 0.100483 1.054933
C32   C     C_R   0.125878 0.113351 0.100423 0.958511
V4    V     V_3+5 0.017940 0.000000 0.344880 1.285049
O20   O     O_3   0.947330 0.000000 0.046180 -0.224741
F1    F     F_    0.349931 0.710257 0.127465 -0.667204
F2    F     F_    0.349676 0.289917 0.127767 -0.663162
N1    N     N_R   0.247712 0.691128 0.608599 0.245327
O21   O     O_R   0.225138 0.630014 0.488569 -0.296477
O22   O     O_R   0.226634 0.766112 0.550024 -0.418187
N2    N     N_R   0.247998 0.308702 0.608543 0.237727
O23   O     O_R   0.225475 0.369702 0.488033 -0.325177
O24   O     O_R   0.227187 0.233649 0.550333 -0.427001
N3    N     N_R   0.913516 0.742808 0.257081 0.225223
O25   O     O_R   0.930227 0.794402 0.122981 -0.419231
O26   O     O_R   0.961685 0.674784 0.282337 -0.354939
N4    N     N_R   0.722419 0.109313 0.197451 0.219106
O27   O     O_R   0.779951 0.083720 0.084442 -0.402821
O28   O     O_R   0.638362 0.079324 0.172968 -0.386713

loop_
_geom_bond_atom_site_label_1
_geom_bond_atom_site_label_2
_geom_bond_distance
_ccdc_geom_bond_type
O14   C30   1.306079 A    
O19   C32   1.302584 A    
O1    C2    1.298236 A    
N1    O22   1.299962 A    
N1    O21   1.301306 A    
O2    C1    1.298202 A    
C9    C31   1.475809 S    
O4    C2    1.299886 A    
C21   C23   1.403391 A    
C19   N3    1.433983 S    
O15   V3    2.019195 S    
C7    F1    1.363080 S    
C20   C22   1.428517 A    
H4    C10   1.082790 S    
O3    C1    1.300342 A    
O19   V4    1.984948 S    
C27   H11   1.111540 S    
V2    O10   2.165246 S    
O11   C30   1.296546 A    
C28   H12   1.112399 S    
C6    N2    1.440969 S    
O8    V2    1.994631 S    
O17   V4    1.710698 S    
O16   C31   1.289282 A    
O18   C31   1.302692 A    
C15   C17   1.409713 A    
O1    V2    2.001954 S    
V3    O20   1.704003 S    
O7    V1    2.152173 S    
C13   C23   1.390190 A    
C22   C24   1.404119 A    
C7    C11   1.487396 S    
C27   H13   1.112350 S    
C8    C12   1.487383 S    
C20   N4    1.434291 S    
C23   C25   1.493377 S    
C24   C26   1.493954 S    
C8    F2    1.363050 S    
C26   C28   1.522925 S    
O14   V3    2.027009 S    
C1    C15   1.486856 S    
C2    C16   1.486052 S    
C5    N1    1.441119 S    
H2    C12   1.084615 S    
N2    O23   1.301282 A    
N3    O26   1.300876 A    
C25   H9    1.107894 S    
C17   C19   1.421082 A    
C22   C29   1.494254 S    
N3    O25   1.299686 A    
C13   C27   1.490713 S    
H1    C11   1.084558 S    
O15   C32   1.289298 A    
O9    V2    1.994598 S    
C28   H14   1.111479 S    
O2    V2    2.002204 S    
C25   C27   1.523842 S    
O5    C4    1.292573 A    
O11   V4    1.981419 S    
O9    C4    1.305638 A    
O12   V4    1.981169 S    
N4    O28   1.301077 A    
C6    C8    1.365984 D    
O4    V1    2.001180 S    
O13   V3    2.026266 S    
C26   H10   1.111807 S    
C21   C30   1.493842 S    
C3    C6    1.492228 S    
C5    C7    1.366117 D    
C18   C20   1.421214 A    
C4    C5    1.492330 S    
C14   C28   1.490623 S    
N2    O24   1.299942 A    
O6    V1    2.007140 S    
O13   C29   1.304909 A    
C9    C11   1.346488 D    
C10   C12   1.346382 D    
O16   V3    2.018568 S    
C10   C32   1.475824 S    
O7    V2    1.713522 S    
O5    V1    2.006516 S    
C13   C15   1.398831 A    
O3    V1    2.001913 S    
V1    O10   1.703970 S    
O6    C3    1.292563 A    
C14   C16   1.398240 A    
O8    C3    1.305578 A    
O18   V4    1.984918 S    
C17   H5    1.083627 S    
C18   H6    1.083775 S    
H3    C9    1.082821 S    
V4    O20   2.165297 S    
O17   V3    2.152115 S    
C19   C21   1.428952 A    
N4    O27   1.298925 A    
O12   C29   1.297580 A    
C14   C24   1.391734 A    
C25   H7    1.111627 S    
C26   H8    1.108879 S    
C16   C18   1.409198 A    
