data_mof_unit_20810.cif
_audit_creation_date              2012-12-10T16:50:07-0500
_audit_creation_method            fapswitch 2.2
_symmetry_space_group_name_H-M    P1
_symmetry_Int_Tables_number       1
_space_group_crystal_system       triclinic
_cell_length_a                    7.811105
_cell_length_b                    8.613664
_cell_length_c                    10.64474
_cell_angle_alpha                 91.391116
_cell_angle_beta                  86.886749
_cell_angle_gamma                 92.578938
_cell_volume                      714.249403287

loop_
_atom_site_label
_atom_site_type_symbol
_atom_type_description
_atom_site_fract_x
_atom_site_fract_y
_atom_site_fract_z
_atom_type_partial_charge
C1    C     C_R   0.543804 0.794214 0.499984 0.908251
C2    C     C_R   0.460295 0.647654 0.933467 0.012742
C3    C     C_R   0.515898 0.512237 0.870813 -0.173349
C4    C     C_R   0.566497 0.383577 0.933443 0.309239
C5    C     C_R   0.552915 0.385282 0.062787 0.369584
C6    C     C_R   0.484908 0.515179 0.128207 -0.199646
C7    C     C_2   0.562851 0.957092 0.498534 -0.303666
C8    C     C_2   0.428882 0.047096 0.525741 -0.070933
C9    C     C_R   0.503938 0.499015 0.738990 0.903496
C10   C     C_R   0.455288 0.206744 0.507600 1.009869
C11   C     C_R   0.497192 0.513928 0.261079 0.971125
C12   C     C_R   0.437803 0.783370 0.865524 -0.139520
C13   C     C_R   0.365757 0.911990 0.922959 -0.172531
C14   C     C_R   0.310994 0.908310 0.048453 0.457337
C15   C     C_R   0.337583 0.777120 0.120585 0.318785
C16   C     C_R   0.426051 0.646480 0.064499 -0.093866
H1    H     H_    0.476420 0.790983 0.766763 0.148345
H2    H     H_    0.345712 0.013070 0.868061 0.203749
H3    H     H_    0.688929 0.004562 0.467062 0.211098
N1    N     N_2   0.950330 0.457950 0.466250 0.148241
N2    N     N_2   0.049670 0.542050 0.533750 0.141153
O1    O     O_R   0.389250 0.738570 0.508280 -0.614214
O2    O     O_R   0.678390 0.711630 0.486650 -0.582641
O3    O     O_R   0.355400 0.513470 0.694050 -0.610958
O4    O     O_R   0.644540 0.486530 0.672420 -0.560399
O5    O     O_R   0.321610 0.288370 0.513350 -0.576868
O6    O     O_R   0.610750 0.261430 0.491720 -0.607852
O7    O     O_R   0.355460 0.513470 0.327580 -0.538218
O8    O     O_R   0.644600 0.486530 0.305950 -0.569532
Zn1   Zn    Zn3+2 0.306930 0.517990 0.514440 1.132562
Zn2   Zn    Zn3+2 0.693070 0.482010 0.485560 1.160206
Cl1   Cl    Cl    0.647951 0.219816 0.849512 -0.536573
Cl2   Cl    Cl    0.960321 0.666856 0.645419 -0.467927
Cl3   Cl    Cl    0.200563 0.069920 0.110343 -0.419745
Cl4   Cl    Cl    0.224881 0.778488 0.268004 -0.522917
Cl5   Cl    Cl    0.616206 0.219185 0.141970 -0.449570
N3    N     N_3   0.261264 0.995454 0.576418 -0.384527
H4    H     H_    0.191810 0.936825 0.507385 0.300418
H5    H     H_    0.271317 0.927947 0.655554 0.218505
Cl6   Cl    Cl    0.039536 0.332354 0.355282 -0.329256

loop_
_geom_bond_atom_site_label_1
_geom_bond_atom_site_label_2
_ccdc_geom_bond_type
C10   O6    A    
O4    Zn2   S    
C9    O3    A    
C14   Cl3   S    
N3    H4    S    
C3    C9    S    
C2    C16   A    
N2    Zn1   S    
O8    Zn2   S    
C2    C12   A    
C10   O5    A    
O7    Zn1   S    
C2    C3    A    
C9    O4    A    
C7    C8    D    
N3    H5    S    
C13   C14   A    
N1    N2    D    
C12   H1    S    
C4    Cl1   S    
C11   O7    A    
C13   H2    S    
C15   Cl4   S    
C1    O2    A    
C7    H3    S    
C5    C6    A    
N1    Cl6   S    
O3    Zn1   S    
N2    Cl2   S    
C8    N3    S    
C6    C16   A    
C3    C4    A    
C5    Cl5   S    
C1    O1    A    
C12   C13   A    
C11   O8    A    
C8    C10   S    
C6    C11   S    
C14   C15   A    
O1    Zn1   S    
C1    C7    S    
O6    Zn2   S    
N1    Zn2   S    
C15   C16   A    
C4    C5    A    
O5    Zn1   S    
O2    Zn2   S    
