data_mof_unit_19058.cif
_audit_creation_date              2012-10-26T21:10:39-0400
_audit_creation_method            fapswitch 2.2
_symmetry_space_group_name_H-M    P1
_symmetry_Int_Tables_number       1
_space_group_crystal_system       triclinic
_cell_length_a                    10.83741
_cell_length_b                    14.690466
_cell_length_c                    14.679323
_cell_angle_alpha                 65.337589
_cell_angle_beta                  103.37217
_cell_angle_gamma                 102.738311
_cell_volume                      2045.86281834

loop_
_atom_site_label
_atom_site_type_symbol
_atom_type_description
_atom_site_fract_x
_atom_site_fract_y
_atom_site_fract_z
_atom_type_partial_charge
C1    C     C_R   0.476629 0.119515 0.312040 0.563342
C2    C     C_R   0.622293 0.782411 0.972822 -0.035594
C3    C     C_R   0.403437 0.150110 0.127312 0.405023
C4    C     C_R   0.596577 0.849886 0.872682 0.404974
C5    C     C_R   0.491082 0.290831 0.178141 -0.198653
C6    C     C_R   0.508961 0.709165 0.821846 -0.198644
C7    C     C_R   0.472466 0.360370 0.077042 -0.002629
C8    C     C_R   0.527577 0.639624 0.922942 -0.002635
C9    C     C_R   0.405248 0.323098 0.001290 -0.004535
C10   C     C_R   0.594776 0.676896 0.998699 -0.004546
C11   C     C_R   0.516094 0.465838 0.050529 0.036032
C12   C     C_R   0.523375 0.880485 0.687958 0.563347
C13   C     C_R   0.483948 0.534156 0.949455 0.036036
C14   C     C_R   0.405444 0.495552 0.878439 -0.142919
C15   C     C_R   0.594572 0.504442 0.121552 -0.142896
C16   C     C_R   0.262883 0.999193 0.502469 0.540549
C17   C     C_R   0.737118 0.000806 0.497533 0.540550
C18   C     C_R   0.366951 0.392288 0.902359 0.015450
C19   C     C_R   0.633028 0.607705 0.097640 0.015492
C20   C     C_R   0.711140 0.283812 0.670543 -0.136313
C21   C     C_R   0.288857 0.716186 0.329458 -0.136334
C22   C     C_R   0.678700 0.202467 0.640289 0.082094
C23   C     C_R   0.870561 0.000920 0.495739 -0.000745
C24   C     C_R   0.321303 0.797535 0.359708 0.082072
C25   C     C_R   0.519762 0.285745 0.508101 0.032960
C26   C     C_R   0.480227 0.714250 0.491907 0.032956
C27   C     C_R   0.548551 0.371596 0.534711 -0.004625
C28   C     C_R   0.451434 0.628397 0.465299 -0.004638
C29   C     C_R   0.646077 0.368243 0.618546 0.025230
C30   C     C_R   0.353911 0.631752 0.381462 0.025228
C31   C     C_R   0.483374 0.458999 0.482920 0.010493
C32   C     C_R   0.516608 0.540992 0.517092 0.010489
C33   C     C_R   0.613897 0.532855 0.601665 -0.150977
C34   C     C_R   0.129442 0.999083 0.504265 -0.000744
C35   C     C_R   0.386086 0.467137 0.398346 -0.150989
C36   C     C_R   0.677322 0.448478 0.650767 -0.129076
C37   C     C_R   0.322663 0.551515 0.349243 -0.129088
C38   C     C_R   0.346111 0.084976 0.769405 0.447274
C39   C     C_R   0.653909 0.915108 0.230556 0.447291
C40   C     C_R   0.258846 0.038281 0.709962 -0.025776
C41   C     C_R   0.741189 0.961778 0.290013 -0.025818
C42   C     C_R   0.185666 0.096687 0.620210 -0.009329
C43   C     C_R   0.814338 0.903346 0.379771 -0.009325
C44   C     C_R   0.199981 0.201921 0.591317 -0.115906
C45   C     C_R   0.907041 0.952012 0.443201 -0.028116
C46   C     C_R   0.799977 0.798111 0.408658 -0.115865
C47   C     C_R   0.287669 0.248235 0.650688 -0.154123
C48   C     C_R   0.712272 0.751821 0.349275 -0.154084
C49   C     C_R   0.361025 0.189942 0.739456 -0.039860
C50   C     C_R   0.638948 0.810140 0.260500 -0.039830
C51   C     C_R   0.963724 0.048862 0.551137 -0.138675
C52   C     C_R   0.036278 0.951143 0.448865 -0.138673
C53   C     C_2   0.279888 0.362789 0.821733 0.192920
C54   C     C_2   0.719973 0.637209 0.178299 0.192896
C55   C     C_R   0.092962 0.047998 0.556798 -0.028112
C56   C     C_R   0.457438 0.186795 0.203984 -0.004831
C57   C     C_R   0.542580 0.813202 0.796008 -0.004827
C58   C     C_R   0.377734 0.217582 0.027169 -0.035518
Cu1   Cu    Cu3+1 0.466270 0.918260 0.475690 0.972251
Cu2   Cu    Cu3+1 0.533730 0.081740 0.524310 0.972261
F1    F     F_    0.415659 0.028398 0.856471 -0.548023
F2    F     F_    0.584393 0.971713 0.143483 -0.548032
F3    F     F_    0.629642 0.950529 0.851006 -0.567325
F4    F     F_    0.370356 0.049465 0.148993 -0.567342
H1    H     H_    0.429109 0.226163 0.785085 0.138729
H2    H     H_    0.444830 0.280333 0.447402 0.123702
H3    H     H_    0.272135 0.863205 0.318972 0.175235
H4    H     H_    0.727875 0.136800 0.681020 0.175227
H5    H     H_    0.785995 0.280382 0.734791 0.135507
H6    H     H_    0.214005 0.719619 0.265208 0.135503
H7    H     H_    0.643544 0.590603 0.632402 0.099045
H8    H     H_    0.356440 0.409389 0.367609 0.099050
H9    H     H_    0.248199 0.956939 0.733557 0.122835
H10   H     H_    0.751871 0.043123 0.266424 0.122824
H11   H     H_    0.144264 0.248026 0.522374 0.124780
H12   H     H_    0.570852 0.773936 0.214860 0.138729
H13   H     H_    0.855668 0.751985 0.477608 0.124769
H14   H     H_    0.299256 0.329456 0.627439 0.126258
H15   H     H_    0.700646 0.670596 0.372524 0.126248
H16   H     H_    0.935930 0.085076 0.592876 0.145244
H17   H     H_    0.064071 0.914933 0.407121 0.145249
H18   H     H_    0.472678 0.683820 0.760569 0.134745
H19   H     H_    0.527382 0.316171 0.239417 0.134744
H20   H     H_    0.286921 0.409635 0.742643 0.096800
H21   H     H_    0.712778 0.590422 0.257373 0.096782
H22   H     H_    0.336780 0.185689 0.970690 0.209195
H23   H     H_    0.663259 0.814305 0.029298 0.209175
H24   H     H_    0.366789 0.544578 0.803665 0.092182
H25   H     H_    0.633211 0.455426 0.196333 0.092206
H26   H     H_    0.751462 0.445805 0.715311 0.125906
H27   H     H_    0.248526 0.554189 0.284697 0.125909
H28   H     H_    0.555155 0.719659 0.552609 0.123695
N1    N     N_R   0.584450 0.204570 0.560790 -0.243253
N2    N     N_R   0.415550 0.795430 0.439210 -0.243249
O1    O     O_R   0.455540 0.022090 0.338120 -0.432037
O2    O     O_2   0.805432 0.708875 0.158472 -0.505315
O3    O     O_R   0.544460 0.977910 0.661880 -0.432028
O4    O     O_R   0.512510 0.160150 0.379180 -0.534664
O5    O     O_R   0.487490 0.839850 0.620820 -0.534674
O6    O     O_R   0.291160 0.930970 0.479480 -0.517230
O7    O     O_R   0.708840 0.069030 0.520520 -0.517237
O8    O     O_R   0.348130 0.069020 0.520540 -0.503259
O9    O     O_R   0.651870 0.930980 0.479460 -0.503251
O10   O     O_2   0.194504 0.291068 0.841612 -0.505317

loop_
_geom_bond_atom_site_label_1
_geom_bond_atom_site_label_2
_ccdc_geom_bond_type
C26   N2    A    
C25   N1    A    
C8    C13   A    
C23   C45   A    
C27   C29   A    
Cu1   O5    S    
C14   C18   A    
C5    C56   A    
C2    C4    A    
C39   C41   A    
C38   C49   A    
C3    F4    S    
C15   C19   A    
C29   C36   A    
C17   C23   S    
C49   H1    S    
C53   H20   S    
C6    H18   S    
C48   H15   S    
C35   C37   A    
C1    C56   S    
Cu2   O4    S    
C5    H19   S    
C53   O10   D    
C26   H28   S    
C33   C36   A    
C40   H9    S    
C9    C58   A    
C17   O7    A    
C51   H16   S    
C12   O5    A    
C24   H3    S    
C16   C34   S    
C41   H10   S    
C11   C15   A    
C4    C57   A    
Cu1   N2    S    
C54   O2    D    
C18   C53   S    
C44   C47   A    
C38   F1    S    
Cu2   N1    S    
C40   C42   A    
Cu1   Cu2   S    
C13   C14   A    
Cu1   O6    S    
C41   C43   A    
C6    C57   A    
C42   C44   A    
Cu2   O8    S    
C58   H22   S    
C20   C29   A    
C46   C48   A    
C37   H27   S    
C27   C31   A    
C24   N2    A    
C28   C32   A    
C47   C49   A    
Cu2   O3    S    
C5    C7    A    
C16   O6    A    
C6    C8    A    
C45   C52   A    
C30   C37   A    
C44   H11   S    
C7    C11   A    
C50   H12   S    
C42   C55   S    
C15   H25   S    
C3    C56   A    
C23   C51   A    
C31   C32   A    
C4    F3    S    
C10   C19   A    
C1    O1    A    
C2    H23   S    
C43   C45   S    
C22   H4    S    
C12   O3    A    
Cu1   O1    S    
C12   C57   S    
C19   C54   S    
C16   O8    A    
C20   C22   A    
C35   H8    S    
C22   N1    A    
C31   C35   A    
C20   H5    S    
Cu2   O7    S    
C2    C10   A    
C36   H26   S    
C7    C9    A    
C39   F2    S    
C34   C52   A    
C25   H2    S    
C1    O4    A    
C54   H21   S    
C25   C27   A    
C46   H13   S    
C21   C30   A    
C26   C28   A    
C21   H6    S    
Cu1   O9    S    
C32   C33   A    
C28   C30   A    
C17   O9    A    
C14   H24   S    
C38   C40   A    
C11   C13   A    
C48   C50   A    
C51   C55   A    
C52   H17   S    
C43   C46   A    
C33   H7    S    
C3    C58   A    
C9    C18   A    
C34   C55   A    
C39   C50   A    
C8    C10   A    
C21   C24   A    
C47   H14   S    
