data_mof_unit_66409.cif
_audit_creation_date              2012-12-10T19:52:28-0500
_audit_creation_method            fapswitch 2.2
_symmetry_space_group_name_H-M    P1
_symmetry_Int_Tables_number       1
_space_group_crystal_system       triclinic
_cell_length_a                    18.277775
_cell_length_b                    18.278324
_cell_length_c                    31.867625
_cell_angle_alpha                 90.0
_cell_angle_beta                  89.999983
_cell_angle_gamma                 90.00003
_cell_volume                      10646.5622114

loop_
_atom_site_label
_atom_site_type_symbol
_atom_type_description
_atom_site_fract_x
_atom_site_fract_y
_atom_site_fract_z
_atom_type_partial_charge
C1    C     C_R   0.641224 0.500020 0.000000 0.932821
C2    C     C_1   0.500000 0.500245 0.163381 0.019967
C3    C     C_1   0.000001 0.000245 0.336619 0.019967
C4    C     C_1   0.000000 0.000245 0.663381 0.019967
C5    C     C_1   0.499999 0.499211 0.663378 0.020099
C6    C     C_1   0.500000 0.499211 0.336622 0.020099
C7    C     C_1   0.999999 0.999211 0.163378 0.020099
C8    C     C_1   1.000000 0.999211 0.836622 0.020099
C9    C     C_1   0.717645 0.500055 0.000000 -0.185688
C10   C     C_1   0.282355 0.500055 1.000000 -0.185678
C11   C     C_1   0.217644 0.000055 0.500000 -0.185688
C12   C     C_R   0.358776 0.500020 0.000000 0.932830
C13   C     C_1   0.782355 0.000055 0.500000 -0.185678
C14   C     C_1   0.782385 0.500046 0.000000 -0.183649
C15   C     C_1   0.217614 0.500046 1.000000 -0.183641
C16   C     C_1   0.282385 0.000046 0.500000 -0.183649
C17   C     C_1   0.717615 0.000046 0.500000 -0.183641
C18   C     C_R   0.500000 0.358653 0.500000 0.928503
C19   C     C_R   1.000000 0.858653 0.000000 0.928503
C20   C     C_R   0.500000 0.499849 0.581398 0.904057
C21   C     C_R   0.500000 0.499849 0.418602 0.904057
C22   C     C_R   0.000000 0.999849 0.081398 0.904057
C23   C     C_R   0.141224 0.000020 0.500000 0.932821
C24   C     C_R   1.000000 0.999849 0.918602 0.904057
C25   C     C_R   0.500000 0.641067 0.500000 0.940606
C26   C     C_R   0.000000 0.141067 0.000000 0.940606
C27   C     C_R   1.000000 0.641160 0.000000 0.930442
C28   C     C_R   0.500000 0.141160 0.500000 0.930442
C29   C     C_R   0.858806 0.500016 0.000000 0.931945
C30   C     C_R   0.141194 0.500016 0.000000 0.931947
C31   C     C_R   0.358806 0.000016 0.500000 0.931945
C32   C     C_R   0.641194 0.000016 0.500000 0.931947
C33   C     C_R   0.500000 0.500006 0.918602 0.901609
C34   C     C_R   0.858776 0.000020 0.500000 0.932830
C35   C     C_R   0.500000 0.500006 0.081398 0.901609
C36   C     C_R   1.000000 0.000006 0.418602 0.901609
C37   C     C_R   1.000000 0.000006 0.581398 0.901609
C38   C     C_R   0.000000 0.358787 0.000000 0.933042
C39   C     C_R   0.500000 0.858787 0.500000 0.933042
C40   C     C_1   0.500000 0.282267 0.500000 -0.191580
C41   C     C_1   1.000000 0.782267 0.000000 -0.191580
C42   C     C_1   1.000000 0.717547 0.000000 -0.188788
C43   C     C_1   0.500000 0.217547 0.500000 -0.188788
C44   C     C_1   0.500000 0.717541 0.500000 -0.177113
C45   C     C_3   0.500112 0.567523 0.736140 0.645958
C46   C     C_1   0.000000 0.217541 0.000000 -0.177113
C47   C     C_1   0.000000 0.282313 0.000000 -0.176623
C48   C     C_1   0.500000 0.782313 0.500000 -0.176623
C49   C     C_3   0.560823 0.464570 0.736157 -0.319780
C50   C     C_3   0.560886 0.464681 0.263843 -0.319784
C51   C     C_3   0.439063 0.464770 0.736157 -0.319789
C52   C     C_3   0.439126 0.464659 0.263843 -0.319785
C53   C     C_3   0.060823 0.964570 0.236157 -0.319780
C54   C     C_3   0.060886 0.964681 0.763843 -0.319784
C55   C     C_3   0.939063 0.964770 0.236157 -0.319789
C56   C     C_3   0.499988 0.567523 0.263860 0.645959
C57   C     C_3   0.939127 0.964659 0.763843 -0.319785
C58   C     C_3   0.560937 0.534602 0.763838 -0.319445
C59   C     C_3   0.560873 0.534713 0.236162 -0.319443
C60   C     C_3   0.439179 0.534802 0.763838 -0.319439
C61   C     C_3   0.439115 0.534691 0.236162 -0.319442
C62   C     C_3   0.060937 0.034602 0.263838 -0.319445
C63   C     C_3   0.060873 0.034713 0.736162 -0.319443
C64   C     C_3   0.939179 0.034802 0.263838 -0.319439
C65   C     C_3   0.939115 0.034691 0.736162 -0.319442
C66   C     C_1   0.500001 0.500065 0.874121 -0.171848
C67   C     C_3   0.000112 0.067523 0.236140 0.645958
C68   C     C_1   0.500000 0.500065 0.125879 -0.171848
C69   C     C_1   0.000001 0.000065 0.374121 -0.171848
C70   C     C_1   1.000000 0.000065 0.625879 -0.171848
C71   C     C_1   0.500000 0.499542 0.625877 -0.172007
C72   C     C_1   0.500000 0.499542 0.374123 -0.172006
C73   C     C_1   1.000000 0.999542 0.125877 -0.172007
C74   C     C_1   0.000000 0.999542 0.874123 -0.172006
C75   C     C_3   0.499889 0.431846 0.763856 0.645142
C76   C     C_3   0.500012 0.431846 0.236144 0.645142
C77   C     C_3   0.999889 0.931846 0.263856 0.645142
C78   C     C_3   0.999988 0.067523 0.763860 0.645959
C79   C     C_3   0.000012 0.931846 0.736144 0.645142
C80   C     C_3   0.500002 0.500554 0.791176 0.049776
C81   C     C_3   0.500000 0.500554 0.208824 0.049776
C82   C     C_3   0.000002 0.000554 0.291176 0.049776
C83   C     C_3   0.000000 0.000554 0.708824 0.049776
C84   C     C_3   0.499999 0.498816 0.708820 0.049998
C85   C     C_3   0.500000 0.498816 0.291180 0.049998
C86   C     C_3   0.999999 0.998816 0.208820 0.049998
C87   C     C_3   0.000000 0.998816 0.791180 0.049998
C88   C     C_3   0.500321 0.690832 0.750357 -0.304348
C89   C     C_1   0.500001 0.500245 0.836619 0.019967
C90   C     C_3   0.499965 0.690832 0.249643 -0.304346
C91   C     C_3   0.000321 0.190832 0.250357 -0.304348
C92   C     C_3   0.999965 0.190832 0.749643 -0.304346
C93   C     C_3   0.499680 0.308544 0.749624 -0.304403
C94   C     C_3   0.500034 0.308543 0.250376 -0.304402
C95   C     C_3   0.999680 0.808543 0.249624 -0.304403
C96   C     C_3   0.000034 0.808543 0.750376 -0.304402
H1    H     H_    0.609974 0.563664 0.775854 0.162217
H2    H     H_    0.609880 0.435547 0.275861 0.162708
H3    H     H_    0.390027 0.435708 0.724139 0.162706
H4    H     H_    0.390143 0.435508 0.275861 0.162704
H5    H     H_    0.109763 0.935347 0.224139 0.162706
H6    H     H_    0.109879 0.935547 0.775861 0.162708
H7    H     H_    0.890027 0.935708 0.224139 0.162706
H8    H     H_    0.890143 0.935508 0.775861 0.162704
H9    H     H_    0.550317 0.686544 0.770091 0.157173
H10   H     H_    0.450324 0.686703 0.770101 0.157169
H11   H     H_    0.500404 0.745944 0.735788 0.199087
H12   H     H_    0.609856 0.563865 0.224145 0.162218
H13   H     H_    0.449968 0.686616 0.229905 0.157172
H14   H     H_    0.549961 0.686632 0.229903 0.157169
H15   H     H_    0.499956 0.745944 0.264212 0.199086
H16   H     H_    0.050317 0.186544 0.270091 0.157173
H17   H     H_    0.950324 0.186703 0.270101 0.157169
H18   H     H_    0.000404 0.245944 0.235788 0.199087
H19   H     H_    0.949968 0.186615 0.729905 0.157172
H20   H     H_    0.049961 0.186632 0.729903 0.157169
H21   H     H_    0.999956 0.245944 0.764212 0.199086
H22   H     H_    0.549678 0.312679 0.729879 0.156451
H23   H     H_    0.390239 0.564026 0.775855 0.162221
H24   H     H_    0.449685 0.312839 0.729889 0.156457
H25   H     H_    0.499597 0.253426 0.764184 0.199487
H26   H     H_    0.450038 0.312750 0.270116 0.156453
H27   H     H_    0.550030 0.312767 0.270115 0.156456
H28   H     H_    0.500044 0.253425 0.235816 0.199487
H29   H     H_    0.049678 0.812679 0.229879 0.156451
H30   H     H_    0.949685 0.812839 0.229889 0.156457
H31   H     H_    0.999597 0.753426 0.264184 0.199487
H32   H     H_    0.950038 0.812750 0.770116 0.156453
H33   H     H_    0.050030 0.812767 0.770115 0.156456
H34   H     H_    0.390121 0.563825 0.224145 0.162220
H35   H     H_    0.000044 0.753425 0.735816 0.199487
H36   H     H_    0.109974 0.063664 0.275854 0.162217
H37   H     H_    0.109856 0.063865 0.724145 0.162218
H38   H     H_    0.890239 0.064026 0.275855 0.162221
H39   H     H_    0.890121 0.063825 0.724145 0.162220
H40   H     H_    0.609763 0.435347 0.724139 0.162706
O1    O     O_R   0.607370 0.439420 0.000000 -0.615742
O2    O     O_R   0.392710 0.560580 0.000000 -0.621432
O3    O     O_R   0.107290 0.060580 0.500000 -0.621434
O4    O     O_R   0.892710 0.060580 0.500000 -0.621432
O5    O     O_R   0.500000 0.439420 0.938390 -0.605880
O6    O     O_R   0.500000 0.439420 0.061610 -0.605880
O7    O     O_R   0.000000 0.939420 0.438390 -0.605880
O8    O     O_R   0.000000 0.939420 0.561610 -0.605880
O9    O     O_R   0.500000 0.560580 0.938390 -0.623809
O10   O     O_R   0.500000 0.560580 0.061610 -0.623809
O11   O     O_R   0.000000 0.060580 0.438390 -0.623809
O12   O     O_R   0.392630 0.439420 0.000000 -0.615736
O13   O     O_R   0.000000 0.060580 0.561610 -0.623809
O14   O     O_R   0.560550 0.392540 0.500000 -0.620947
O15   O     O_R   0.439450 0.392540 0.500000 -0.620951
O16   O     O_R   0.060550 0.892540 0.000000 -0.620947
O17   O     O_R   0.939450 0.892540 0.000000 -0.620951
O18   O     O_R   0.560580 0.499860 0.561610 -0.616281
O19   O     O_R   0.560580 0.499860 0.438390 -0.616295
O20   O     O_R   0.439420 0.499860 0.561610 -0.616308
O21   O     O_R   0.439420 0.499860 0.438390 -0.616294
O22   O     O_R   0.060580 0.999860 0.061610 -0.616281
O23   O     O_R   0.107370 0.939420 0.500000 -0.615742
O24   O     O_R   0.060580 0.999860 0.938390 -0.616295
O25   O     O_R   0.939420 0.999860 0.061610 -0.616308
O26   O     O_R   0.939420 0.999860 0.938390 -0.616294
O27   O     O_R   0.560630 0.607160 0.500000 -0.616199
O28   O     O_R   0.439370 0.607160 0.500000 -0.616206
O29   O     O_R   0.060630 0.107160 0.000000 -0.616199
O30   O     O_R   0.939370 0.107160 0.000000 -0.616206
O31   O     O_R   0.000000 0.607310 0.965210 -0.622326
O32   O     O_R   1.000000 0.607310 0.034790 -0.622326
O33   O     O_R   0.500000 0.107310 0.465210 -0.622326
O34   O     O_R   0.892630 0.939420 0.500000 -0.615736
O35   O     O_R   0.500000 0.107310 0.534790 -0.622326
O36   O     O_R   0.892680 0.500000 0.965220 -0.620077
O37   O     O_R   0.892680 0.500000 0.034780 -0.620074
O38   O     O_R   0.107320 0.500000 0.965220 -0.620070
O39   O     O_R   0.107320 0.500000 0.034780 -0.620074
O40   O     O_R   0.392680 1.000000 0.465220 -0.620077
O41   O     O_R   0.392680 1.000000 0.534780 -0.620074
O42   O     O_R   0.607320 1.000000 0.465220 -0.620070
O43   O     O_R   0.607320 1.000000 0.534780 -0.620074
O44   O     O_3   0.500227 0.638048 0.718168 -0.596956
O45   O     O_R   0.000000 0.392690 0.965220 -0.617266
O46   O     O_3   0.499975 0.638048 0.281832 -0.596957
O47   O     O_3   0.000227 0.138048 0.218168 -0.596956
O48   O     O_3   0.999975 0.138048 0.781832 -0.596957
O49   O     O_3   0.499774 0.361316 0.781820 -0.594828
O50   O     O_3   0.500025 0.361316 0.218180 -0.594828
O51   O     O_3   0.999774 0.861316 0.281820 -0.594828
O52   O     O_3   0.000025 0.861316 0.718180 -0.594828
O53   O     O_R   0.000000 0.392690 0.034780 -0.617266
O54   O     O_R   0.500000 0.892690 0.465220 -0.617266
O55   O     O_R   0.500000 0.892690 0.534780 -0.617266
O56   O     O_R   0.607290 0.560580 0.000000 -0.621434
Zn1   Zn    Zn3+2 0.500000 0.419100 0.000000 0.995790
Zn2   Zn    Zn3+2 1.000000 0.500000 0.046450 0.972948
Zn3   Zn    Zn3+2 0.500000 1.000000 0.453550 0.972948
Zn4   Zn    Zn3+2 0.500000 1.000000 0.546450 0.972948
Zn5   Zn    Zn3+2 1.000000 0.919100 0.500000 0.995790
Zn6   Zn    Zn3+2 0.500000 0.580900 0.000000 0.965245
Zn7   Zn    Zn3+2 1.000000 0.080900 0.500000 0.965245
Zn8   Zn    Zn3+2 0.580910 0.499830 0.500000 0.978761
Zn9   Zn    Zn3+2 0.419090 0.499830 0.500000 0.978738
Zn10  Zn    Zn3+2 0.080910 0.999830 0.000000 0.978761
Zn11  Zn    Zn3+2 0.919090 0.999830 0.000000 0.978738
Zn12  Zn    Zn3+2 1.000000 0.500000 0.953550 0.972948

loop_
_geom_bond_atom_site_label_1
_geom_bond_atom_site_label_2
_ccdc_geom_bond_type
C78   C87   S    
C26   O29   A    
O41   Zn4   S    
C91   O47   S    
C41   C42   T    
C96   O52   S    
O11   Zn7   S    
C27   C42   S    
O29   Zn10  S    
O16   Zn10  S    
C4    C70   T    
C36   O7    A    
C95   O51   S    
O33   Zn3   S    
C95   H31   S    
C16   C31   S    
C6    C72   T    
C38   O45   A    
C20   O18   A    
C62   C67   S    
C31   O41   A    
C50   C59   S    
C63   H37   S    
C49   C84   S    
C23   O3    A    
C52   C85   S    
C3    C69   T    
O4    Zn7   S    
C93   H25   S    
C2    C68   T    
C52   C61   S    
O24   Zn10  S    
C54   C87   S    
C55   C77   S    
O3    Zn7   S    
C65   C83   S    
C7    C86   S    
C94   O50   S    
C54   C63   S    
C25   O28   A    
C55   H7    S    
C39   O55   A    
C96   H32   S    
C60   H23   S    
C53   C62   S    
C34   O4    A    
C80   C89   S    
O36   Zn12  S    
C56   C59   S    
C18   C40   S    
O55   Zn4   S    
C22   C73   S    
C45   C60   S    
C28   O35   A    
C50   C85   S    
C61   H34   S    
O53   Zn2   S    
C40   C43   T    
C60   C80   S    
O8    Zn5   S    
C90   O46   S    
C53   H5    S    
C23   O23   A    
C35   C68   S    
C49   C75   S    
C20   C71   S    
C53   C86   S    
C93   H24   S    
O56   Zn6   S    
C75   C80   S    
O39   Zn2   S    
C34   O34   A    
C58   C80   S    
C27   O32   A    
O43   Zn4   S    
C94   H27   S    
C62   C82   S    
C33   O9    A    
O32   Zn2   S    
C37   C70   S    
C32   O42   A    
C75   O49   S    
C58   H1    S    
C90   H15   S    
O15   Zn9   S    
O20   Zn9   S    
C10   C12   S    
C25   C44   S    
O14   Zn8   S    
C92   H19   S    
C54   H6    S    
C33   C66   S    
C88   O44   S    
C66   C89   T    
O1    Zn1   S    
C31   O40   A    
C51   H3    S    
O7    Zn5   S    
C64   H38   S    
C45   C58   S    
C50   H2    S    
C79   O52   S    
C21   C72   S    
C64   C67   S    
C62   H36   S    
O40   Zn3   S    
C1    C9    S    
C7    C73   T    
C92   O48   S    
C37   O13   A    
C88   H11   S    
C88   H10   S    
C76   O50   S    
C22   O22   A    
C33   O5    A    
C52   H4    S    
C49   C58   S    
C91   H17   S    
C63   C83   S    
C35   O10   A    
C91   H16   S    
O10   Zn6   S    
C53   C77   S    
C92   H21   S    
O12   Zn1   S    
C50   C76   S    
O18   Zn8   S    
C11   C16   T    
C95   H29   S    
C36   O11   A    
C38   O53   A    
C55   C64   S    
C3    C82   S    
C8    C74   T    
C19   O16   A    
C21   O19   A    
C9    C14   T    
C19   C41   S    
C32   O43   A    
O5    Zn1   S    
O31   Zn12  S    
C6    C85   S    
C64   C82   S    
C38   C47   S    
C65   H39   S    
C67   O47   S    
O54   Zn3   S    
O13   Zn7   S    
C96   H35   S    
O2    Zn6   S    
C49   H40   S    
O27   Zn8   S    
C22   O25   A    
C77   O51   S    
C12   O2    A    
C45   O44   S    
O45   Zn12  S    
O21   Zn9   S    
C93   H22   S    
C90   H14   S    
C14   C29   S    
C18   O15   A    
C94   H26   S    
C30   O39   A    
C51   C75   S    
C1    O1    A    
C36   C69   S    
C15   C30   S    
C54   C79   S    
O38   Zn12  S    
C45   C84   S    
C39   O54   A    
C57   H8    S    
C94   H28   S    
C46   C47   T    
C26   O30   A    
C67   C86   S    
C29   O37   A    
C65   C78   S    
C20   O20   A    
C21   O21   A    
O25   Zn11  S    
C24   O26   A    
C59   C81   S    
C57   C65   S    
O35   Zn4   S    
C52   C76   S    
C76   C81   S    
C24   O24   A    
O42   Zn3   S    
C28   C43   S    
C59   H12   S    
C92   H20   S    
C91   H18   S    
C13   C17   T    
O26   Zn11  S    
C10   C15   T    
C8    C87   S    
C12   O12   A    
C55   C86   S    
C13   C34   S    
C5    C71   T    
C61   C81   S    
C79   C83   S    
C88   H9    S    
C95   H30   S    
C24   C74   S    
C56   C85   S    
C4    C83   S    
C56   O46   S    
C77   C82   S    
C25   O27   A    
O22   Zn10  S    
C11   C23   S    
O6    Zn1   S    
C37   O8    A    
C78   O48   S    
O30   Zn11  S    
C29   O36   A    
C57   C79   S    
O28   Zn9   S    
C26   C46   S    
C35   O6    A    
C19   O17   A    
C1    O56   A    
C57   C87   S    
C28   O33   A    
O23   Zn5   S    
O9    Zn6   S    
C5    C84   S    
O37   Zn2   S    
C17   C32   S    
C56   C61   S    
C96   H33   S    
C2    C81   S    
C51   C60   S    
C90   H13   S    
C18   O14   A    
C51   C84   S    
C30   O38   A    
O34   Zn5   S    
O19   Zn8   S    
C44   C48   T    
C27   O31   A    
C39   C48   S    
O17   Zn11  S    
C63   C78   S    
C93   O49   S    
