data_mof_unit_28771.cif
_audit_creation_date              2012-12-11T14:06:51-0500
_audit_creation_method            fapswitch 2.2
_symmetry_space_group_name_H-M    P1
_symmetry_Int_Tables_number       1
_space_group_crystal_system       triclinic
_cell_length_a                    6.911245
_cell_length_b                    17.358242
_cell_length_c                    24.113785
_cell_angle_alpha                 104.600798
_cell_angle_beta                  90.283004
_cell_angle_gamma                 89.798375
_cell_volume                      2799.39508763

loop_
_atom_site_label
_atom_site_type_symbol
_atom_type_description
_atom_site_fract_x
_atom_site_fract_y
_atom_site_fract_z
_atom_type_partial_charge
O1    O     O_R   0.494290 0.391990 0.999150 -0.541016
O2    O     O_R   0.827170 0.534410 0.082350 -0.517300
O3    O     O_R   0.994360 0.608010 0.000850 -0.516252
C1    C     C_R   0.657958 0.547486 0.106305 0.749064
O4    O     O_R   0.824210 0.388010 0.004470 -0.549098
O5    O     O_R   0.991370 0.460560 0.922410 -0.545515
C2    C     C_R   0.653475 0.355163 0.002230 0.760560
O6    O     O_R   0.497270 0.539440 0.077590 -0.551955
O7    O     O_3   0.659770 0.523970 0.973170 -0.371381
V1    V     V_3+5 0.935840 0.495550 0.004980 1.455891
O8    O     O_R   0.320910 0.465590 0.917650 -0.541036
C3    C     C_R   0.152193 0.448476 0.893974 0.699445
O9    O     O_R   0.323870 0.611990 0.995530 -0.548830
C4    C     C_R   0.153873 0.645621 0.000297 0.811209
V2    V     V_3+5 0.435470 0.504450 0.995020 1.410913
O10   O     O_3   0.161670 0.476030 0.026830 -0.378660
C5    C     C_2   0.137916 0.730379 0.999383 -0.358439
H1    H     H_    0.263641 0.756092 0.984018 0.127132
C6    C     C_2   0.973013 0.774605 0.012407 -0.196189
C7    C     C_R   0.962831 0.266597 0.625728 0.586770
N1    N     N_R   0.080613 0.329659 0.648676 -0.548056
C8    C     C_R   0.183125 0.366772 0.614445 0.589528
C9    C     C_R   0.168632 0.341096 0.553410 -0.105516
C10   C     C_R   0.048533 0.275220 0.529433 -0.002289
C11   C     C_R   0.945842 0.237651 0.566005 0.001265
C12   C     C_R   0.270345 0.378202 0.515890 0.028852
C13   C     C_R   0.243482 0.352425 0.455424 0.113664
C14   C     C_R   0.129909 0.283114 0.431453 -0.072375
C15   C     C_R   0.032595 0.245397 0.469005 -0.032162
C16   C     C_R   0.917336 0.177361 0.446225 -0.005193
C17   C     C_R   0.816625 0.141244 0.483318 -0.156247
C18   C     C_R   0.829678 0.171270 0.542345 -0.153129
C19   C     C_R   0.109288 0.249214 0.371164 0.588306
N2    N     N_R   0.000103 0.182312 0.350513 -0.568317
C20   C     C_R   0.905033 0.146349 0.386643 0.538883
O11   O     O_2   0.863865 0.231369 0.660705 -0.528004
O12   O     O_2   0.296942 0.428607 0.639917 -0.525812
O13   O     O_2   0.197499 0.281821 0.332971 -0.496031
O14   O     O_2   0.798835 0.080464 0.364843 -0.528675
H2    H     H_    0.726838 0.089405 0.466852 0.164660
H3    H     H_    0.749668 0.141555 0.569428 0.164953
C21   C     C_R   0.144223 0.105708 0.260094 -0.021480
H4    H     H_    0.272921 0.097238 0.283692 0.136870
C22   C     C_R   0.137991 0.074164 0.200663 -0.166813
H5    H     H_    0.262430 0.041815 0.179430 0.137192
C23   C     C_R   0.971908 0.083395 0.169160 -0.099233
C24   C     C_R   0.813561 0.126042 0.198255 -0.173809
H6    H     H_    0.686110 0.134494 0.174079 0.163525
C25   C     C_R   0.820225 0.160035 0.257855 -0.003067
C26   C     C_R   0.986752 0.148713 0.289231 0.300511
C27   C     C_R   0.951067 0.402452 0.742493 -0.089546
H7    H     H_    0.820530 0.415504 0.721519 0.151576
C28   C     C_R   0.971763 0.431809 0.801760 -0.246804
H8    H     H_    0.855798 0.467555 0.825257 0.142453
C29   C     C_R   0.140337 0.416610 0.830431 -0.061862
C30   C     C_R   0.289840 0.369774 0.797711 0.107018
C31   C     C_R   0.267245 0.341396 0.737917 -0.081323
H9    H     H_    0.380516 0.306219 0.712481 0.139806
C32   C     C_R   0.098924 0.357507 0.710191 0.344294
C33   C     C_R   0.442508 0.876988 0.611989 0.580230
N3    N     N_R   0.515107 0.834763 0.648310 -0.563971
C34   C     C_R   0.604418 0.763084 0.627588 0.573414
C35   C     C_R   0.623116 0.730864 0.568106 -0.047570
C36   C     C_R   0.553541 0.773767 0.529582 -0.040051
C37   C     C_R   0.468922 0.849689 0.551548 -0.078402
C38   C     C_R   0.710860 0.656643 0.546963 -0.116206
C39   C     C_R   0.730307 0.622868 0.488108 -0.048945
C40   C     C_R   0.663659 0.665613 0.448244 -0.095945
C41   C     C_R   0.573181 0.741312 0.469438 -0.031271
C42   C     C_R   0.500601 0.784044 0.430664 -0.062152
C43   C     C_R   0.407714 0.859181 0.452955 0.126804
C44   C     C_R   0.413347 0.895353 0.512713 0.143878
C45   C     C_R   0.687703 0.636802 0.388097 0.610169
N4    N     N_R   0.617041 0.678504 0.351380 -0.524246
C46   C     C_R   0.527795 0.750531 0.370883 0.648323
O15   O     O_2   0.341153 0.943946 0.634572 -0.505521
O16   O     O_2   0.674962 0.722993 0.664533 -0.520974
H10   H     H_    0.761335 0.623258 0.576670 0.203324
O17   O     O_2   0.785208 0.568779 0.365857 -0.531306
O18   O     O_2   0.472062 0.790108 0.332061 -0.525931
C47   C     C_R   0.796955 0.657304 0.258685 0.021710
C48   C     C_R   0.801258 0.623889 0.199129 -0.175540
H11   H     H_    0.924822 0.635518 0.174939 0.154990
C49   C     C_R   0.648346 0.576854 0.170100 -0.128390
C50   C     C_R   0.488400 0.561284 0.202515 -0.072757
C51   C     C_R   0.481843 0.596883 0.261787 -0.125901
H12   H     H_    0.360004 0.586055 0.286905 0.167217
C52   C     C_R   0.633001 0.644636 0.290202 0.343982
C53   C     C_R   0.346663 0.846371 0.739641 -0.007721
H13   H     H_    0.237732 0.805661 0.716808 0.143600
C54   C     C_R   0.332263 0.875554 0.798980 -0.208246
H14   H     H_    0.213403 0.855697 0.820985 0.136032
C55   C     C_R   0.470782 0.928399 0.829947 -0.090162
C56   C     C_R   0.623578 0.954653 0.799664 0.094202
C57   C     C_R   0.644493 0.920806 0.739546 -0.019438
C58   C     C_R   0.502004 0.867740 0.709646 0.270307
C59   C     C_2   0.636425 0.269689 0.001317 -0.348272
H15   H     H_    0.769847 0.235367 0.994933 0.124776
C60   C     C_2   0.464963 0.232485 0.005809 -0.044199
O19   O     O_R   0.618210 0.960470 0.922400 -0.535629
O20   O     O_R   0.291310 0.111960 0.995450 -0.543541
O21   O     O_R   0.124210 0.039530 0.077580 -0.536485
C61   C     C_R   0.459734 0.145645 0.000550 0.752943
O22   O     O_R   0.288310 0.965490 0.917650 -0.540384
O23   O     O_R   0.121180 0.892010 0.999220 -0.533096
C62   C     C_R   0.457739 0.953198 0.893771 0.709175
O24   O     O_R   0.621230 0.107990 0.000760 -0.549726
O25   O     O_3   0.455770 0.976060 0.026840 -0.369841
V3    V     V_3+5 0.179680 0.004440 0.995020 1.420097
O26   O     O_R   0.791670 0.888040 0.004570 -0.551985
C63   C     C_R   0.961483 0.855738 0.003508 0.700597
O27   O     O_R   0.794680 0.034510 0.082370 -0.543001
C64   C     C_R   0.963556 0.050510 0.106010 0.718371
V4    V     V_3+5 0.680070 0.995560 0.005010 1.409342
O28   O     O_3   0.953840 0.023940 0.973160 -0.370698
C65   C     C_2   0.655882 0.209126 0.286562 0.435656
H16   H     H_    0.657114 0.234415 0.332531 0.059545
O29   O     O_2   0.517290 0.222897 0.258942 -0.506091
C66   C     C_3   0.470587 0.347003 0.825149 -0.730959
H17   H     H_    0.431437 0.317524 0.859403 0.196360
H18   H     H_    0.562406 0.304959 0.793643 0.214758
H19   H     H_    0.558727 0.400690 0.843484 0.214466
C67   C     C_2   0.813612 0.541327 0.471083 0.485370
H20   H     H_    0.753861 0.496646 0.435439 0.098712
O30   O     O_2   0.947087 0.522327 0.498315 -0.530770
C68   C     C_3   0.292102 0.899603 0.414447 -0.624687
H21   H     H_    0.189697 0.945029 0.438573 0.189793
H22   H     H_    0.197571 0.855832 0.385307 0.262968
H23   H     H_    0.390886 0.928532 0.389676 0.235775
C69   C     C_3   0.380518 0.984601 0.533738 -0.677394
H24   H     H_    0.486540 0.011327 0.567853 0.221865
H25   H     H_    0.407423 0.016067 0.499774 0.183877
H26   H     H_    0.230285 0.997129 0.549648 0.239679
C70   C     C_2   0.966503 0.704741 0.285696 0.437791
H27   H     H_    0.087454 0.713302 0.259320 0.061875
O31   O     O_2   0.975230 0.734301 0.337209 -0.528834
C71   C     C_2   0.802175 0.748164 0.040108 0.431249
H28   H     H_    0.657088 0.759674 0.026687 0.033359
O32   O     O_2   0.822020 0.718447 0.080615 -0.535477
C72   C     C_2   0.332637 0.504549 0.176625 0.412939
H29   H     H_    0.354624 0.461056 0.136195 0.048323
O33   O     O_2   0.178168 0.504413 0.200989 -0.526521
C73   C     C_3   0.753198 0.022758 0.829981 -0.626201
H30   H     H_    0.684034 0.061075 0.868649 0.169076
H31   H     H_    0.892024 0.999071 0.842251 0.228150
H32   H     H_    0.781749 0.063293 0.801966 0.217592
C74   C     C_2   0.813573 0.938928 0.706788 0.426869
H33   H     H_    0.802844 0.931685 0.660879 0.062588
O34   O     O_2   0.969268 0.958940 0.729963 -0.513998
C75   C     C_3   0.274003 0.277323 0.019026 -0.647176
H34   H     H_    0.155604 0.240136 0.029077 0.183907
H35   H     H_    0.289690 0.327724 0.057636 0.206847
H36   H     H_    0.225129 0.298686 0.981553 0.206550
C76   C     C_2   0.410716 0.442699 0.539102 0.446263
H37   H     H_    0.360379 0.500783 0.563105 0.106769
O35   O     O_2   0.583803 0.430585 0.531542 -0.525765
C77   C     C_3   0.330818 0.401119 0.417361 -0.575112
H38   H     H_    0.216129 0.417795 0.390125 0.243024
H39   H     H_    0.393808 0.458649 0.440956 0.164163
H40   H     H_    0.447904 0.366764 0.390688 0.223918

loop_
_geom_bond_atom_site_label_1
_geom_bond_atom_site_label_2
_ccdc_geom_bond_type
C73   H32   S    
C60   C61   S    
C29   C30   A    
C68   H21   S    
C45   N4    A    
C34   O16   S    
C20   O14   S    
C57   C58   A    
C1    O6    A    
O22   C62   A    
V4    O28   S    
N3    C58   S    
C47   C70   S    
C24   C25   A    
C50   C51   A    
C17   H2    S    
C71   O32   D    
C12   C13   A    
C77   H38   S    
C16   C20   A    
C56   C73   S    
C14   C15   A    
C74   O34   D    
C72   O33   D    
N1    C32   S    
O5    C3    A    
O22   V3    S    
C51   C52   A    
C31   C32   A    
C7    C11   A    
O20   V3    S    
V2    O10   S    
O25   V3    S    
N2    C20   A    
C9    C12   A    
O25   V4    S    
O26   C63   A    
C10   C15   A    
O8    V2    S    
C49   C50   A    
C74   H33   S    
C65   O29   D    
C40   C41   A    
C75   H36   S    
C18   H3    S    
C43   C68   S    
C42   C43   A    
O1    V2    S    
C53   C54   A    
C46   O18   S    
O26   V4    S    
C76   O35   D    
C11   C18   A    
C28   C29   A    
C38   C39   A    
O23   C63   A    
C35   C38   A    
C77   H39   S    
O9    C4    A    
C4    C5    S    
C41   C42   A    
C21   C22   A    
O27   V4    S    
O27   C64   A    
C59   C60   D    
C22   C23   A    
C59   H15   S    
C66   H18   S    
C38   H10   S    
C60   C75   S    
N2    C26   S    
N4    C46   A    
C39   C40   A    
C47   C52   A    
C24   H6    S    
C67   H20   S    
C57   C74   S    
C10   C11   A    
C54   H14   S    
O4    C2    A    
C51   H12   S    
C70   O31   D    
C68   H23   S    
C40   C45   A    
C28   H8    S    
C8    O12   S    
C33   O15   S    
C47   C48   A    
C27   H7    S    
C33   N3    A    
C27   C28   A    
C69   H25   S    
O24   V4    S    
C15   C16   A    
C55   C62   S    
C54   C55   A    
C30   C31   A    
C17   C18   A    
C1    C49   S    
C6    C71   S    
C34   C35   A    
C5    H1    S    
C45   O17   S    
O19   V4    S    
C56   C57   A    
C55   C56   A    
C36   C41   A    
C72   H29   S    
C50   C72   S    
C76   H37   S    
O3    C4    A    
C21   C26   A    
C14   C19   A    
C48   H11   S    
O6    V2    S    
C48   C49   A    
O9    V2    S    
C30   C66   S    
C75   H35   S    
C12   C76   S    
C69   H26   S    
C27   C32   A    
C21   H4    S    
O2    V1    S    
C42   C46   A    
C22   H5    S    
O7    V1    S    
C66   H19   S    
C73   H31   S    
O23   V3    S    
C23   C24   A    
C68   H22   S    
C2    C59   S    
C23   C64   S    
O1    C2    A    
C39   C67   S    
O5    V1    S    
C66   H17   S    
C44   C69   S    
C70   H27   S    
C6    C63   S    
C77   H40   S    
C37   C44   A    
C33   C37   A    
C71   H28   S    
O19   C62   A    
C19   O13   S    
C75   H34   S    
C36   C37   A    
C53   C58   A    
C69   H24   S    
O7    V2    S    
O4    V1    S    
O3    V1    S    
V1    O10   S    
C31   H9    S    
C16   C17   A    
O2    C1    A    
C5    C6    D    
C19   N2    A    
C65   H16   S    
N3    C34   A    
C3    C29   S    
C67   O30   D    
V3    O28   S    
C9    C10   A    
C35   C36   A    
C7    O11   S    
C43   C44   A    
C25   C65   S    
C13   C77   S    
C7    N1    A    
O20   C61   A    
C25   C26   A    
C13   C14   A    
O21   C64   A    
C8    C9    A    
O21   V3    S    
C61   O24   A    
N4    C52   S    
C53   H13   S    
N1    C8    A    
C73   H30   S    
O8    C3    A    
