data_mof_unit_62282.cif
_audit_creation_date              2012-10-26T18:01:09-0400
_audit_creation_method            fapswitch 2.2
_symmetry_space_group_name_H-M    P1
_symmetry_Int_Tables_number       1
_space_group_crystal_system       triclinic
_cell_length_a                    30.2275
_cell_length_b                    30.893602
_cell_length_c                    21.371008
_cell_angle_alpha                 89.998534
_cell_angle_beta                  134.296025
_cell_angle_gamma                 90.007533
_cell_volume                      14284.0639831

loop_
_atom_site_label
_atom_site_type_symbol
_atom_type_description
_atom_site_fract_x
_atom_site_fract_y
_atom_site_fract_z
_atom_type_partial_charge
C1    C     C_R   0.308990 0.809280 0.119039 0.590245
C2    C     C_R   0.473631 0.671758 0.993655 0.298229
C3    C     C_R   0.396527 0.168526 0.278534 0.221319
C4    C     C_R   0.070824 0.635258 0.658791 -0.101216
C5    C     C_R   0.927819 0.635405 0.341678 -0.101609
C6    C     C_R   0.570599 0.135232 0.658877 -0.101188
C7    C     C_R   0.427593 0.135424 0.341746 -0.101650
C8    C     C_R   0.090948 0.592284 0.683120 -0.002642
C9    C     C_R   0.909064 0.592245 0.316868 -0.003390
C10   C     C_R   0.590946 0.092292 0.683116 -0.002604
C11   C     C_R   0.409060 0.092239 0.316867 -0.003438
C12   C     C_R   0.141580 0.583475 0.770127 0.027369
C13   C     C_R   0.019067 0.171782 0.992009 0.298186
C14   C     C_R   0.859758 0.583264 0.229473 0.026611
C15   C     C_R   0.641791 0.083514 0.770051 0.027435
C16   C     C_R   0.359955 0.083239 0.229421 0.026571
C17   C     C_3   0.178120 0.547220 0.832992 0.113235
C18   C     C_3   0.824321 0.546928 0.166451 0.114391
C19   C     C_3   0.678567 0.047277 0.832872 0.113393
C20   C     C_3   0.324722 0.046894 0.166367 0.114270
C21   C     C_3   0.213532 0.582596 0.904558 -0.122494
C22   C     C_3   0.788798 0.582311 0.094922 -0.122381
C23   C     C_3   0.713960 0.082649 0.904447 -0.122659
C24   C     C_R   0.972537 0.171806 0.991504 0.298260
C25   C     C_3   0.289179 0.082280 0.094846 -0.122221
C26   C     C_R   0.940576 0.558637 0.380711 0.563561
C27   C     C_R   0.059410 0.558666 0.619253 0.564314
C28   C     C_R   0.440572 0.058631 0.380704 0.563352
C29   C     C_R   0.559405 0.058673 0.619244 0.564543
C30   C     C_R   0.440644 0.940763 0.380881 0.549781
C31   C     C_R   0.559363 0.940762 0.619139 0.550822
C32   C     C_R   0.940630 0.440766 0.380852 0.549900
C33   C     C_R   0.059351 0.440760 0.619113 0.550701
C34   C     C_R   0.164676 0.749961 0.000380 0.565311
C35   C     C_R   0.477806 0.830505 0.002164 0.036147
C36   C     C_R   0.835328 0.749961 0.999630 0.565159
C37   C     C_R   0.664675 0.249962 0.000380 0.565197
C38   C     C_R   0.335328 0.249962 0.999629 0.565272
C39   C     C_R   0.587524 0.789685 0.988279 0.169283
C40   C     C_R   0.414980 0.789248 0.017005 0.169210
C41   C     C_R   0.087996 0.289742 0.989283 0.169396
C42   C     C_R   0.915461 0.289142 0.018021 0.169183
C43   C     C_R   0.616390 0.750709 0.000603 0.028368
C44   C     C_R   0.383503 0.750780 0.999355 0.030353
C45   C     C_R   0.116382 0.250692 0.000622 0.027875
C46   C     C_R   0.527731 0.830352 0.009112 0.036433
C47   C     C_R   0.883493 0.250791 0.999366 0.030838
C48   C     C_R   0.600199 0.712116 0.014575 0.222010
C49   C     C_R   0.396764 0.712800 0.979617 0.220379
C50   C     C_R   0.099674 0.212012 0.013569 0.222192
C51   C     C_R   0.896229 0.212946 0.978590 0.220107
C52   C     C_R   0.547838 0.711077 0.002290 -0.009506
C53   C     C_R   0.448938 0.711295 0.991510 -0.008916
C54   C     C_R   0.047286 0.211058 0.001230 -0.009633
C55   C     C_R   0.948379 0.211357 0.990433 -0.008795
C56   C     C_R   0.523523 0.751032 0.000394 -0.063818
C57   C     C_R   0.978844 0.330485 0.004293 0.036086
C58   C     C_R   0.476201 0.751070 0.999306 -0.063582
C59   C     C_R   0.023502 0.251023 0.000401 -0.063862
C60   C     C_R   0.976179 0.251075 0.999310 -0.063520
C61   C     C_3   0.957557 0.718712 0.150734 -0.364382
C62   C     C_3   0.042341 0.718902 0.849106 -0.363157
C63   C     C_3   0.457568 0.218736 0.150752 -0.364489
C64   C     C_3   0.542350 0.218882 0.849122 -0.363026
C65   C     C_3   0.073030 0.770590 0.242652 -0.337346
C66   C     C_3   0.927037 0.770883 0.757482 -0.336960
C67   C     C_3   0.573018 0.270636 0.242632 -0.337356
C68   C     C_R   0.028762 0.330278 0.011225 0.036522
C69   C     C_3   0.427026 0.270841 0.757463 -0.336939
C70   C     C_3   0.281458 0.586088 0.952668 -0.355727
C71   C     C_3   0.720541 0.584969 0.045542 -0.356751
C72   C     C_3   0.781808 0.086319 0.952268 -0.355572
C73   C     C_3   0.220862 0.084790 0.045227 -0.356984
C74   C     C_3   0.443701 0.872815 0.978862 -0.328285
C75   C     C_3   0.564944 0.871685 0.038553 -0.328743
C76   C     C_3   0.945315 0.372952 0.982140 -0.328194
C77   C     C_3   0.066529 0.371409 0.041762 -0.328854
C78   C     C_3   0.550904 0.855368 0.415034 -0.387966
C79   C     C_R   0.406638 0.842757 0.251171 0.045048
C80   C     C_3   0.448970 0.856690 0.588021 -0.387957
C81   C     C_3   0.051029 0.356852 0.411660 -0.387664
C82   C     C_3   0.949098 0.355220 0.584618 -0.388245
C83   C     C_R   0.593350 0.843197 0.749835 0.041414
C84   C     C_R   0.906636 0.343249 0.250063 0.046518
C85   C     C_R   0.690991 0.809277 0.880967 0.588112
C86   C     C_R   0.093351 0.342712 0.748745 0.039995
C87   C     C_R   0.342175 0.842857 0.185177 0.071242
C88   C     C_R   0.657834 0.842840 0.814840 0.070574
C89   C     C_R   0.842154 0.342842 0.185148 0.071188
C90   C     C_R   0.157814 0.342855 0.814812 0.070560
C91   C     C_R   0.310322 0.879077 0.177181 -0.096368
C92   C     C_R   0.689871 0.878668 0.822034 -0.094695
C93   C     C_R   0.810107 0.378640 0.177996 -0.096908
C94   C     C_R   0.189660 0.379097 0.822835 -0.094214
C95   C     C_R   0.342461 0.911499 0.241261 -0.097509
C96   C     C_R   0.809000 0.309276 0.119029 0.590321
C97   C     C_R   0.657737 0.911097 0.757976 -0.095200
C98   C     C_R   0.842243 0.411079 0.242046 -0.098378
C99   C     C_R   0.157526 0.411510 0.758748 -0.094434
C100  C     C_R   0.406979 0.908828 0.311516 0.034930
C101  C     C_R   0.593082 0.908852 0.688589 0.035141
C102  C     C_R   0.906904 0.408864 0.311384 0.034385
C103  C     C_R   0.093012 0.408817 0.688460 0.035631
C104  C     C_R   0.438645 0.875990 0.311422 0.013429
C105  C     C_R   0.561409 0.876458 0.689653 0.013533
C106  C     C_R   0.938575 0.376515 0.310235 0.014399
C107  C     C_R   0.191002 0.309282 0.880958 0.588024
C108  C     C_R   0.061344 0.375939 0.688477 0.012535
C109  C     C_3   0.488194 0.846232 0.383358 -0.133561
C110  C     C_3   0.511047 0.846896 0.618185 -0.132426
C111  C     C_3   0.989014 0.346979 0.381644 -0.133168
C112  C     C_3   0.011881 0.346154 0.616488 -0.132858
C113  C     C_R   0.335551 0.750329 0.000151 0.627446
C114  C     C_R   0.664439 0.750292 0.999896 0.624333
C115  C     C_R   0.835551 0.250335 0.000162 0.627913
C116  C     C_R   0.164440 0.250283 0.999912 0.623776
C117  C     C_3   0.452406 0.809307 0.317161 0.130136
C118  C     C_R   0.547036 0.790894 0.000340 0.043456
C119  C     C_3   0.546763 0.809934 0.684292 0.129460
C120  C     C_3   0.953301 0.310011 0.315532 0.129710
C121  C     C_3   0.047657 0.309240 0.682694 0.129964
C122  C     C_R   0.867697 0.758614 0.921209 0.240760
C123  C     C_R   0.132336 0.758514 0.078861 0.240747
C124  C     C_R   0.367690 0.258598 0.921197 0.240672
C125  C     C_R   0.632329 0.258532 0.078850 0.240835
C126  C     C_R   0.883448 0.749927 0.999118 0.020062
C127  C     C_R   0.116558 0.749922 0.000903 0.019923
C128  C     C_R   0.383447 0.249927 0.999115 0.019923
C129  C     C_R   0.455602 0.790858 0.005188 0.043769
C130  C     C_R   0.616557 0.249922 0.000901 0.020059
C131  C     C_R   0.945035 0.742026 0.077057 -0.054152
C132  C     C_R   0.054946 0.742121 0.922923 -0.054858
C133  C     C_R   0.445036 0.242041 0.077059 -0.054065
C134  C     C_R   0.554947 0.242109 0.922926 -0.054961
C135  C     C_R   0.992427 0.750530 0.079841 0.010137
C136  C     C_R   0.007581 0.750629 0.920188 0.010104
C137  C     C_R   0.492424 0.250547 0.079835 0.010145
C138  C     C_R   0.507578 0.250616 0.920183 0.010094
C139  C     C_R   0.976409 0.752605 0.999641 -0.044829
C140  C     C_R   0.047540 0.290877 0.001402 0.043394
C141  C     C_R   0.023606 0.752604 0.000400 -0.044714
C142  C     C_R   0.476405 0.252606 0.999634 -0.044831
C143  C     C_R   0.523602 0.252606 0.000392 -0.044708
C144  C     C_R   0.913165 0.754383 0.918816 0.032156
C145  C     C_R   0.086856 0.754282 0.081233 0.031969
C146  C     C_R   0.413160 0.254367 0.918807 0.032000
C147  C     C_R   0.586851 0.254301 0.081225 0.032127
C148  C     C_R   0.055056 0.755911 0.159655 0.007150
C149  C     C_R   0.944968 0.756105 0.840403 0.007007
C150  C     C_R   0.555051 0.255943 0.159645 0.007217
C151  C     C_R   0.956111 0.290825 0.006258 0.043867
C152  C     C_R   0.444963 0.256077 0.840393 0.006936
C153  C     C_R   0.101877 0.753613 0.160624 0.279585
C154  C     C_R   0.898141 0.753807 0.839421 0.279802
C155  C     C_R   0.601873 0.253646 0.160616 0.279726
C156  C     C_R   0.398136 0.253776 0.839413 0.279659
C157  C     C_R   0.172297 0.614764 0.831759 -0.021337
C158  C     C_R   0.828920 0.614572 0.167886 -0.023451
C159  C     C_R   0.672488 0.114799 0.831692 -0.021098
C160  C     C_R   0.329095 0.114550 0.167842 -0.023726
C161  C     C_R   0.189454 0.690769 0.880586 0.565366
C162  C     C_R   0.520151 0.671740 0.994141 0.298214
C163  C     C_R   0.810442 0.690768 0.119449 0.563244
C164  C     C_R   0.689441 0.190769 0.880592 0.565645
C165  C     C_R   0.310424 0.190769 0.119454 0.562921
C166  C     C_R   0.154633 0.658146 0.811905 0.025754
C167  C     C_R   0.845244 0.658155 0.188189 0.023698
C168  C     C_R   0.654614 0.158144 0.811921 0.026115
C169  C     C_R   0.345214 0.158158 0.188205 0.023353
C170  C     C_R   0.101832 0.668321 0.722112 0.221440
C171  C     C_R   0.896765 0.668500 0.278452 0.221343
C172  C     C_R   0.601604 0.168288 0.722214 0.221469
Cl1   Cl    Cl    0.595141 0.833973 0.943274 -0.619788
Cl2   Cl    Cl    0.206492 0.781163 0.166518 -0.468882
Cl3   Cl    Cl    0.293584 0.281324 0.833633 -0.468825
Cl4   Cl    Cl    0.706474 0.281202 0.166486 -0.471290
Cl5   Cl    Cl    0.177761 0.742948 0.263176 -0.469934
Cl6   Cl    Cl    0.822229 0.743254 0.736818 -0.471298
Cl7   Cl    Cl    0.677761 0.243002 0.263177 -0.470731
Cl8   Cl    Cl    0.322230 0.243202 0.736818 -0.470483
Cl9   Cl    Cl    0.069715 0.720619 0.683976 -0.535814
Cl10  Cl    Cl    0.927066 0.721136 0.317647 -0.531845
Cl11  Cl    Cl    0.569216 0.220530 0.684262 -0.536489
Cl12  Cl    Cl    0.409831 0.831975 0.067369 -0.626286
Cl13  Cl    Cl    0.426529 0.221208 0.317881 -0.531259
Cl14  Cl    Cl    0.131933 0.513386 0.836316 -0.566169
Cl15  Cl    Cl    0.871885 0.513971 0.164615 -0.564719
Cl16  Cl    Cl    0.632681 0.013253 0.836509 -0.566592
Cl17  Cl    Cl    0.372541 0.014106 0.164802 -0.564266
Cl18  Cl    Cl    0.653776 0.668792 0.063897 -0.548428
Cl19  Cl    Cl    0.339979 0.671449 0.924180 -0.550392
Cl20  Cl    Cl    0.152669 0.168360 0.061776 -0.547995
Cl21  Cl    Cl    0.838880 0.171976 0.922056 -0.550605
Cl22  Cl    Cl    0.534711 0.621969 0.969772 -0.401692
Cl23  Cl    Cl    0.096065 0.334303 0.945278 -0.617140
Cl24  Cl    Cl    0.455239 0.621223 0.010327 -0.408119
Cl25  Cl    Cl    0.032961 0.122175 0.966297 -0.400769
Cl26  Cl    Cl    0.953443 0.121167 0.006770 -0.409145
Cl27  Cl    Cl    0.910782 0.331553 0.069394 -0.629238
Cl28  Cl    Cl    0.422068 0.772341 0.343870 -0.472240
Cl29  Cl    Cl    0.575637 0.772346 0.656225 -0.473907
Cl30  Cl    Cl    0.924579 0.272343 0.343727 -0.474777
Cl31  Cl    Cl    0.078138 0.272334 0.656138 -0.471388
Cl32  Cl    Cl    0.793603 0.781363 0.833668 -0.471223
Cu1   Cu    Cu3+1 0.280880 0.719080 0.061820 1.119198
Cu2   Cu    Cu3+1 0.455570 0.999980 0.500010 1.025394
Cu3   Cu    Cu3+1 0.044430 0.499980 0.499990 1.028034
Cu4   Cu    Cu3+1 0.955570 0.499980 0.500010 1.026520
Cu5   Cu    Cu3+1 0.719120 0.719080 0.938180 1.121574
Cu6   Cu    Cu3+1 0.780880 0.219080 0.061820 1.119544
Cu7   Cu    Cu3+1 0.219120 0.219080 0.938180 1.121304
Cu8   Cu    Cu3+1 0.219090 0.780890 0.938220 1.110108
Cu9   Cu    Cu3+1 0.780910 0.780890 0.061780 1.111506
Cu10  Cu    Cu3+1 0.719090 0.280890 0.938220 1.110139
Cu11  Cu    Cu3+1 0.280910 0.280890 0.061780 1.111482
Cu12  Cu    Cu3+1 0.544430 0.999980 0.499990 1.029168
H1    H     H_    0.030766 0.643050 0.590901 0.155550
H2    H     H_    0.796924 0.582029 0.051550 0.200510
H3    H     H_    0.706768 0.081696 0.948867 0.200870
H4    H     H_    0.297448 0.082101 0.051639 0.200509
H5    H     H_    0.260510 0.881250 0.123867 0.149756
H6    H     H_    0.739768 0.880507 0.874666 0.150484
H7    H     H_    0.760204 0.380447 0.125411 0.150137
H8    H     H_    0.239469 0.381294 0.876180 0.150140
H9    H     H_    0.317022 0.938109 0.236777 0.142134
H10   H     H_    0.683275 0.937377 0.761795 0.144444
H11   H     H_    0.816704 0.437333 0.238273 0.142794
H12   H     H_    0.966827 0.643336 0.409926 0.155307
H13   H     H_    0.182965 0.438140 0.763266 0.143848
H14   H     H_    0.490282 0.844631 0.437302 0.177979
H15   H     H_    0.508096 0.844933 0.563459 0.177986
H16   H     H_    0.992050 0.344973 0.436446 0.177885
H17   H     H_    0.009900 0.344585 0.562644 0.178087
H18   H     H_    0.476326 0.793480 0.300814 0.160682
H19   H     H_    0.523247 0.794567 0.701659 0.159189
H20   H     H_    0.976765 0.294706 0.298039 0.162199
H21   H     H_    0.023680 0.293367 0.698915 0.158044
H22   H     H_    0.922777 0.692729 0.123680 0.136499
H23   H     H_    0.530374 0.142999 0.591052 0.155603
H24   H     H_    0.002816 0.701942 0.195163 0.156924
H25   H     H_    0.954781 0.741519 0.188009 0.180371
H26   H     H_    0.077092 0.692928 0.875997 0.136925
H27   H     H_    0.997070 0.702137 0.804672 0.157172
H28   H     H_    0.045079 0.741776 0.811871 0.183185
H29   H     H_    0.422796 0.192749 0.123714 0.136480
H30   H     H_    0.502833 0.201973 0.195187 0.156921
H31   H     H_    0.454787 0.241547 0.188017 0.179943
H32   H     H_    0.577114 0.192916 0.876026 0.136966
H33   H     H_    0.497087 0.202106 0.804701 0.157187
H34   H     H_    0.466436 0.143372 0.410043 0.155281
H35   H     H_    0.545075 0.241754 0.811873 0.183650
H36   H     H_    0.033735 0.785485 0.229152 0.139253
H37   H     H_    0.092491 0.743214 0.289130 0.177580
H38   H     H_    0.108489 0.796531 0.274808 0.188348
H39   H     H_    0.966361 0.785808 0.771083 0.139705
H40   H     H_    0.907567 0.743550 0.710904 0.177725
H41   H     H_    0.891600 0.796827 0.725400 0.188505
H42   H     H_    0.533717 0.285528 0.229119 0.139186
H43   H     H_    0.592488 0.243267 0.289128 0.177561
H44   H     H_    0.608468 0.296582 0.274771 0.188381
H45   H     H_    0.205224 0.529547 0.823674 0.133529
H46   H     H_    0.466343 0.285773 0.771053 0.139774
H47   H     H_    0.407571 0.243500 0.710906 0.177750
H48   H     H_    0.391575 0.296777 0.725358 0.188479
H49   H     H_    0.286378 0.588073 0.905856 0.209374
H50   H     H_    0.302579 0.615149 0.995225 0.211484
H51   H     H_    0.306753 0.557087 0.994508 0.160703
H52   H     H_    0.714872 0.586888 0.091545 0.205984
H53   H     H_    0.699005 0.613769 0.002294 0.212572
H54   H     H_    0.696176 0.555677 0.004248 0.160694
H55   H     H_    0.786557 0.088343 0.905275 0.209915
H56   H     H_    0.797006 0.528680 0.174802 0.132452
H57   H     H_    0.802849 0.115422 0.994712 0.211282
H58   H     H_    0.807300 0.057370 0.994186 0.160821
H59   H     H_    0.215049 0.086692 0.091073 0.205412
H60   H     H_    0.199259 0.113547 0.001866 0.212685
H61   H     H_    0.196667 0.055450 0.004024 0.160605
H62   H     H_    0.446471 0.893815 0.939521 0.128771
H63   H     H_    0.393546 0.867182 0.936615 0.193235
H64   H     H_    0.463901 0.890614 0.039027 0.195668
H65   H     H_    0.563865 0.891155 0.081150 0.128645
H66   H     H_    0.614585 0.864520 0.079543 0.192777
H67   H     H_    0.705619 0.029729 0.823336 0.134157
H68   H     H_    0.545997 0.891658 0.981166 0.195422
H69   H     H_    0.948396 0.394218 0.943410 0.129019
H70   H     H_    0.895080 0.367605 0.939703 0.193488
H71   H     H_    0.965734 0.390340 0.042783 0.195366
H72   H     H_    0.065751 0.390585 0.084935 0.128387
H73   H     H_    0.116062 0.363973 0.082489 0.192547
H74   H     H_    0.047819 0.391770 0.984915 0.195628
H75   H     H_    0.570453 0.885755 0.453769 0.171556
H76   H     H_    0.583166 0.828416 0.457551 0.187528
H77   H     H_    0.546688 0.858709 0.359243 0.166464
H78   H     H_    0.297370 0.028540 0.174535 0.131845
H79   H     H_    0.429519 0.887049 0.549211 0.171837
H80   H     H_    0.416167 0.829873 0.545959 0.186836
H81   H     H_    0.454076 0.860404 0.644555 0.165495
H82   H     H_    0.070482 0.387204 0.450503 0.171761
H83   H     H_    0.083876 0.330049 0.453657 0.186487
H84   H     H_    0.045833 0.360614 0.355055 0.167038
H85   H     H_    0.929545 0.385595 0.545859 0.171619
H86   H     H_    0.916897 0.328242 0.542073 0.187880
H87   H     H_    0.953205 0.358545 0.640311 0.164986
H88   H     H_    0.206167 0.581759 0.948786 0.200857
O1    O     O_R   0.321150 0.768980 0.142380 -0.447210
O2    O     O_R   0.507570 0.954900 0.590190 -0.493445
O3    O     O_R   0.992430 0.454900 0.409810 -0.493228
O4    O     O_R   0.007570 0.454900 0.590190 -0.492787
O5    O     O_R   0.417320 0.954950 0.409780 -0.523811
O6    O     O_R   0.582680 0.954950 0.590220 -0.523942
O7    O     O_R   0.917320 0.454950 0.409780 -0.524106
O8    O     O_R   0.082680 0.454950 0.590220 -0.523671
O9    O     O_R   0.268980 0.821170 0.038000 -0.506159
O10   O     O_R   0.731020 0.821170 0.962000 -0.504588
O11   O     O_R   0.768980 0.321170 0.038000 -0.506173
O12   O     O_R   0.678850 0.768980 0.857620 -0.447362
O13   O     O_R   0.231020 0.321170 0.962000 -0.504649
O14   O     O_R   0.340930 0.723870 0.052190 -0.487432
O15   O     O_R   0.659070 0.723870 0.947810 -0.484200
O16   O     O_R   0.840930 0.223870 0.052190 -0.487573
O17   O     O_R   0.159070 0.223870 0.947810 -0.484043
O18   O     O_R   0.288760 0.776060 0.947810 -0.471929
O19   O     O_R   0.711240 0.776060 0.052190 -0.470665
O20   O     O_R   0.788760 0.276060 0.947810 -0.472168
O21   O     O_R   0.211240 0.276060 0.052190 -0.470389
O22   O     O_R   0.230990 0.678800 0.962040 -0.536014
O23   O     O_R   0.821150 0.268980 0.142380 -0.446328
O24   O     O_R   0.769010 0.678800 0.037960 -0.535162
O25   O     O_R   0.730990 0.178800 0.962040 -0.536251
O26   O     O_R   0.269010 0.178800 0.037960 -0.534976
O27   O     O_R   0.178820 0.731000 0.857660 -0.452729
O28   O     O_R   0.821180 0.731000 0.142340 -0.453986
O29   O     O_R   0.678820 0.231000 0.857660 -0.452521
O30   O     O_R   0.321180 0.231000 0.142340 -0.454163
O31   O     O_R   0.211210 0.723910 0.052230 -0.472446
O32   O     O_R   0.788790 0.723910 0.947770 -0.472968
O33   O     O_R   0.711210 0.223910 0.052230 -0.472727
O34   O     O_R   0.178850 0.268980 0.857620 -0.448152
O35   O     O_R   0.288790 0.223910 0.947770 -0.472681
O36   O     O_R   0.159040 0.776100 0.947850 -0.519156
O37   O     O_R   0.840960 0.776100 0.052150 -0.519454
O38   O     O_R   0.659040 0.276100 0.947850 -0.519114
O39   O     O_R   0.340960 0.276100 0.052150 -0.519493
O40   O     O_R   0.992480 0.545070 0.409820 -0.478220
O41   O     O_R   0.007520 0.545070 0.590180 -0.479539
O42   O     O_R   0.492480 0.045070 0.409820 -0.477905
O43   O     O_R   0.507520 0.045070 0.590180 -0.479883
O44   O     O_R   0.917370 0.545120 0.409780 -0.512039
O45   O     O_R   0.082630 0.545120 0.590220 -0.511038
O46   O     O_R   0.417370 0.045120 0.409780 -0.512264
O47   O     O_R   0.582630 0.045120 0.590220 -0.510807
O48   O     O_R   0.492430 0.954900 0.409810 -0.492593

loop_
_geom_bond_atom_site_label_1
_geom_bond_atom_site_label_2
_ccdc_geom_bond_type
C1    C87   S    
C99   C103  A    
C105  C110  S    
Cu10  O38   S    
C133  C137  A    
C87   C91   A    
C165  O30   A    
C142  C146  A    
C66   H41   S    
C79   C87   A    
C124  Cl3   S    
C135  C139  A    
Cu2   O46   S    
C31   C101  S    
C57   C76   S    
C90   C107  S    
C138  C143  A    
C81   H83   S    
C164  O25   A    
C112  H17   S    
C100  C104  A    
Cu3   O8    S    
Cu4   O7    S    
C83   C119  S    
C80   H80   S    
C152  C156  A    
C34   C127  S    
C65   H37   S    
C76   H71   S    
C62   H26   S    
C36   O37   A    
C147  C155  A    
C113  O18   A    
C67   H44   S    
C82   H85   S    
C141  C145  A    
C164  O29   A    
C107  O13   A    
C83   C88   A    
C24   Cl26  S    
C59   C60   A    
C113  O14   A    
C130  C134  A    
C115  O16   A    
C9    C26   S    
C31   O6    A    
C61   H25   S    
C23   H3    S    
C7    H34   S    
C72   H57   S    
C62   C132  S    
C164  C168  S    
C66   C149  S    
C26   O40   A    
C86   C90   A    
C85   O10   A    
C3    C169  A    
C167  C171  A    
C73   H61   S    
C98   C102  A    
Cu5   Cu9   S    
C83   C105  A    
C60   C151  A    
C19   C23   S    
C136  C141  A    
C19   Cl16  S    
C109  H14   S    
Cu12  O6    S    
C17   Cl14  S    
C16   C20   S    
C86   C121  S    
C93   H7    S    
C96   O11   A    
C119  H19   S    
C14   C158  A    
Cu3   O3    S    
C163  O28   A    
C68   C140  A    
C148  C153  A    
C63   C133  S    
Cu4   O41   S    
C123  Cl2   S    
C19   H67   S    
C13   C54   A    
C68   C77   S    
C23   C72   S    
C36   C126  S    
C2    C53   A    
C38   C128  S    
C53   C58   A    
C32   C102  S    
C39   C118  A    
C63   H31   S    
C89   C96   S    
Cu4   O44   S    
C41   Cl23  S    
C156  Cl8   S    
C1    O1    A    
C45   C50   A    
Cu7   O26   S    
C49   C53   A    
C51   C55   A    
C144  C154  A    
C67   H42   S    
C48   C52   A    
C41   C45   A    
C25   H4    S    
C114  O15   A    
C86   C108  A    
Cu7   O17   S    
C40   C129  A    
C32   O3    A    
C71   H52   S    
C16   C160  A    
C120  Cl30  S    
C2    C162  A    
C85   O12   A    
C18   H56   S    
C62   H27   S    
C69   H47   S    
C6    C172  A    
C74   H64   S    
C4    C170  A    
C59   C140  A    
C58   C129  A    
C30   C100  S    
C18   Cl15  S    
Cu5   O15   S    
C41   C140  A    
Cu2   O2    S    
C23   C159  S    
C165  O26   A    
Cu12  O48   S    
C8    C12   A    
C38   O39   A    
Cu6   O23   S    
C94   H8    S    
C76   H70   S    
Cu8   O9    S    
C116  O17   A    
C3    Cl13  S    
C46   C75   S    
C99   H13   S    
C92   C97   A    
C70   H50   S    
C106  C111  S    
C63   H29   S    
C153  Cl5   S    
C123  C145  A    
C121  Cl31  S    
C51   Cl21  S    
C77   H74   S    
C78   H77   S    
C124  C146  A    
C75   H68   S    
C161  O27   A    
C95   H9    S    
C5    C9    A    
Cu6   O25   S    
C123  C127  A    
C64   H32   S    
C132  C136  A    
C42   C151  A    
C80   H81   S    
Cu3   O40   S    
C66   H40   S    
C166  C170  A    
C150  C155  A    
C12   C157  A    
C137  C150  A    
C114  O19   A    
C57   C68   A    
C26   O44   A    
C28   O46   A    
C98   H11   S    
C85   C88   S    
C74   H62   S    
C18   C22   S    
C69   C152  S    
C110  C119  S    
C6    H23   S    
C94   C99   A    
C112  C121  S    
C81   H82   S    
C139  C141  A    
C172  Cl11  S    
C57   C151  A    
C56   C58   A    
C163  O24   A    
C97   H10   S    
C78   C109  S    
C2    Cl24  S    
C89   C93   A    
C76   H69   S    
C30   O5    A    
C110  H15   S    
C61   C131  S    
C91   C95   A    
C40   C44   A    
C36   O32   A    
C65   H36   S    
C29   O47   A    
C125  Cl4   S    
C67   H43   S    
C82   H86   S    
C52   C162  A    
C35   C74   S    
Cu9   O37   S    
C20   H78   S    
C137  C142  A    
C136  C149  A    
C109  C117  S    
C78   H75   S    
C15   C19   S    
C75   H66   S    
C50   C54   A    
C72   H58   S    
C61   H22   S    
C42   Cl27  S    
C3    C7    A    
C43   C114  S    
Cu2   O43   S    
C27   O45   A    
C20   C25   S    
C73   H60   S    
C46   C118  A    
C122  Cl32  S    
Cu9   O10   S    
Cu6   O16   S    
Cu8   O18   S    
C12   C17   S    
C158  C167  A    
C72   H55   S    
C84   C106  A    
C160  C169  A    
Cu3   O45   S    
C50   Cl20  S    
Cu5   O12   S    
C48   Cl18  S    
C54   C59   A    
C4    C8    A    
C124  C128  A    
Cu2   O5    S    
C55   C60   A    
C67   C150  S    
C165  C169  S    
Cu5   O24   S    
C155  Cl7   S    
C90   C94   A    
C64   C134  S    
Cu7   O34   S    
Cu3   Cu4   S    
C125  C147  A    
C81   H84   S    
C95   C100  A    
C47   C51   A    
C22   C158  S    
Cu1   Cu8   S    
C138  C152  A    
C108  C112  S    
C82   C112  S    
C143  C147  A    
C149  C154  A    
Cu11  O30   S    
C15   C159  A    
C38   O35   A    
C11   C16   A    
C80   H79   S    
C84   C120  S    
C65   H38   S    
C25   C160  S    
C33   O4    A    
C116  O21   A    
C47   C115  S    
C117  Cl28  S    
C13   Cl25  S    
Cu5   O32   S    
Cu1   O14   S    
C44   C113  S    
C154  Cl6   S    
Cu11  O21   S    
C20   Cl17  S    
C30   O48   A    
C33   C103  S    
C61   H24   S    
C56   C118  A    
C6    C10   A    
C28   O42   A    
C115  O20   A    
C62   H28   S    
C69   H46   S    
C21   H88   S    
Cu10  O11   S    
C107  O34   A    
C10   C29   S    
C37   O33   A    
C34   O36   A    
C161  O22   A    
C71   H54   S    
C79   C117  S    
C17   H45   S    
C17   C21   S    
C64   H33   S    
C168  C172  A    
C8    C27   S    
Cu11  O39   S    
C142  C143  A    
Cu9   O19   S    
C35   C46   A    
C40   Cl12  S    
C44   C49   A    
Cu7   Cu11  S    
C1    O9    A    
C34   O31   A    
C14   C18   S    
C171  Cl10  S    
C119  Cl29  S    
C122  C144  A    
C9    C14   A    
C70   H51   S    
C37   C130  S    
C24   C55   A    
C7    C11   A    
Cu4   O4    S    
C131  C135  A    
C10   C15   A    
C77   H73   S    
C104  C109  S    
C31   O2    A    
C29   O43   A    
C159  C168  A    
C127  C132  A    
C125  C130  A    
C88   C92   A    
Cu12  O42   S    
C96   O23   A    
C103  C108  A    
C91   H5    S    
C43   C48   A    
C35   C129  A    
C25   C73   S    
C161  C166  S    
C71   H53   S    
Cu11  O13   S    
C145  C153  A    
C22   H2    S    
C111  H16   S    
C27   O41   A    
C69   H48   S    
C101  C105  A    
C74   H63   S    
C81   C111  S    
C117  H18   S    
C39   C43   A    
Cu6   Cu10  S    
Cu7   O35   S    
C13   C24   A    
C111  C120  S    
C65   C148  S    
C122  C126  A    
C163  C167  S    
C64   H35   S    
C139  C144  A    
C39   Cl1   S    
C162  Cl22  S    
C5    C171  A    
Cu12  O47   S    
Cu8   O27   S    
C4    H1    S    
Cu1   O31   S    
C170  Cl9   S    
C11   C28   S    
C79   C104  A    
C84   C89   A    
C77   H72   S    
C22   C71   S    
C82   H87   S    
C70   H49   S    
Cu2   Cu12  S    
C63   H30   S    
Cu9   O28   S    
Cu10  O20   S    
C21   C157  S    
C157  C166  A    
C134  C138  A    
Cu8   O36   S    
C78   H76   S    
C49   Cl19  S    
Cu1   O22   S    
C75   H65   S    
C32   O7    A    
C5    H12   S    
C21   C70   S    
Cu6   O33   S    
C33   O8    A    
C92   H6    S    
C128  C133  A    
C120  H20   S    
C45   C116  S    
C126  C131  A    
C73   H59   S    
C121  H21   S    
Cu10  O29   S    
C102  C106  A    
C42   C47   A    
Cu1   O1    S    
C37   O38   A    
C146  C156  A    
C66   H39   S    
C135  C148  A    
C80   C110  S    
C93   C98   A    
C97   C101  A    
C52   C56   A    
