data_mof_unit_56345.cif
_audit_creation_date              2013-03-05T16:48:44-0500
_audit_creation_method            fapswitch 2.2
_symmetry_space_group_name_H-M    P1
_symmetry_Int_Tables_number       1
_space_group_crystal_system       triclinic
_cell_length_a                    27.737627
_cell_length_b                    8.917429
_cell_length_c                    8.096415
_cell_angle_alpha                 90.020759
_cell_angle_beta                  91.015666
_cell_angle_gamma                 90.0543
_cell_volume                      2002.31895812

loop_
_atom_site_label
_atom_site_type_symbol
_atom_site_description
_atom_site_fract_x
_atom_site_fract_y
_atom_site_fract_z
_atom_type_partial_charge
O1    O     O_R   0.500000 0.285350 0.636850 -0.614156
O2    O     O_R   0.500000 0.714650 0.363150 -0.614136
O3    O     O_R   0.500000 0.714650 0.636850 -0.613091
O4    O     O_R   0.500000 0.285350 0.363150 -0.613104
C1    C     C_R   0.499996 0.217985 0.499981 0.946760
C2    C     C_R   0.500004 0.782014 0.500019 0.946803
O5    O     O_R   0.428760 0.500000 0.636860 -0.621884
O6    O     O_R   0.571240 0.500000 0.363140 -0.621846
O7    O     O_R   0.571240 0.500000 0.636860 -0.624723
O8    O     O_R   0.428760 0.500000 0.363140 -0.624779
C3    C     C_R   0.405717 0.500418 0.498365 0.872774
C4    C     C_R   0.594282 0.499552 0.501634 0.872670
Zn1   Zn    Zn3+2 0.500000 0.500000 0.682780 0.998247
Zn2   Zn    Zn3+2 0.500000 0.500000 0.317220 0.998246
C5    C     C_R   0.177350 0.390849 0.408888 0.561858
C6    C     C_R   0.822617 0.608840 0.591269 0.561921
C7    C     C_R   0.177620 0.636638 0.525560 0.522655
C8    C     C_R   0.822346 0.363240 0.474119 0.522671
O9    O     O_2   0.202927 0.272442 0.354813 -0.464974
O10   O     O_2   0.797031 0.727060 0.645773 -0.464886
O11   O     O_2   0.203333 0.751118 0.591547 -0.510685
O12   O     O_2   0.796627 0.248919 0.407810 -0.510546
N1    N     N_R   0.201231 0.512621 0.471152 -0.371114
N2    N     N_R   0.798743 0.487158 0.528791 -0.371224
C9    C     C_R   0.278661 0.519642 0.333273 -0.094185
C10   C     C_R   0.721325 0.478083 0.666528 -0.094462
C11   C     C_R   0.276610 0.497436 0.631886 -0.077084
C12   C     C_R   0.723391 0.504400 0.368243 -0.077460
C13   C     C_R   0.328658 0.515895 0.339923 -0.199221
C14   C     C_R   0.671326 0.481846 0.659898 -0.199065
C15   C     C_R   0.326741 0.494213 0.639019 -0.206826
C16   C     C_R   0.673261 0.507672 0.361119 -0.206620
C17   C     C_R   0.252627 0.510217 0.478995 0.294916
C18   C     C_R   0.747357 0.489561 0.520961 0.295516
C19   C     C_R   0.101342 0.512578 0.467374 -0.181350
C20   C     C_R   0.898624 0.487233 0.532453 -0.181270
C21   C     C_R   0.126680 0.387359 0.405682 -0.051406
C22   C     C_R   0.873288 0.612405 0.594290 -0.051481
C23   C     C_R   0.127004 0.642770 0.517145 -0.120459
C24   C     C_R   0.872959 0.357075 0.482573 -0.120576
C25   C     C_R   0.100946 0.263043 0.342716 0.525347
C26   C     C_R   0.899024 0.736738 0.657203 0.525273
C27   C     C_R   0.101149 0.773038 0.560154 0.475724
C28   C     C_R   0.898807 0.226822 0.439486 0.475836
C29   C     C_R   0.353054 0.503210 0.492857 -0.043768
C30   C     C_R   0.646941 0.496643 0.507133 -0.043712
H1    H     H_    0.344806 0.484279 0.758210 0.164738
H2    H     H_    0.655201 0.519318 0.242074 0.164769
H3    H     H_    0.348136 0.523467 0.225441 0.166192
H4    H     H_    0.651838 0.472591 0.774239 0.166184
H5    H     H_    0.256339 0.489680 0.744676 0.149595
H6    H     H_    0.743676 0.513753 0.255599 0.149407
H7    H     H_    0.260043 0.529805 0.215081 0.146532
H8    H     H_    0.739944 0.466303 0.784565 0.146340
C31   C     C_R   0.974532 0.367316 0.455089 0.002641
C32   C     C_R   0.025430 0.632514 0.544657 0.002665
C33   C     C_R   0.974941 0.623500 0.568340 0.042359
C34   C     C_R   0.025022 0.376318 0.431450 0.042350
C35   C     C_R   0.949524 0.492632 0.518885 0.074163
C36   C     C_R   0.050440 0.507188 0.480903 0.074153
C37   C     C_R   0.948431 0.233990 0.423871 -0.231742
C38   C     C_R   0.051527 0.765859 0.575802 -0.231791
C39   C     C_R   0.949209 0.739974 0.645207 -0.323855
C40   C     C_R   0.050759 0.259834 0.354620 -0.323863
H9    H     H_    0.965700 0.129484 0.394214 0.168566
H10   H     H_    0.034252 0.870367 0.605414 0.168567
H11   H     H_    0.967302 0.834495 0.701018 0.138825
H12   H     H_    0.032670 0.165322 0.298774 0.138814
C41   C     C_1   0.499999 0.065217 0.499973 -0.181444
C42   C     C_1   0.500001 0.934783 0.500027 -0.181454
N3    N     N_1   0.500000 0.500000 0.073640 -0.034422
N4    N     N_1   0.500000 0.500000 0.926360 -0.034422
O13   O     O_3   0.125114 0.146293 0.267922 -0.698384
H13   H     H_    0.101864 0.067522 0.232659 0.328606
O14   O     O_3   0.874858 0.853511 0.731964 -0.698309
H14   H     H_    0.898109 0.932310 0.767147 0.328627
O15   O     O_3   0.122627 0.910928 0.584041 -0.706548
H15   H     H_    0.146109 0.925057 0.494577 0.390909
O16   O     O_3   0.877324 0.088945 0.415544 -0.706639
H16   H     H_    0.853810 0.074839 0.504916 0.390747

loop_
_geom_bond_atom_site_label_1
_geom_bond_atom_site_label_2
_geom_bond_distance
_ccdc_geom_bond_type
C31   C35   1.417920 A    
Zn2   N3    1.972125 S    
C20   C35   1.418829 A    
C13   H3    1.083187 S    
O15   H15   0.990658 S    
C11   C17   1.399605 A    
O5    C3    1.280816 A    
C26   O14   1.383934 S    
C7    N1    1.362810 A    
O1    C1    1.260305 A    
C40   H12   1.075821 S    
C19   C21   1.415569 A    
C9    H7    1.083168 S    
C22   C26   1.408371 A    
C7    C23   1.405525 A    
C33   C35   1.416819 A    
C34   C36   1.416825 A    
C32   C33   1.419066 A    
O13   H13   0.991613 S    
O7    Zn1   2.017164 S    
C5    C21   1.405582 A    
C20   C24   1.415962 A    
C1    C41   1.362303 S    
C5    O9    1.349795 S    
C10   C18   1.396782 A    
N1    C17   1.426065 S    
C8    N2    1.362692 A    
O3    Zn1   1.950046 S    
C6    O10   1.349799 S    
O3    C2    1.260420 A    
C5    N1    1.363258 A    
C14   H4    1.083393 S    
C12   C18   1.399793 A    
C6    N2    1.363152 A    
C15   H1    1.083142 S    
C21   C25   1.408376 A    
C16   H2    1.083407 S    
O2    C2    1.260305 A    
C10   H8    1.083398 S    
C11   H5    1.083063 S    
C33   C39   1.411465 A    
C9    C13   1.387334 A    
C39   H11   1.075826 S    
C38   H10   1.077198 S    
C11   C15   1.390999 A    
C12   C16   1.390995 A    
C4    C30   1.460780 S    
O8    Zn2   2.017166 S    
C23   C27   1.412501 A    
C34   C40   1.411458 A    
N2    C18   1.425791 S    
C32   C36   1.417897 A    
C13   C29   1.405145 A    
C19   C36   1.418845 A    
C19   C23   1.415941 A    
O14   H14   0.991614 S    
C24   C28   1.412467 A    
O6    C4    1.280790 A    
C10   C14   1.387360 A    
C32   C38   1.411798 A    
C3    C29   1.460854 S    
O1    Zn1   1.949782 S    
C2    C42   1.362303 S    
O6    Zn2   2.004210 S    
C8    O12   1.349458 S    
C16   C30   1.403853 A    
C14   C30   1.405476 A    
C28   O16   1.377935 S    
O4    C1    1.260420 A    
Zn1   N4    1.972125 S    
C28   C37   1.385874 A    
C27   O15   1.377907 S    
C20   C22   1.415630 A    
N3    N4    1.192439 T    
C12   H6    1.083257 S    
C31   C37   1.411827 A    
O4    Zn2   1.950046 S    
C41   C42   1.163134 T    
O2    Zn2   1.949781 S    
O7    C4    1.277491 A    
C7    O11   1.349447 S    
O8    C3    1.277505 A    
C25   O13   1.383935 S    
O16   H16   0.990677 S    
C37   H9    1.077196 S    
O5    Zn1   2.004213 S    
C8    C24   1.405466 A    
C15   C29   1.403624 A    
C31   C34   1.419068 A    
C9    C17   1.396663 A    
C25   C40   1.397371 A    
C26   C39   1.397388 A    
C27   C38   1.385888 A    
C6    C22   1.405607 A    
