data_mof_unit_66029.cif
_audit_creation_date              2012-12-10T17:07:16-0500
_audit_creation_method            fapswitch 2.2
_symmetry_space_group_name_H-M    P1
_symmetry_Int_Tables_number       1
_space_group_crystal_system       triclinic
_cell_length_a                    10.043301
_cell_length_b                    10.739433
_cell_length_c                    13.626263
_cell_angle_alpha                 90.102249
_cell_angle_beta                  83.054675
_cell_angle_gamma                 90.562439
_cell_volume                      1458.8646118

loop_
_atom_site_label
_atom_site_type_symbol
_atom_type_description
_atom_site_fract_x
_atom_site_fract_y
_atom_site_fract_z
_atom_type_partial_charge
C1    C     C_R   0.500996 0.737390 0.499666 0.961993
C2    C     C_R   0.499998 0.262771 0.495983 0.958424
C3    C     C_R   0.523968 0.500055 0.314343 0.879829
C4    C     C_1   0.542136 0.499971 0.210545 -0.151103
C5    C     C_2   0.557852 0.499826 0.018864 -0.147512
C6    C     C_2   0.442210 0.499870 0.981146 -0.158706
C7    C     C_1   0.446111 0.499909 0.877261 0.028082
C8    C     C_1   0.553941 0.499894 0.122747 0.018214
C9    C     C_1   0.457892 0.499950 0.789462 -0.140070
C10   C     C_2   0.614296 0.068335 0.475455 -0.230898
C11   C     C_2   0.500130 0.131784 0.480780 -0.430394
C12   C     C_2   0.613195 0.934322 0.468116 0.677403
C13   C     C_2   0.503057 0.869483 0.503107 -0.466290
C14   C     C_2   0.080130 0.412416 0.460591 -0.087685
C15   C     C_2   0.934339 0.424675 0.447369 0.053564
C16   C     C_R   0.476039 0.499990 0.685657 0.875402
F1    F     F_    0.892154 0.544797 0.581959 -0.565442
F2    F     F_    0.727946 0.877690 0.428210 -0.634398
H1    H     H_    0.346113 0.499920 0.027462 0.165298
H2    H     H_    0.653951 0.499790 0.972550 0.173362
H3    H     H_    0.710721 0.114566 0.477212 0.199255
H4    H     H_    0.404695 0.088541 0.470614 0.163888
H5    H     H_    0.412270 0.912619 0.538021 0.126067
H6    H     H_    0.132075 0.329637 0.431640 0.142391
H7    H     H_    0.102638 0.583406 0.512353 0.251337
H8    H     H_    0.895408 0.365494 0.392654 0.072482
N1    N     N_2   0.147970 0.498670 0.498970 -0.166541
N2    N     N_2   0.852310 0.498640 0.498940 0.164636
O1    O     O_R   0.386960 0.680940 0.500020 -0.629004
O2    O     O_R   0.613100 0.680900 0.499980 -0.519687
O3    O     O_R   0.370650 0.500000 0.640370 -0.602203
O4    O     O_R   0.596800 0.499960 0.640330 -0.554887
O5    O     O_R   0.386900 0.319100 0.500020 -0.620740
O6    O     O_R   0.613040 0.319060 0.499980 -0.628989
O7    O     O_R   0.403200 0.500040 0.359670 -0.614921
O8    O     O_R   0.629350 0.500000 0.359630 -0.622275
Zn1   Zn    Zn3+2 0.349000 0.500030 0.500020 0.977214
Zn2   Zn    Zn3+2 0.651000 0.499970 0.499980 1.082900

loop_
_geom_bond_atom_site_label_1
_geom_bond_atom_site_label_2
_ccdc_geom_bond_type
C5    C8    S    
C6    C7    S    
O4    Zn2   S    
C14   N1    D    
H7    N1    S    
C11   H4    S    
C14   C15   S    
C3    O7    A    
C4    C8    T    
C2    O6    A    
C1    O1    A    
C5    H2    S    
C16   O3    A    
C6    H1    S    
O2    Zn2   S    
C15   N2    D    
C10   C12   S    
C3    O8    A    
N1    Zn1   S    
C2    C11   S    
C2    O5    A    
O8    Zn2   S    
C1    O2    A    
O7    Zn1   S    
C9    C16   S    
C10   H3    S    
C5    C6    D    
C1    C13   S    
C10   C11   D    
O1    Zn1   S    
C3    C4    S    
C12   C13   D    
C13   H5    S    
C14   H6    S    
C7    C9    T    
C16   O4    A    
C15   H8    S    
N2    Zn2   S    
O6    Zn2   S    
F1    N2    S    
O5    Zn1   S    
O3    Zn1   S    
C12   F2    S    
