data_mof_unit_38930.cif
_audit_creation_date              2012-12-10T17:22:54-0500
_audit_creation_method            fapswitch 2.2
_symmetry_space_group_name_H-M    P1
_symmetry_Int_Tables_number       1
_space_group_crystal_system       triclinic
_cell_length_a                    10.293442
_cell_length_b                    10.498017
_cell_length_c                    10.439992
_cell_angle_alpha                 91.796823
_cell_angle_beta                  93.903637
_cell_angle_gamma                 81.984007
_cell_volume                      1114.26546107

loop_
_atom_site_label
_atom_site_type_symbol
_atom_type_description
_atom_site_fract_x
_atom_site_fract_y
_atom_site_fract_z
_atom_type_partial_charge
C1    C     C_R   0.446715 0.500819 0.265477 0.897716
C2    C     C_3   0.498895 0.122898 0.502294 -0.034020
C3    C     C_3   0.621897 0.941773 0.476405 -0.131649
C4    C     C_3   0.379401 0.057472 0.528517 -0.162086
C5    C     C_2   0.423001 0.477617 0.128379 -0.368581
C6    C     C_2   0.575349 0.452967 0.869086 -0.436446
C7    C     C_2   0.500128 0.384398 0.065721 0.046724
C8    C     C_2   0.493342 0.385479 0.926163 0.024489
C9    C     C_2   0.076000 0.472860 0.506485 -0.004209
C10   C     C_2   0.931224 0.492698 0.528053 -0.007629
C11   C     C_3   0.312260 0.927966 0.310839 -0.822304
C12   C     C_R   0.552948 0.484317 0.733998 0.906204
C13   C     C_3   0.688832 0.072053 0.693846 -0.797468
C14   C     C_2   0.399473 0.308628 0.855208 0.449987
C15   C     C_2   0.589859 0.278980 0.130526 0.427497
C16   C     C_2   0.895053 0.548727 0.654271 0.507548
C17   C     C_2   0.126409 0.348163 0.446609 0.513655
C18   C     C_2   0.866946 0.423785 0.316753 0.572794
C19   C     C_2   0.110420 0.683977 0.578701 0.561567
C20   C     C_R   0.499436 0.257842 0.500375 0.851796
C21   C     C_R   0.500954 0.741951 0.501207 0.908524
C22   C     C_3   0.530891 0.034319 0.385875 -0.219381
C23   C     C_3   0.470381 0.964661 0.618933 -0.214083
C24   C     C_3   0.412533 0.967145 0.413044 0.198010
C25   C     C_3   0.588655 0.032340 0.591822 0.181798
C26   C     C_3   0.502242 0.876592 0.502177 -0.045125
H1    H     H_    0.554029 0.062873 0.289690 0.168164
H2    H     H_    0.738073 0.985724 0.745227 0.267862
H3    H     H_    0.763729 0.118532 0.647992 0.242777
H4    H     H_    0.638792 0.140764 0.763599 0.235235
H5    H     H_    0.405868 0.287088 0.753824 0.061841
H6    H     H_    0.589282 0.265654 0.232632 0.062308
H7    H     H_    0.946110 0.508100 0.741134 0.013076
H8    H     H_    0.098358 0.260449 0.481785 -0.032040
H9    H     H_    0.820864 0.349792 0.264006 0.047837
H10   H     H_    0.165087 0.736588 0.649714 0.041639
H11   H     H_    0.447043 0.932036 0.713814 0.164795
H12   H     H_    0.720916 0.891519 0.456346 0.211013
H13   H     H_    0.280666 0.106518 0.550292 0.155466
H14   H     H_    0.652337 0.494526 0.925490 0.186053
H15   H     H_    0.348895 0.543506 0.075758 0.169737
H16   H     H_    0.264281 0.014369 0.258768 0.263770
H17   H     H_    0.362164 0.858212 0.241803 0.228293
H18   H     H_    0.236348 0.882852 0.356632 0.262528
N1    N     N_2   0.157310 0.552180 0.551120 -0.200543
N2    N     N_2   0.842690 0.447820 0.448880 -0.207793
O1    O     O_R   0.568940 0.489500 0.307530 -0.651099
O2    O     O_2   0.664637 0.204023 0.068947 -0.575219
O3    O     O_2   0.816504 0.646630 0.661905 -0.521332
O4    O     O_2   0.187431 0.343278 0.350042 -0.500428
O5    O     O_2   0.930815 0.490937 0.259570 -0.529559
O6    O     O_2   0.016284 0.741556 0.517049 -0.560508
O7    O     O_R   0.431060 0.510500 0.692470 -0.641439
O8    O     O_R   0.348880 0.522990 0.340350 -0.522615
O9    O     O_R   0.651120 0.477010 0.659650 -0.576318
O10   O     O_R   0.610000 0.297210 0.483560 -0.647488
O11   O     O_R   0.390000 0.702790 0.516440 -0.644893
O12   O     O_R   0.389940 0.330700 0.516390 -0.618464
O13   O     O_R   0.610060 0.669300 0.483610 -0.553509
O14   O     O_2   0.315363 0.265529 0.911236 -0.558462
Zn1   Zn    Zn3+2 0.646930 0.477640 0.478080 0.976618
Zn2   Zn    Zn3+2 0.353070 0.522360 0.521920 0.977373

loop_
_geom_bond_atom_site_label_1
_geom_bond_atom_site_label_2
_ccdc_geom_bond_type
C17   O4    D    
O12   Zn2   S    
C2    C4    S    
C1    O8    A    
C19   N1    S    
C13   H2    S    
O1    Zn1   S    
C6    C8    D    
C16   H7    S    
C13   H4    S    
C14   O14   D    
C9    C10   S    
N1    Zn2   S    
C12   O7    A    
C4    H13   S    
C14   H5    S    
C20   O10   A    
C7    C15   S    
C11   H18   S    
C10   C16   S    
C2    C22   S    
C9    N1    D    
C13   C25   S    
C15   O2    D    
C1    C5    S    
C18   N2    S    
C18   H9    S    
C13   H3    S    
C21   C26   S    
C24   C26   S    
C18   O5    D    
C21   O13   A    
C2    C25   S    
C6    H14   S    
C22   H1    S    
C23   C25   S    
C6    C12   S    
C4    C24   S    
C10   N2    D    
C22   C24   S    
C11   H17   S    
O13   Zn1   S    
C12   O9    A    
C7    C8    S    
C17   H8    S    
N2    Zn1   S    
C20   O12   A    
C21   O11   A    
O9    Zn1   S    
C11   C24   S    
C3    C25   S    
C16   O3    D    
C11   H16   S    
O7    Zn2   S    
C23   C26   S    
C9    C17   S    
C5    C7    D    
C4    C23   S    
C5    H15   S    
O10   Zn1   S    
C1    O1    A    
C3    C22   S    
C8    C14   S    
O8    Zn2   S    
O11   Zn2   S    
C19   H10   S    
C23   H11   S    
C2    C20   S    
C19   O6    D    
C3    C26   S    
C3    H12   S    
C15   H6    S    
