data_mof_unit_31221.cif
_audit_creation_date              2012-12-10T16:37:24-0500
_audit_creation_method            fapswitch 2.2
_symmetry_space_group_name_H-M    P1
_symmetry_Int_Tables_number       1
_space_group_crystal_system       triclinic
_cell_length_a                    16.690327
_cell_length_b                    16.760217
_cell_length_c                    16.910355
_cell_angle_alpha                 66.329093
_cell_angle_beta                  65.817587
_cell_angle_gamma                 65.894604
_cell_volume                      3779.99617442

loop_
_atom_site_label
_atom_site_type_symbol
_atom_type_description
_atom_site_fract_x
_atom_site_fract_y
_atom_site_fract_z
_atom_type_partial_charge
C1    C     C_R   0.463632 0.916588 0.699374 -0.210763
C2    C     C_R   0.396287 0.666806 0.061806 -0.234746
C3    C     C_3   0.819903 0.741623 0.142011 -0.917589
C4    C     C_3   0.267830 0.282827 0.858085 0.151594
C5    C     C_3   0.302765 0.225273 0.793801 -0.788696
C6    C     C_R   0.966986 0.591887 0.330678 -0.234279
C7    C     C_R   0.918834 0.463903 0.699452 -0.211209
C8    C     C_R   0.960197 0.179521 0.438721 0.932171
C9    C     C_R   0.038209 0.819998 0.562252 0.885993
C10   C     C_R   0.180314 0.437885 0.962189 0.917742
C11   C     C_R   0.820173 0.560950 0.041444 0.925913
C12   C     C_R   0.438594 0.959074 0.179430 0.898053
C13   C     C_R   0.569496 0.020324 0.823555 1.009169
C14   C     C_R   0.560492 0.820616 0.042720 0.896778
C15   C     C_R   0.599898 0.951647 0.330678 -0.235338
C16   C     C_R   0.430852 0.176640 0.979100 1.012943
C17   C     C_R   0.020809 0.569143 0.823815 0.986587
C18   C     C_R   0.961633 0.437461 0.179738 0.931492
C19   C     C_R   0.819811 0.038060 0.562286 0.884764
C20   C     C_R   0.179668 0.959324 0.438729 0.931813
C21   C     C_R   0.509413 0.933482 0.741340 -0.166064
C22   C     C_R   0.556601 0.931563 0.289196 -0.136106
C23   C     C_R   0.066038 0.699086 0.452852 -0.136853
C24   C     C_R   0.918073 0.298144 0.556560 -0.142572
C25   C     C_R   0.701201 0.441222 0.088073 -0.139106
C26   C     C_R   0.044689 0.658631 0.409535 -0.220802
C27   C     C_R   0.292494 0.548916 0.953188 -0.143742
C28   C     C_R   0.298511 0.915486 0.556312 -0.140614
C29   C     C_R   0.703114 0.058111 0.451744 -0.135575
C30   C     C_R   0.489200 0.256106 0.069179 -0.164775
C31   C     C_R   0.440942 0.708724 0.079751 -0.131484
C32   C     C_R   0.945906 0.549703 0.289531 -0.140048
C33   C     C_R   0.933882 0.510781 0.741557 -0.160897
C34   C     C_R   0.560677 0.978372 0.553302 0.038835
C35   C     C_R   0.470734 0.944119 0.465170 0.041773
C36   C     C_R   0.985435 0.557372 0.553684 0.038897
C37   C     C_R   0.921755 0.347576 0.603994 -0.216566
C38   C     C_R   0.953931 0.465925 0.465200 0.041666
C39   C     C_R   0.527105 0.532388 0.063872 0.040857
C40   C     C_R   0.436891 0.445095 0.028810 0.038852
C41   C     C_R   0.595169 0.990375 0.459070 0.043798
C42   C     C_R   0.434427 0.934617 0.559118 0.045152
C43   C     C_R   0.948789 0.482704 0.604806 0.046002
C44   C     C_R   0.976165 0.548898 0.417445 0.050579
C45   C     C_R   0.440893 0.580343 0.047600 0.047030
C46   C     C_R   0.513425 0.392839 0.062461 0.046092
C47   C     C_R   0.555675 0.963460 0.417406 0.048195
C48   C     C_R   0.650845 0.393240 0.086155 -0.222344
C49   C     C_R   0.484870 0.943132 0.604598 0.046837
C50   C     C_R   0.401183 0.539404 0.020208 0.045200
C51   C     C_R   0.564086 0.438121 0.071349 0.045503
C52   C     C_R   0.941353 0.431594 0.559276 0.045138
C53   C     C_R   0.001526 0.589107 0.459343 0.043424
C54   C     C_R   0.573308 0.984152 0.690776 -0.007656
C55   C     C_R   0.462953 0.933785 0.327111 0.020963
C56   C     C_R   0.043109 0.674478 0.546968 0.033703
C57   C     C_R   0.932807 0.330287 0.462070 0.013315
C58   C     C_R   0.667328 0.536303 0.075712 0.009329
C59   C     C_R   0.329537 0.590577 0.980559 -0.228773
C60   C     C_R   0.321905 0.454309 0.967036 0.035795
C61   C     C_R   0.332092 0.928009 0.461953 0.012737
C62   C     C_R   0.675826 0.039382 0.545898 0.037477
C63   C     C_R   0.425685 0.308146 0.018646 -0.010221
C64   C     C_R   0.535289 0.671140 0.073749 0.020845
C65   C     C_R   0.943839 0.458237 0.327207 0.023061
C66   C     C_R   0.985614 0.573578 0.691294 -0.012795
C67   C     C_R   0.607052 0.021422 0.729775 -0.223982
C68   C     C_R   0.410609 0.930843 0.278899 -0.221364
C69   C     C_R   0.058570 0.719963 0.592540 -0.218653
C70   C     C_R   0.348413 0.918139 0.603724 -0.214993
C71   C     C_R   0.933565 0.279534 0.410595 -0.206348
C72   C     C_R   0.719333 0.588862 0.071227 -0.197734
C73   C     C_R   0.280143 0.409242 0.945040 -0.209790
C74   C     C_R   0.280439 0.930498 0.410491 -0.210472
C75   C     C_R   0.719318 0.058133 0.591240 -0.208845
C76   C     C_R   0.393075 0.270306 0.979287 -0.223201
C77   C     C_R   0.588264 0.720466 0.073457 -0.224342
C78   C     C_R   0.937018 0.408069 0.279200 -0.227486
C79   C     C_R   0.021975 0.607350 0.730625 -0.218759
C80   C     C_R   0.671922 0.068176 0.677100 0.364209
C81   C     C_R   0.665580 0.032517 0.409011 -0.225534
C82   C     C_R   0.324040 0.915882 0.325404 0.376911
C83   C     C_R   0.066574 0.674150 0.679206 0.369497
C84   C     C_R   0.919629 0.323068 0.325644 0.375047
C85   C     C_R   0.675571 0.674274 0.086413 0.377006
C86   C     C_R   0.328400 0.323817 0.933023 0.358036
C87   C     C_R   0.602529 0.001418 0.596532 0.076524
C88   C     C_R   0.422079 0.934583 0.418245 0.067651
C89   C     C_R   0.005389 0.601192 0.597200 0.076941
C90   C     C_R   0.943217 0.418083 0.418238 0.068412
C91   C     C_R   0.576416 0.579667 0.071981 0.066015
C92   C     C_R   0.535068 0.297434 0.087004 -0.212347
C93   C     C_R   0.395613 0.402710 0.003935 0.076936
C94   C     C_3   0.733330 0.143743 0.716381 0.151801
C95   C     C_3   0.700702 0.209809 0.771586 -0.804897
C96   C     C_3   0.253566 0.900266 0.238224 0.205066
C97   C     C_3   0.176490 0.862005 0.259501 -0.918926
C98   C     C_3   0.129877 0.747482 0.719629 0.185393
C99   C     C_3   0.181534 0.724959 0.784927 -0.894509
C100  C     C_3   0.900824 0.254326 0.238808 0.207419
C101  C     C_3   0.860639 0.178657 0.261215 -0.921780
C102  C     C_3   0.742605 0.762849 0.104758 0.203100
H1    H     H_    0.413706 0.879873 0.742582 0.136787
H2    H     H_    0.325141 0.701235 0.063544 0.136431
H3    H     H_    0.969487 0.661238 0.295754 0.140956
H4    H     H_    0.880965 0.415080 0.742369 0.137897
H5    H     H_    0.493315 0.905881 0.813800 0.176558
H6    H     H_    0.599828 0.911674 0.228506 0.166949
H7    H     H_    0.104242 0.747197 0.412383 0.174121
H8    H     H_    0.898982 0.236535 0.596810 0.156802
H9    H     H_    0.765117 0.401176 0.103574 0.165035
H10   H     H_    0.242568 0.592363 0.918286 0.172923
H11   H     H_    0.234959 0.899565 0.596608 0.156822
H12   H     H_    0.670365 0.952476 0.295902 0.137579
H13   H     H_    0.751424 0.095936 0.410426 0.172972
H14   H     H_    0.505156 0.182981 0.095748 0.178133
H15   H     H_    0.399152 0.769991 0.099948 0.165046
H16   H     H_    0.927503 0.593399 0.229864 0.184425
H17   H     H_    0.903939 0.496645 0.813887 0.176022
H18   H     H_    0.785374 0.166679 0.653196 0.151771
H19   H     H_    0.764390 0.074458 0.756680 0.146252
H20   H     H_    0.647901 0.190055 0.835804 0.284393
H21   H     H_    0.759562 0.208802 0.787332 0.178684
H22   H     H_    0.670761 0.280044 0.732785 0.268385
H23   H     H_    0.066201 0.680007 0.336528 0.142677
H24   H     H_    0.302408 0.881219 0.176166 0.169068
H25   H     H_    0.226024 0.975783 0.224598 0.144954
H26   H     H_    0.118576 0.881749 0.317067 0.285546
H27   H     H_    0.150136 0.890020 0.200201 0.185471
H28   H     H_    0.203079 0.786757 0.273415 0.255498
H29   H     H_    0.056723 0.781239 0.751706 0.152538
H30   H     H_    0.161009 0.793406 0.655984 0.160114
H31   H     H_    0.251203 0.677555 0.765367 0.279300
H32   H     H_    0.188299 0.788285 0.784738 0.189421
H33   H     H_    0.141287 0.694609 0.853734 0.255038
H34   H     H_    0.911731 0.316926 0.675671 0.133270
H35   H     H_    0.976993 0.226315 0.223473 0.143035
H36   H     H_    0.881022 0.302543 0.177578 0.170519
H37   H     H_    0.784565 0.205309 0.279487 0.258465
H38   H     H_    0.885346 0.153875 0.201020 0.184875
H39   H     H_    0.883030 0.120165 0.316129 0.284031
H40   H     H_    0.691551 0.823864 0.125477 0.168753
H41   H     H_    0.770152 0.778425 0.029698 0.144874
H42   H     H_    0.881349 0.691415 0.112586 0.273402
H43   H     H_    0.839033 0.804516 0.122915 0.185421
H44   H     H_    0.797260 0.716154 0.216878 0.270222
H45   H     H_    0.682990 0.321277 0.093197 0.133563
H46   H     H_    0.214801 0.345133 0.834453 0.175612
H47   H     H_    0.236996 0.242462 0.927145 0.142881
H48   H     H_    0.356456 0.161957 0.814013 0.284221
H49   H     H_    0.245244 0.206750 0.795463 0.185933
H50   H     H_    0.332298 0.264086 0.723763 0.267568
H51   H     H_    0.304215 0.663946 0.965780 0.138280
H52   H     H_    0.316276 0.910456 0.675199 0.132540
H53   H     H_    0.689447 0.050453 0.336054 0.139039
H54   H     H_    0.585285 0.253307 0.122823 0.137086
O1    O     O_R   0.982940 0.138950 0.510160 -0.641267
O2    O     O_R   0.982940 0.510160 0.138950 -0.637894
O3    O     O_R   0.861050 0.017060 0.489840 -0.623532
O4    O     O_R   0.138950 0.982940 0.510160 -0.642198
O5    O     O_R   0.867700 0.025880 0.612340 -0.657416
O6    O     O_R   0.132300 0.974120 0.387660 -0.619916
O7    O     O_R   0.025880 0.612340 0.867700 -0.616251
O8    O     O_R   0.974120 0.387660 0.132300 -0.665070
O9    O     O_R   0.612340 0.867700 0.025880 -0.672686
O10   O     O_R   0.387660 0.132300 0.974120 -0.621720
O11   O     O_R   0.387660 0.974120 0.132300 -0.671935
O12   O     O_R   0.017060 0.861050 0.489840 -0.621476
O13   O     O_R   0.612340 0.025880 0.867700 -0.617025
O14   O     O_R   0.132300 0.387660 0.974120 -0.654810
O15   O     O_R   0.867700 0.612340 0.025880 -0.627996
O16   O     O_R   0.974120 0.132300 0.387660 -0.620511
O17   O     O_R   0.025880 0.867700 0.612340 -0.666114
O18   O     O_3   0.658551 0.147710 0.694724 -0.585937
O19   O     O_3   0.297822 0.857039 0.307048 -0.599578
O20   O     O_3   0.141068 0.667858 0.701618 -0.596409
O21   O     O_3   0.858763 0.298989 0.307801 -0.598280
O22   O     O_3   0.701499 0.691246 0.145734 -0.595747
O23   O     O_R   0.138950 0.510160 0.982940 -0.622506
O24   O     O_3   0.341206 0.307582 0.853484 -0.587726
O25   O     O_R   0.861050 0.489840 0.017060 -0.663279
O26   O     O_R   0.510160 0.982940 0.138950 -0.656428
O27   O     O_R   0.489840 0.017060 0.861050 -0.648230
O28   O     O_R   0.489840 0.861050 0.017060 -0.650522
O29   O     O_R   0.510160 0.138950 0.982940 -0.646877
O30   O     O_R   0.017060 0.489840 0.861050 -0.651142
Zn1   Zn    Zn3+2 0.004880 0.004880 0.583590 0.886467
Zn2   Zn    Zn3+2 0.995120 0.995120 0.416410 0.910012
Zn3   Zn    Zn3+2 0.004880 0.583590 0.004880 0.904370
Zn4   Zn    Zn3+2 0.995120 0.416410 0.995120 0.877089
Zn5   Zn    Zn3+2 0.583590 0.004880 0.004880 0.882883
Zn6   Zn    Zn3+2 0.416410 0.995120 0.995120 0.883049

loop_
_geom_bond_atom_site_label_1
_geom_bond_atom_site_label_2
_ccdc_geom_bond_type
C95   H22   S    
C36   C89   A    
C39   C51   A    
O6    Zn2   S    
C1    C21   A    
O12   Zn2   S    
C96   O19   S    
C64   C77   A    
C6    C32   A    
C11   O25   A    
C15   C47   A    
C40   C93   A    
C35   C47   A    
O27   Zn6   S    
C12   O11   A    
C72   C85   A    
C101  H37   S    
C23   C56   A    
C17   C79   S    
C30   H14   S    
C98   C99   S    
C11   O15   A    
O11   Zn6   S    
C12   C68   S    
O15   Zn3   S    
C25   C58   A    
C5    H50   S    
C18   O2    A    
C10   O23   A    
C74   C82   A    
C97   H28   S    
C27   C60   A    
C13   C67   S    
C54   C87   A    
C10   C73   S    
C40   C50   A    
C43   C52   A    
C23   C26   A    
C38   C52   A    
C63   C76   A    
C100  O21   S    
C4    H46   S    
C48   H45   S    
C60   C73   A    
C42   C70   A    
C99   H31   S    
C19   O5    A    
C14   C77   S    
C55   C88   A    
C35   C42   A    
C31   H15   S    
C36   C53   A    
C17   O7    A    
C94   H18   S    
C44   C53   A    
C15   C22   A    
C12   O26   A    
C16   O10   A    
C85   O22   S    
C13   O27   A    
C98   H29   S    
O28   Zn6   S    
C9    O17   A    
O4    Zn1   S    
C7    C43   A    
C58   C91   A    
C1    H1    S    
C39   C45   A    
C60   C93   A    
C13   O13   A    
C29   H13   S    
C77   C85   A    
C6    C44   A    
C30   C63   A    
C7    C33   A    
O25   Zn4   S    
C66   C79   A    
C84   O21   S    
C34   C41   A    
C18   O8    A    
C4    O24   S    
C97   H26   S    
O8    Zn4   S    
C8    O1    A    
C39   C91   A    
C101  H38   S    
C33   C66   A    
O29   Zn5   S    
C66   C89   A    
C19   O3    A    
C48   C51   A    
C2    C45   A    
C59   H51   S    
C65   C90   A    
C23   H7    S    
C15   H12   S    
C57   C90   A    
C67   C80   A    
C99   H33   S    
C24   H8    S    
C30   C92   A    
C100  H35   S    
O2    Zn3   S    
C32   H16   S    
C37   C52   A    
C55   C68   A    
C11   C72   S    
C24   C57   A    
C54   C67   A    
C46   C51   A    
C5    H48   S    
C99   H32   S    
C2    C31   A    
C26   H23   S    
C70   H52   S    
O3    Zn2   S    
O30   Zn4   S    
C40   C46   A    
C38   C44   A    
C69   C83   A    
C61   C88   A    
C98   O20   S    
C35   C88   A    
O23   Zn3   S    
C2    H2    S    
C17   O30   A    
C18   C78   S    
C41   C81   A    
C96   C97   S    
C86   O24   S    
C24   C37   A    
C41   C47   A    
C7    H4    S    
C96   H24   S    
O7    Zn3   S    
C57   C71   A    
C14   O9    A    
C25   C48   A    
C21   H5    S    
C100  H36   S    
C94   O18   S    
C95   H20   S    
C56   C89   A    
C29   C81   A    
C3    H43   S    
C20   O6    A    
C102  O22   S    
C62   C75   A    
O26   Zn5   S    
C50   C59   A    
C92   H54   S    
C26   C53   A    
C76   C86   A    
C3    C102  S    
C71   C84   A    
C75   C80   A    
C95   H21   S    
C38   C90   A    
C29   C62   A    
O17   Zn1   S    
C34   C49   A    
C37   H34   S    
C65   C78   A    
C16   C76   S    
C101  H39   S    
C31   C64   A    
C9    O12   A    
C28   C70   A    
C3    H42   S    
O1    Zn1   S    
C4    H47   S    
C4    C5    S    
C81   H53   S    
C27   H10   S    
C14   O28   A    
C33   H17   S    
C22   C55   A    
C20   C74   S    
C61   C74   A    
C10   O14   A    
C62   C87   A    
O14   Zn4   S    
C5    H49   S    
C16   O29   A    
C68   C82   A    
C9    C69   S    
C19   C75   S    
C102  H41   S    
C80   O18   S    
O5    Zn1   S    
C27   C59   A    
C28   C61   A    
C79   C83   A    
C58   C72   A    
C21   C54   A    
C45   C50   A    
O16   Zn2   S    
C22   H6    S    
C100  C101  S    
O9    Zn5   S    
C6    H3    S    
O10   Zn6   S    
C34   C87   A    
C94   C95   S    
C73   C86   A    
C28   H11   S    
C25   H9    S    
C42   C49   A    
C97   H27   S    
C94   H19   S    
C78   C84   A    
C46   C92   A    
C82   O19   S    
C96   H25   S    
C3    H44   S    
C56   C69   A    
C20   O4    A    
C98   H30   S    
O13   Zn5   S    
C36   C43   A    
C102  H40   S    
C64   C91   A    
C63   C93   A    
C83   O20   S    
C1    C49   A    
C8    O16   A    
C32   C65   A    
C8    C71   S    
