data_mof_unit_52070.cif
_audit_creation_date              2012-12-10T17:46:58-0500
_audit_creation_method            fapswitch 2.2
_symmetry_space_group_name_H-M    P1
_symmetry_Int_Tables_number       1
_space_group_crystal_system       triclinic
_cell_length_a                    9.934802
_cell_length_b                    10.656277
_cell_length_c                    13.603865
_cell_angle_alpha                 91.046901
_cell_angle_beta                  83.108572
_cell_angle_gamma                 89.174611
_cell_volume                      1429.3703628

loop_
_atom_site_label
_atom_site_type_symbol
_atom_type_description
_atom_site_fract_x
_atom_site_fract_y
_atom_site_fract_z
_atom_type_partial_charge
C1    C     C_R   0.499333 0.739031 0.497425 0.936276
C2    C     C_R   0.499162 0.935674 0.413027 0.439345
C3    C     C_R   0.497282 0.065334 0.416224 0.411103
C4    C     C_R   0.475684 0.501917 0.685570 0.933082
C5    C     C_R   0.505774 0.127911 0.506820 -0.321883
C6    C     C_R   0.837663 0.663397 0.630512 -0.267626
C7    C     C_R   0.896495 0.741028 0.696900 0.553906
C8    C     C_R   0.036366 0.741645 0.694806 -0.285456
C9    C     C_R   0.117224 0.662007 0.629862 -0.241562
C10   C     C_R   0.060901 0.579978 0.564105 0.171777
C11   C     C_R   0.916478 0.580323 0.564131 0.095979
C12   C     C_1   0.457276 0.505868 0.789438 -0.157466
C13   C     C_R   0.939775 0.423030 0.438903 -0.122129
C14   C     C_R   0.082733 0.423126 0.438886 -0.095471
C15   C     C_R   0.500634 0.260822 0.505207 1.067763
C16   C     C_R   0.524205 0.500363 0.314421 0.912250
C17   C     C_1   0.542546 0.505237 0.210643 -0.184926
C18   C     C_2   0.558696 0.513337 0.018958 -0.180425
C19   C     C_2   0.441709 0.512939 0.981279 -0.147051
C20   C     C_1   0.445444 0.509513 0.877314 -0.017013
C21   C     C_1   0.554748 0.509506 0.122865 0.004261
C22   C     C_3   0.759274 0.753073 0.842228 -0.343958
C23   C     C_R   0.483885 0.866423 0.683837 -0.117736
C24   C     C_3   0.622935 0.832394 0.283251 -0.311227
C25   C     C_3   0.724131 0.238825 0.697698 -0.239997
C26   C     C_3   0.600893 0.160615 0.278570 -0.285530
C27   C     C_R   0.489632 0.928395 0.773874 -0.176058
C28   C     C_R   0.518645 0.055233 0.775731 -0.186391
C29   C     C_R   0.537406 0.122394 0.687517 0.540483
C30   C     C_R   0.514559 0.063240 0.596174 -0.086299
C31   C     C_R   0.498223 0.932783 0.594106 -0.022103
C32   C     C_R   0.496679 0.871332 0.501959 -0.257337
H1    H     H_    0.344681 0.512003 0.027699 0.164689
H2    H     H_    0.895360 0.360037 0.388976 0.138206
H3    H     H_    0.837775 0.702662 0.879185 0.160405
H4    H     H_    0.683649 0.685949 0.819340 0.162898
H5    H     H_    0.705257 0.819382 0.897743 0.195437
H6    H     H_    0.703991 0.899732 0.296459 0.131048
H7    H     H_    0.624374 0.820115 0.201978 0.190078
H8    H     H_    0.648133 0.740233 0.312991 0.186990
H9    H     H_    0.763139 0.335763 0.697314 0.198309
H10   H     H_    0.779677 0.187266 0.632873 0.166334
H11   H     H_    0.747012 0.196038 0.767941 0.152043
H12   H     H_    0.730519 0.671558 0.633735 0.217196
H13   H     H_    0.680793 0.185329 0.326206 0.133133
H14   H     H_    0.585486 0.242885 0.232387 0.179984
H15   H     H_    0.636549 0.082269 0.226910 0.182392
H16   H     H_    0.082803 0.803581 0.744529 0.174928
H17   H     H_    0.223366 0.667143 0.633500 0.219961
H18   H     H_    0.145433 0.360174 0.388891 0.162134
H19   H     H_    0.655786 0.513161 0.972561 0.147192
H20   H     H_    0.465921 0.766686 0.685353 0.101788
H21   H     H_    0.475893 0.876958 0.842126 0.148533
H22   H     H_    0.530202 0.101430 0.845717 0.150173
N1    N     N_R   0.857120 0.501200 0.500900 -0.108417
N2    N     N_R   0.142720 0.501280 0.500940 -0.113621
O1    O     O_R   0.385310 0.683220 0.500000 -0.621449
O2    O     O_3   0.491492 0.873039 0.323795 -0.574895
O3    O     O_3   0.583126 0.243652 0.691480 -0.637298
O4    O     O_3   0.475300 0.131485 0.332602 -0.576896
O5    O     O_R   0.614640 0.683250 0.500010 -0.650721
O6    O     O_R   0.368830 0.499960 0.640340 -0.644904
O7    O     O_R   0.598160 0.499980 0.640350 -0.620552
O8    O     O_R   0.385360 0.316750 0.499990 -0.602443
O9    O     O_R   0.614690 0.316780 0.500000 -0.609929
O10   O     O_R   0.401840 0.500020 0.359650 -0.586279
O11   O     O_R   0.631170 0.500040 0.359660 -0.634858
O12   O     O_3   0.817705 0.822062 0.760931 -0.599567
Zn1   Zn    Zn3+2 0.346870 0.499980 0.499990 0.969587
Zn2   Zn    Zn3+2 0.653130 0.500020 0.500010 0.929805

loop_
_geom_bond_atom_site_label_1
_geom_bond_atom_site_label_2
_ccdc_geom_bond_type
C25   H10   S    
O5    Zn2   S    
C14   N2    A    
C15   O8    A    
C2    O2    S    
C6    C7    A    
C1    O1    A    
C4    C12   S    
C18   C21   S    
C10   N2    A    
C9    C10   A    
C19   C20   S    
C24   H6    S    
C31   C32   A    
O7    Zn2   S    
C3    C5    A    
O11   Zn2   S    
C13   N1    A    
C3    O4    S    
C25   H11   S    
C15   O9    A    
C8    H16   S    
C2    C3    A    
O8    Zn1   S    
C11   N1    A    
C13   H2    S    
C16   O11   A    
C6    H12   S    
C27   H21   S    
C22   H3    S    
C4    O7    A    
C22   O12   S    
C23   H20   S    
C29   C30   A    
C12   C20   T    
C26   H15   S    
C2    C32   A    
C28   C29   A    
C24   H8    S    
C18   H19   S    
N2    Zn1   S    
C23   C27   A    
C30   C31   A    
C17   C21   T    
C5    C15   S    
O10   Zn1   S    
C16   O10   A    
C10   C11   A    
C14   H18   S    
O9    Zn2   S    
N1    Zn2   S    
C4    O6    A    
C7    C8    A    
C24   H7    S    
C9    H17   S    
O6    Zn1   S    
C24   O2    S    
C18   C19   D    
C19   H1    S    
C25   H9    S    
C6    C11   A    
C26   H14   S    
C16   C17   S    
C28   H22   S    
C25   O3    S    
C26   H13   S    
O1    Zn1   S    
C7    O12   S    
C13   C14   A    
C22   H5    S    
C26   O4    S    
C1    C32   S    
C22   H4    S    
C29   O3    S    
C5    C30   A    
C23   C31   A    
C8    C9    A    
C27   C28   A    
C1    O5    A    
