data_mof_unit_7629.cif
_audit_creation_date              2013-03-05T16:15:16-0500
_audit_creation_method            fapswitch 2.2
_symmetry_space_group_name_H-M    P1
_symmetry_Int_Tables_number       1
_space_group_crystal_system       triclinic
_cell_length_a                    27.803057
_cell_length_b                    10.6078
_cell_length_c                    9.413015
_cell_angle_alpha                 90.333343
_cell_angle_beta                  90.284554
_cell_angle_gamma                 90.257
_cell_volume                      2776.06411339

loop_
_atom_site_label
_atom_site_type_symbol
_atom_site_description
_atom_site_fract_x
_atom_site_fract_y
_atom_site_fract_z
_atom_type_partial_charge
O1    O     O_R   0.500020 0.316850 0.620870 -0.601610
O2    O     O_R   0.499980 0.683150 0.379130 -0.601730
O3    O     O_R   0.500000 0.316860 0.379090 -0.538713
O4    O     O_R   0.500000 0.683140 0.620910 -0.538641
C1    C     C_R   0.499967 0.259402 0.499537 0.788215
C2    C     C_R   0.500029 0.740598 0.500465 0.788359
O5    O     O_R   0.430270 0.500020 0.620880 -0.551380
O6    O     O_R   0.569730 0.499980 0.379120 -0.552030
O7    O     O_R   0.430250 0.500030 0.379090 -0.598463
O8    O     O_R   0.569750 0.499970 0.620910 -0.598046
C3    C     C_R   0.407500 0.500739 0.499762 0.802533
C4    C     C_R   0.592500 0.499281 0.500309 0.802585
Cu1   Cu    Cu3+1 0.500010 0.499990 0.643150 0.976578
Cu2   Cu    Cu3+1 0.499990 0.500010 0.356850 0.975537
C5    C     C_R   0.178318 0.393753 0.498516 0.580975
C6    C     C_R   0.821695 0.606527 0.499793 0.582055
O9    O     O_2   0.203549 0.285710 0.508157 -0.530396
O10   O     O_2   0.796510 0.714756 0.508415 -0.530000
N1    N     N_R   0.202025 0.506807 0.493615 -0.448781
N2    N     N_R   0.797964 0.493405 0.496335 -0.448563
C7    C     C_R   0.177713 0.617955 0.481319 0.596677
C8    C     C_R   0.822218 0.382015 0.485200 0.596274
C9    C     C_R   0.278897 0.511837 0.371557 -0.110658
C10   C     C_R   0.720813 0.486347 0.373725 -0.120793
C11   C     C_R   0.328895 0.509253 0.371277 -0.200298
C12   C     C_R   0.670822 0.488805 0.372951 -0.185364
C13   C     C_R   0.329220 0.500495 0.628478 -0.247802
C14   C     C_R   0.671067 0.501803 0.630058 -0.264248
C15   C     C_R   0.278686 0.503362 0.630726 0.009258
C16   C     C_R   0.721620 0.499125 0.632819 0.018085
C17   C     C_R   0.253545 0.508584 0.499624 0.288496
C18   C     C_R   0.746458 0.491789 0.501986 0.289211
C19   C     C_R   0.101909 0.503218 0.484527 -0.040585
C20   C     C_R   0.898036 0.496771 0.486220 -0.040753
C21   C     C_R   0.127865 0.389834 0.494128 -0.018414
C22   C     C_R   0.872128 0.610337 0.494874 -0.018712
C23   C     C_R   0.103059 0.275378 0.500707 -0.141908
C24   C     C_R   0.896967 0.724897 0.499861 -0.141771
C25   C     C_R   0.127232 0.618314 0.477394 -0.019121
C26   C     C_R   0.872679 0.381557 0.480767 -0.019309
C27   C     C_R   0.354513 0.503177 0.499641 -0.068135
C28   C     C_R   0.645488 0.496921 0.501029 -0.068431
H1    H     H_    0.349006 0.496830 0.727820 0.201654
H2    H     H_    0.651502 0.507154 0.729098 0.182377
H3    H     H_    0.122181 0.186972 0.509664 0.188466
H4    H     H_    0.877892 0.813473 0.508108 0.188365
C29   C     C_R   0.974732 0.382706 0.479826 0.044607
C30   C     C_R   0.025179 0.617148 0.478053 0.044595
C31   C     C_R   0.974110 0.615665 0.484902 0.043827
C32   C     C_R   0.025836 0.384313 0.485764 0.043806
C33   C     C_R   0.949170 0.498396 0.483430 0.068243
C34   C     C_R   0.050763 0.501538 0.482548 0.068187
C35   C     C_R   0.948023 0.268966 0.470229 -0.199879
C36   C     C_R   0.051831 0.730684 0.466663 -0.199940
C37   C     C_R   0.898075 0.268689 0.470986 -0.142646
C38   C     C_R   0.101781 0.730976 0.466642 -0.142768
O11   O     O_2   0.797547 0.272215 0.479844 -0.528657
O12   O     O_2   0.202351 0.727645 0.474466 -0.528614
C39   C     C_R   0.053133 0.272382 0.496807 -0.200451
C40   C     C_R   0.946872 0.727802 0.495180 -0.200338
H5    H     H_    0.652065 0.484420 0.271888 0.183285
H6    H     H_    0.347423 0.511889 0.270413 0.161258
H7    H     H_    0.739916 0.481018 0.273878 0.160769
H8    H     H_    0.259560 0.515520 0.271501 0.160016
H9    H     H_    0.879404 0.178949 0.464305 0.186966
H10   H     H_    0.120413 0.820575 0.458648 0.186956
H11   H     H_    0.964522 0.177816 0.459685 0.135334
H12   H     H_    0.035269 0.821611 0.455297 0.135446
H13   H     H_    0.037108 0.180260 0.505989 0.136234
H14   H     H_    0.962948 0.820079 0.503130 0.136103
C41   C     C_3   0.539990 0.043137 0.564966 -0.167147
C42   C     C_3   0.459999 0.956862 0.435047 -0.167490
C43   C     C_3   0.539025 0.957973 0.431061 -0.171583
C44   C     C_3   0.460965 0.042028 0.568951 -0.171766
H15   H     H_    0.570925 0.920258 0.374796 0.136320
H16   H     H_    0.429065 0.079748 0.625215 0.136514
H17   H     H_    0.572652 0.081801 0.618111 0.135610
H18   H     H_    0.427338 0.918196 0.381903 0.135490
C45   C     C_3   0.500049 0.877535 0.501338 0.025283
C46   C     C_3   0.499941 0.122465 0.498672 0.025235
C47   C     C_3   0.501022 0.960392 0.635365 -0.138546
C48   C     C_3   0.498967 0.039608 0.364647 -0.138771
H19   H     H_    0.502000 0.925316 0.746255 0.154321
H20   H     H_    0.497982 0.074685 0.253759 0.154364
C49   C     C_3   0.517388 0.605618 0.051834 -0.204554
C50   C     C_3   0.482609 0.394387 0.948165 -0.202991
C51   C     C_3   0.474415 0.589536 0.951075 0.612393
C52   C     C_3   0.525583 0.410461 0.048919 0.611425
H21   H     H_    0.531880 0.693609 0.100392 0.136195
H22   H     H_    0.468112 0.306401 0.899603 0.136122
N3    N     N_3   0.500040 0.499970 0.858290 -0.189947
N4    N     N_3   0.499960 0.500030 0.141710 -0.189953
C53   C     C_3   0.543489 0.514360 0.950237 -0.189189
C54   C     C_3   0.456509 0.485642 0.049764 -0.187414
H23   H     H_    0.579894 0.525399 0.904087 0.144558
H24   H     H_    0.420103 0.474616 0.095941 0.142460
O13   O     O_3   0.446255 0.684538 0.888117 -0.560682
C55   C     C_3   0.428800 0.766301 0.994450 0.015066
H25   H     H_    0.458956 0.818956 0.046007 0.135539
H26   H     H_    0.408273 0.713640 0.076530 0.148191
C56   C     C_3   0.395100 0.861474 0.926849 -0.744506
H27   H     H_    0.364308 0.811853 0.875332 0.261726
H28   H     H_    0.381173 0.926683 0.009529 0.204782
H29   H     H_    0.414595 0.917178 0.845723 0.236457
O14   O     O_3   0.553715 0.315388 0.111846 -0.562064
C57   C     C_3   0.571305 0.233916 0.005423 0.013183
H30   H     H_    0.592027 0.286796 0.923952 0.150235
H31   H     H_    0.541213 0.181593 0.953108 0.136304
C58   C     C_3   0.604804 0.138309 0.073110 -0.746467
H32   H     H_    0.585106 0.082335 0.153570 0.236734
H33   H     H_    0.618862 0.073395 0.990333 0.205730
H34   H     H_    0.635520 0.187576 0.125451 0.260438
C59   C     C_2   0.253506 0.501148 0.770372 0.869531
O15   O     O_2   0.275906 0.475696 0.878645 -0.611965
O16   O     O_R   0.204549 0.529296 0.779897 -0.756106
H35   H     H_    0.192050 0.524499 0.880736 0.338654
C60   C     C_2   0.747124 0.503737 0.772684 0.869030
O17   O     O_2   0.724877 0.529821 0.880713 -0.612781
O18   O     O_R   0.796226 0.477163 0.782698 -0.756246
H36   H     H_    0.808943 0.483510 0.883637 0.338894

loop_
_geom_bond_atom_site_label_1
_geom_bond_atom_site_label_2
_geom_bond_distance
_ccdc_geom_bond_type
C56   H27   1.110865 S    
C51   N3    1.475025 S    
C13   C15   1.405733 A    
C60   O17   1.223808 D    
N1    C17   1.433309 S    
C8    O11   1.349625 S    
O13   C55   1.410002 S    
C19   C34   1.422067 A    
C5    N1    1.366976 A    
C20   C33   1.422081 A    
C19   C25   1.408749 A    
C31   C40   1.416089 A    
C44   H16   1.110225 S    
O1    C1    1.291380 A    
C32   C39   1.416096 A    
N1    C7    1.366888 A    
C12   H5    1.083255 S    
C10   C12   1.390253 A    
C42   C45   1.531331 S    
C50   N3    1.488361 S    
C58   H33   1.110518 S    
C50   C52   1.530085 S    
C36   H12   1.076344 S    
C57   H30   1.114089 S    
O16   H35   1.013907 S    
C51   C54   1.528726 S    
C14   C28   1.404973 A    
O4    Cu1   1.955277 S    
C4    C28   1.473539 S    
C50   C54   1.542936 S    
C37   H9    1.083592 S    
C49   C53   1.542955 S    
C52   N4    1.475038 S    
C31   C33   1.421409 A    
C32   C34   1.421423 A    
C6    N2    1.366959 A    
C29   C35   1.416112 A    
C49   C51   1.530104 S    
C56   H28   1.110521 S    
C44   C46   1.531473 S    
Cu1   Cu2   2.694944 S    
Cu1   N3    2.025114 S    
C43   H15   1.110220 S    
C7    O12   1.349623 S    
O2    C2    1.291397 A    
C35   H11   1.076335 S    
C5    C21   1.403570 A    
C41   C46   1.531333 S    
C47   H19   1.110425 S    
C49   N4    1.488376 S    
O5    C3    1.301394 A    
C29   C32   1.421694 A    
C35   C37   1.388742 A    
C36   C38   1.388759 A    
C42   C44   1.546546 S    
C50   H22   1.110107 S    
C58   H34   1.110847 S    
C11   C27   1.401505 A    
C45   C47   1.533438 S    
C49   H21   1.110105 S    
C29   C33   1.421237 A    
C14   H2    1.083031 S    
C9    C17   1.399970 A    
C30   C36   1.416106 A    
O7    Cu2   1.951288 S    
C10   C18   1.399854 A    
N3    C53   1.489335 S    
C13   C27   1.405266 A    
C25   C38   1.395521 A    
C7    C25   1.403841 A    
C40   H14   1.076303 S    
O6    C4    1.301964 A    
C26   C37   1.395509 A    
C8    C26   1.403827 A    
N4    C54   1.489367 S    
C43   C45   1.531466 S    
C1    C46   1.452568 S    
C54   H24   1.109535 S    
O7    C3    1.302863 A    
Cu2   N4    2.025114 S    
C23   C39   1.388615 A    
O3    Cu2   1.955275 S    
O8    C4    1.302281 A    
C39   H13   1.076280 S    
C24   C40   1.388633 A    
O4    C2    1.290320 A    
C9    H8    1.083144 S    
N2    C8    1.366864 A    
C56   H29   1.110216 S    
C55   H26   1.114108 S    
C20   C26   1.408731 A    
O1    Cu1   1.952789 S    
C44   C47   1.545698 S    
C23   H3    1.083591 S    
C43   C48   1.545694 S    
C41   H17   1.110346 S    
C12   C28   1.401706 A    
C41   C43   1.546541 S    
C59   O15   1.223878 D    
N2    C18   1.433302 S    
C5    O9    1.349697 S    
C15   C59   1.492610 S    
C52   C53   1.528719 S    
C30   C31   1.421681 A    
O6    Cu2   1.949250 S    
C21   C23   1.395490 A    
O3    C1    1.290335 A    
O8    Cu1   1.951288 S    
O18   H36   1.013900 S    
C16   C60   1.492721 S    
C41   C47   1.545550 S    
C10   H7    1.083163 S    
C55   C56   1.520560 S    
O14   C57   1.410033 S    
C48   H20   1.110417 S    
C60   O18   1.398053 S    
C14   C16   1.406040 A    
C15   C17   1.416738 A    
C58   H32   1.110203 S    
C6    C22   1.403602 A    
C16   C18   1.416846 A    
C52   O14   1.410385 S    
C2    C45   1.452569 S    
C53   H23   1.109433 S    
C57   H31   1.113156 S    
C38   H10   1.083585 S    
C22   C24   1.395495 A    
C19   C21   1.408532 A    
C46   C48   1.533425 S    
C3    C27   1.473539 S    
C20   C22   1.408540 A    
C11   H6    1.082872 S    
C9    C11   1.390503 A    
O2    Cu2   1.952788 S    
C24   H4    1.083592 S    
C13   H1    1.083548 S    
O5    Cu1   1.949250 S    
C6    O10   1.349686 S    
C55   H25   1.113140 S    
C42   H18   1.110346 S    
C51   O13   1.410371 S    
C30   C34   1.421223 A    
C42   C48   1.545545 S    
C59   O16   1.398032 S    
C57   C58   1.520552 S    
