data_mof_unit_63895.cif
_audit_creation_date              2012-12-10T20:09:36-0500
_audit_creation_method            fapswitch 2.2
_symmetry_space_group_name_H-M    P1
_symmetry_Int_Tables_number       1
_space_group_crystal_system       triclinic
_cell_length_a                    15.533685
_cell_length_b                    18.470326
_cell_length_c                    19.289692
_cell_angle_alpha                 90.919888
_cell_angle_beta                  91.190629
_cell_angle_gamma                 67.689312
_cell_volume                      5118.82869632

loop_
_atom_site_label
_atom_site_type_symbol
_atom_type_description
_atom_site_fract_x
_atom_site_fract_y
_atom_site_fract_z
_atom_type_partial_charge
C1    C     C_R   0.500230 0.500420 0.634431 0.902231
C2    C     C_R   0.499918 0.499537 0.365573 0.897939
C3    C     C_R   0.104681 0.404656 0.456517 -0.195781
C4    C     C_R   0.896569 0.589911 0.445134 -0.201806
C5    C     C_R   0.064694 0.349063 0.457958 -0.187474
C6    C     C_R   0.936582 0.645558 0.444744 -0.185996
C7    C     C_R   0.491038 0.566338 0.254285 -0.175972
C8    C     C_R   0.509021 0.433590 0.745701 -0.174250
C9    C     C_R   0.490885 0.565545 0.182545 -0.171010
C10   C     C_R   0.510077 0.434125 0.817446 -0.170169
C11   C     C_R   0.499105 0.497198 0.146448 0.156961
C12   C     C_R   0.503590 0.502021 0.853600 0.157238
C13   C     C_R   0.508420 0.428757 0.181692 0.144481
C14   C     C_R   0.495189 0.570267 0.818389 0.145426
C15   C     C_R   0.508565 0.429762 0.253863 -0.195476
C16   C     C_R   0.494206 0.569503 0.746206 -0.196966
C17   C     C_R   0.499756 0.498504 0.290269 -0.060786
C18   C     C_R   0.501144 0.501235 0.709751 -0.062058
C19   C     C_R   0.420292 0.502198 0.032878 0.320517
C20   C     C_R   0.582591 0.496872 0.967192 0.320979
C21   C     C_R   0.422826 0.503530 0.961130 -0.257695
C22   C     C_R   0.580042 0.495567 0.038951 -0.257718
C23   C     C_R   0.676580 0.450892 0.498982 0.930652
C24   C     C_R   0.323335 0.549068 0.499137 0.922330
C25   C     C_R   0.503383 0.501126 0.928483 -0.017333
C26   C     C_R   0.499469 0.498000 0.071582 -0.017135
C27   C     C_R   0.445727 0.288525 0.453863 0.398220
C28   C     C_R   0.556245 0.711093 0.544633 0.340068
C29   C     C_R   0.445246 0.212418 0.454607 -0.057668
C30   C     C_R   0.556004 0.787736 0.543469 -0.062877
C31   C     C_R   0.500893 0.157713 0.503504 -0.074714
C32   C     C_R   0.497149 0.842804 0.496659 -0.026131
C33   C     C_R   0.556506 0.181588 0.550065 0.212663
C34   C     C_R   0.439786 0.819244 0.451580 0.181265
C35   C     C_R   0.554577 0.258361 0.547349 -0.062138
C36   C     C_R   0.443047 0.742083 0.453987 -0.047196
C37   C     C_R   0.578254 0.012618 0.479939 -0.122495
C38   C     C_R   0.419846 0.987843 0.520822 -0.111703
C39   C     C_R   0.576173 0.937224 0.476317 -0.139987
C40   C     C_R   0.422173 0.063138 0.524888 -0.181751
C41   C     C_R   0.496697 0.924072 0.496247 0.193260
C42   C     C_R   0.501238 0.076462 0.504206 0.159308
C43   C     C_R   0.777972 0.419760 0.489732 -0.141620
C44   C     C_R   0.221525 0.579636 0.489739 -0.143258
C45   C     C_R   0.929888 0.316366 0.474548 -0.202994
C46   C     C_R   0.070410 0.680501 0.463769 -0.200307
C47   C     C_R   0.834775 0.339117 0.486325 0.279410
C48   C     C_R   0.165112 0.659365 0.478936 0.279330
C49   C     C_R   0.817928 0.475005 0.480259 -0.272997
C50   C     C_R   0.180994 0.523871 0.486137 -0.256809
C51   C     C_R   0.911939 0.453085 0.465857 0.089914
C52   C     C_R   0.088088 0.543525 0.466809 0.098147
C53   C     C_R   0.968988 0.372498 0.465552 0.109102
C54   C     C_R   0.031532 0.623476 0.458006 0.109186
C55   C     C_R   0.951402 0.509869 0.456724 0.085859
C56   C     C_R   0.049220 0.485691 0.460001 0.081380
H1    H     H_    0.109283 0.287516 0.455919 0.157873
H2    H     H_    0.892505 0.706397 0.436276 0.153485
H3    H     H_    0.362011 0.506882 0.930689 0.189406
H4    H     H_    0.640846 0.492212 0.069408 0.188818
H5    H     H_    0.596833 0.276539 0.583486 0.194088
H6    H     H_    0.399854 0.723955 0.418703 0.196640
H7    H     H_    0.639707 0.021346 0.463201 0.167221
H8    H     H_    0.358445 0.979098 0.537659 0.167726
H9    H     H_    0.636734 0.888908 0.457960 0.145125
H10   H     H_    0.361951 0.111281 0.543918 0.147826
H11   H     H_    0.222796 0.464535 0.500358 0.185556
H12   H     H_    0.775046 0.535992 0.486911 0.196340
H13   H     H_    0.973657 0.254594 0.473530 0.179199
H14   H     H_    0.026990 0.741746 0.456660 0.178851
H15   H     H_    0.179200 0.382579 0.451054 0.184058
H16   H     H_    0.822700 0.610898 0.434409 0.149887
H17   H     H_    0.484135 0.620005 0.281441 0.175233
H18   H     H_    0.514521 0.380273 0.718518 0.175672
H19   H     H_    0.484076 0.618180 0.155009 0.166191
H20   H     H_    0.516106 0.381662 0.844944 0.166907
H21   H     H_    0.516169 0.376777 0.281084 0.188981
H22   H     H_    0.487441 0.622309 0.719015 0.186845
N1    N     N_R   0.499990 0.310560 0.500020 -0.148157
N2    N     N_R   0.500010 0.689440 0.499980 -0.136178
O1    O     O_R   0.500000 0.439160 0.601820 -0.636001
O2    O     O_R   0.500000 0.560840 0.398180 -0.637853
O3    O     O_R   0.500040 0.560780 0.601820 -0.576387
O4    O     O_R   0.499960 0.439220 0.398180 -0.579013
O5    O     O_R   0.632210 0.404460 0.499990 -0.577611
O6    O     O_R   0.367790 0.595540 0.500010 -0.577384
O7    O     O_R   0.632250 0.526070 0.500000 -0.593645
O8    O     O_R   0.367750 0.473930 0.500000 -0.598000
Zn1   Zn    Zn3+2 0.499970 0.418800 0.500000 1.010262
Zn2   Zn    Zn3+2 0.500030 0.581200 0.500000 1.010965
Br1   Br    Br    0.307456 0.508058 0.075866 -0.446173
Br2   Br    Br    0.695519 0.490790 0.924219 -0.446168
Br3   Br    Br    0.367667 0.360030 0.386301 -0.492818
Br4   Br    Br    0.636917 0.638394 0.610395 -0.518748
N3    N     N_3   0.389329 0.191419 0.404179 -0.397941
H23   H     H_    0.431957 0.141804 0.376913 0.219950
H24   H     H_    0.338812 0.178005 0.429883 0.199593
N4    N     N_3   0.614198 0.810637 0.590374 -0.421063
H25   H     H_    0.683538 0.774203 0.581942 0.223636
H26   H     H_    0.597141 0.803071 0.641159 0.236967
Br5   Br    Br    0.634044 0.112302 0.619001 -0.443070
Br6   Br    Br    0.358603 0.889278 0.384729 -0.461302
Br7   Br    Br    0.209818 0.742992 0.485375 -0.461471
Br8   Br    Br    0.790076 0.256525 0.499106 -0.460544
N5    N     N_3   0.518445 0.358505 0.144184 -0.431377
H27   H     H_    0.581183 0.314716 0.159918 0.194170
H28   H     H_    0.464371 0.341440 0.158379 0.230051
N6    N     N_3   0.486775 0.640127 0.855938 -0.431923
H29   H     H_    0.541295 0.656447 0.841395 0.227903
H30   H     H_    0.424310 0.684507 0.840582 0.193807

loop_
_geom_bond_atom_site_label_1
_geom_bond_atom_site_label_2
_ccdc_geom_bond_type
C38   C40   A    
C55   C56   A    
C49   H12   S    
C27   C29   A    
C6    H2    S    
C2    O4    A    
N3    H23   S    
C7    H17   S    
C51   C55   A    
N5    H28   S    
C1    C18   S    
C34   Br6   S    
C33   Br5   S    
C5    C53   A    
C31   C42   S    
C21   H3    S    
C27   N1    A    
C22   H4    S    
C20   C25   A    
C1    O1    A    
C23   C43   S    
N6    H29   S    
C7    C9    A    
C35   N1    A    
C37   C42   A    
C19   C26   A    
C10   H20   S    
C49   C51   A    
C50   C52   A    
C32   C41   S    
C31   C33   A    
C50   H11   S    
C34   C36   A    
O1    Zn1   S    
C40   C42   A    
C45   C53   A    
C23   O7    A    
C2    C17   S    
C39   H9    S    
C6    C54   A    
C36   H6    S    
C37   H7    S    
C52   C54   A    
C38   H8    S    
C45   C47   A    
C37   C39   A    
C46   C48   A    
N1    Zn1   S    
C45   H13   S    
C19   Br1   S    
C38   C41   A    
C4    C6    A    
O6    Zn2   S    
C29   N3    S    
O5    Zn1   S    
C43   C49   A    
C28   Br4   S    
C11   C26   S    
C7    C17   A    
C48   Br7   S    
C8    C18   A    
C51   C53   A    
C32   C34   A    
C3    H15   S    
C20   Br2   S    
C3    C56   A    
C46   C54   A    
C8    H18   S    
C35   H5    S    
C9    C11   A    
C10   C12   A    
C13   N5    S    
C12   C14   A    
N4    H26   S    
C13   C15   A    
C4    C55   A    
C36   N2    A    
C24   C44   S    
C14   C16   A    
C27   Br3   S    
O4    Zn1   S    
C4    H16   S    
C44   C50   A    
C15   C17   A    
O3    Zn2   S    
C21   C25   A    
C47   Br8   S    
C19   C21   A    
C24   O8    A    
C8    C10   A    
C20   C22   A    
C3    C5    A    
N3    H24   S    
C1    O3    A    
N5    H27   S    
C30   N4    S    
O2    Zn2   S    
C5    H1    S    
C12   C25   S    
C28   C30   A    
C23   O5    A    
C29   C31   A    
C30   C32   A    
C11   C13   A    
C15   H21   S    
C24   O6    A    
C14   N6    S    
C33   C35   A    
N6    H30   S    
C16   H22   S    
N2    Zn2   S    
C28   N2    A    
C46   H14   S    
C2    O2    A    
C44   C48   A    
O8    Zn1   S    
C39   C41   A    
C16   C18   A    
N4    H25   S    
C22   C26   A    
O7    Zn2   S    
C40   H10   S    
C9    H19   S    
C43   C47   A    
C52   C56   A    
