data_mof_unit_12929.cif
_audit_creation_date              2012-12-10T16:55:49-0500
_audit_creation_method            fapswitch 2.2
_symmetry_space_group_name_H-M    P1
_symmetry_Int_Tables_number       1
_space_group_crystal_system       triclinic
_cell_length_a                    7.831036
_cell_length_b                    8.553102
_cell_length_c                    10.482568
_cell_angle_alpha                 91.965036
_cell_angle_beta                  84.505082
_cell_angle_gamma                 93.582942
_cell_volume                      697.243036015

loop_
_atom_site_label
_atom_site_type_symbol
_atom_type_description
_atom_site_fract_x
_atom_site_fract_y
_atom_site_fract_z
_atom_type_partial_charge
C1    C     C_R   0.545501 0.794491 0.496802 0.954229
C2    C     C_3   0.498969 0.502184 0.876972 -0.007105
C3    C     C_3   0.388945 0.382527 0.046538 -0.265894
C4    C     C_3   0.611055 0.617473 0.953462 -0.265894
C5    C     C_2   0.569452 0.958040 0.494944 -0.385377
C6    C     C_2   0.430548 0.041960 0.505056 -0.385377
C7    C     C_R   0.454499 0.205509 0.503198 0.954228
C8    C     C_R   0.500058 0.501147 0.742216 0.873146
C9    C     C_R   0.499942 0.498853 0.257784 0.873148
C10   C     C_3   0.338318 0.523472 0.971440 -0.168029
C11   C     C_3   0.661682 0.476528 0.028560 -0.168029
C12   C     C_3   0.452032 0.635104 0.049164 0.146042
C13   C     C_3   0.547968 0.364895 0.950836 0.146042
C14   C     C_3   0.501031 0.497816 0.123028 -0.007104
H1    H     H_    0.208099 0.545927 0.945323 0.146291
H2    H     H_    0.498042 0.166637 0.845129 0.170788
H3    H     H_    0.000605 0.375174 0.290298 0.169331
H4    H     H_    0.974699 0.240575 0.404421 0.166491
H5    H     H_    0.999394 0.624825 0.709703 0.169332
H6    H     H_    0.025302 0.759424 0.595580 0.166490
H7    H     H_    0.791901 0.454073 0.054677 0.146291
H8    H     H_    0.302052 0.285775 0.087828 0.140106
H9    H     H_    0.697947 0.714225 0.912172 0.140106
H10   H     H_    0.700770 0.008816 0.485286 0.176323
H11   H     H_    0.299230 0.991184 0.514714 0.176323
H12   H     H_    0.379014 0.856879 0.035183 0.169765
H13   H     H_    0.501959 0.833364 0.154869 0.170788
H14   H     H_    0.620983 0.143120 0.964817 0.169765
N1    N     N_2   0.950320 0.457950 0.465730 -0.000250
N2    N     N_2   0.049680 0.542050 0.534270 -0.000250
N3    N     N_3   0.398559 0.782650 0.108901 -0.452952
N4    N     N_3   0.601441 0.217350 0.891099 -0.452952
N5    N     N_3   0.031566 0.351215 0.382106 -0.319640
N6    N     N_3   0.968434 0.648785 0.617894 -0.319640
O1    O     O_R   0.389250 0.738570 0.508410 -0.620600
O2    O     O_R   0.610750 0.261430 0.491590 -0.620600
O3    O     O_R   0.678390 0.711620 0.486450 -0.614899
O4    O     O_R   0.321610 0.288380 0.513550 -0.614899
O5    O     O_R   0.355460 0.513510 0.697030 -0.643204
O6    O     O_R   0.644540 0.486490 0.302970 -0.643204
O7    O     O_R   0.644600 0.486560 0.675070 -0.595847
O8    O     O_R   0.355400 0.513440 0.324930 -0.595847
Zn1   Zn    Zn3+2 0.306940 0.517990 0.514670 0.961285
Zn2   Zn    Zn3+2 0.693060 0.482010 0.485330 0.961285

loop_
_geom_bond_atom_site_label_1
_geom_bond_atom_site_label_2
_ccdc_geom_bond_type
C2    C4    S    
C9    C14   S    
C6    C7    S    
C8    O5    A    
H2    N4    S    
O1    Zn1   S    
C7    O2    A    
C13   N4    S    
C3    C13   S    
C1    O3    A    
H6    N6    S    
O3    Zn2   S    
H12   N3    S    
N1    Zn2   S    
C3    C10   S    
C4    C11   S    
C5    H10   S    
C9    O8    A    
N1    N2    D    
C3    C14   S    
H3    N5    S    
C1    C5    S    
C10   C12   S    
H14   N4    S    
O7    Zn2   S    
C7    O4    A    
C12   C14   S    
C10   H1    S    
C12   N3    S    
C5    C6    D    
C11   C14   S    
O4    Zn1   S    
N2    Zn1   S    
O2    Zn2   S    
C11   C13   S    
C4    C12   S    
H4    N5    S    
N2    N6    S    
H13   N3    S    
C6    H11   S    
N1    N5    S    
O6    Zn2   S    
C8    O7    A    
C1    O1    A    
O8    Zn1   S    
C2    C13   S    
C4    H9    S    
C3    H8    S    
O5    Zn1   S    
C11   H7    S    
C9    O6    A    
C2    C8    S    
H5    N6    S    
C2    C10   S    
