data_mof_unit_58936.cif
_audit_creation_date              2012-12-10T20:49:07-0500
_audit_creation_method            fapswitch 2.2
_symmetry_space_group_name_H-M    P1
_symmetry_Int_Tables_number       1
_space_group_crystal_system       triclinic
_cell_length_a                    8.92417
_cell_length_b                    8.121326
_cell_length_c                    10.576524
_cell_angle_alpha                 89.223033
_cell_angle_beta                  90.07268
_cell_angle_gamma                 89.972153
_cell_volume                      766.473953088

loop_
_atom_site_label
_atom_site_type_symbol
_atom_type_description
_atom_site_fract_x
_atom_site_fract_y
_atom_site_fract_z
_atom_type_partial_charge
C1    C     C_R   0.218073 0.500022 0.500085 0.951649
C2    C     C_3   0.631395 0.467681 0.050889 0.339576
C3    C     C_3   0.512639 0.495168 0.876495 -0.100409
C4    C     C_3   0.487361 0.504832 0.123505 -0.100409
C5    C     C_1   0.065225 0.500035 0.500027 -0.111094
C6    C     C_1   0.934775 0.499965 0.499973 -0.111093
C7    C     C_2   0.395559 0.820937 0.059687 0.421502
C8    C     C_2   0.604441 0.179063 0.940313 0.421502
C9    C     C_2   0.718348 0.736902 0.924628 0.460607
C10   C     C_2   0.281652 0.263097 0.075372 0.460608
C11   C     C_R   0.781927 0.499978 0.499915 0.951649
C12   C     C_R   0.490541 0.501433 0.257449 1.004386
C13   C     C_R   0.509459 0.498567 0.742551 1.004387
C14   C     C_3   0.454715 0.651909 0.033837 -0.137528
C15   C     C_3   0.545285 0.348091 0.966162 -0.137530
C16   C     C_3   0.600169 0.614099 0.961150 -0.196274
C17   C     C_3   0.399831 0.385901 0.038850 -0.196274
C18   C     C_3   0.368605 0.532319 0.949111 0.339575
H1    H     H_    0.158957 0.582257 0.960977 0.344786
H2    H     H_    0.841043 0.417742 0.039023 0.344786
H3    H     H_    0.382535 0.907857 0.981790 0.064649
H4    H     H_    0.617464 0.092143 0.018209 0.064650
H5    H     H_    0.768202 0.813252 0.996727 0.080191
H6    H     H_    0.231798 0.186748 0.003273 0.080190
N1    N     N_1   0.500000 0.073640 0.500000 0.017374
N2    N     N_1   0.500000 0.926360 0.500000 0.017374
O1    O     O_R   0.285350 0.636850 0.500000 -0.612134
O2    O     O_3   0.769229 0.434388 0.109168 -0.761212
O3    O     O_2   0.359770 0.861142 0.166097 -0.531094
O4    O     O_2   0.640232 0.138858 0.833903 -0.531094
O5    O     O_2   0.759946 0.750967 0.815139 -0.527131
O6    O     O_2   0.240055 0.249032 0.184861 -0.527131
O7    O     O_R   0.714650 0.363150 0.500000 -0.612134
O8    O     O_R   0.714650 0.636850 0.500000 -0.607369
O9    O     O_R   0.285350 0.363150 0.500000 -0.607369
O10   O     O_R   0.499970 0.636850 0.313950 -0.601857
O11   O     O_R   0.500030 0.363150 0.686050 -0.601858
O12   O     O_R   0.500030 0.636850 0.686050 -0.590970
O13   O     O_R   0.499970 0.363150 0.313950 -0.590970
O14   O     O_3   0.230771 0.565612 0.890832 -0.761212
Zn1   Zn    Zn3+2 0.500000 0.682780 0.500000 1.092353
Zn2   Zn    Zn3+2 0.500000 0.317220 0.500000 1.092353

loop_
_geom_bond_atom_site_label_1
_geom_bond_atom_site_label_2
_ccdc_geom_bond_type
N1    Zn2   S    
C8    H4    S    
C7    O3    D    
C12   O10   A    
C2    C16   S    
O1    Zn1   S    
C2    C4    S    
C3    C13   S    
C8    O4    D    
C12   O13   A    
C17   C18   S    
C13   O12   A    
C2    C15   S    
C18   O14   S    
O10   Zn1   S    
O8    Zn1   S    
O12   Zn1   S    
C1    C5    S    
C4    C17   S    
C9    C16   S    
O13   Zn2   S    
C6    C11   S    
C4    C14   S    
C5    C6    T    
C14   C16   S    
C4    C12   S    
H1    O14   S    
C9    O5    D    
C10   C17   S    
C10   O6    D    
C11   O7    A    
C3    C15   S    
C1    O9    A    
C3    C18   S    
C15   C17   S    
O11   Zn2   S    
C1    O1    A    
O9    Zn2   S    
O7    Zn2   S    
C9    H5    S    
C2    O2    S    
C8    C15   S    
H2    O2    S    
C10   H6    S    
N1    N2    T    
C7    H3    S    
C13   O11   A    
C14   C18   S    
C11   O8    A    
C7    C14   S    
C3    C16   S    
N2    Zn1   S    
