data_mof_unit_63757.cif
_audit_creation_date              2012-12-10T18:14:36-0500
_audit_creation_method            fapswitch 2.2
_symmetry_space_group_name_H-M    P1
_symmetry_Int_Tables_number       1
_space_group_crystal_system       triclinic
_cell_length_a                    18.340293
_cell_length_b                    18.319083
_cell_length_c                    36.314509
_cell_angle_alpha                 90.001181
_cell_angle_beta                  90.001475
_cell_angle_gamma                 89.974456
_cell_volume                      12200.8512707

loop_
_atom_site_label
_atom_site_type_symbol
_atom_type_description
_atom_site_fract_x
_atom_site_fract_y
_atom_site_fract_z
_atom_type_partial_charge
C1    C     C_R   0.566629 0.998200 0.480606 -0.023204
C2    C     C_R   0.933350 0.499426 0.019393 -0.023274
C3    C     C_R   0.803568 0.696245 0.749984 0.057647
C4    C     C_R   0.696369 0.196422 0.249975 0.056583
C5    C     C_R   0.304078 0.803799 0.750016 0.065862
C6    C     C_R   0.803965 0.696056 0.250031 0.067064
C7    C     C_R   0.195923 0.303813 0.749984 0.066153
C8    C     C_R   0.303567 0.196244 0.750014 0.057715
C9    C     C_R   0.696310 0.803613 0.249972 0.058347
C10   C     C_R   0.196444 0.696244 0.749983 0.057400
C11   C     C_R   0.803997 0.303969 0.250028 0.065875
C12   C     C_R   0.695920 0.803810 0.750016 0.066166
C13   C     C_R   0.494998 0.066543 0.980607 -0.023164
C14   C     C_R   0.303676 0.196373 0.249965 0.058387
C15   C     C_R   0.804081 0.303795 0.749984 0.065906
C16   C     C_R   0.195993 0.696032 0.250031 0.065694
C17   C     C_1   0.135144 0.501130 0.039411 0.220564
C18   C     C_1   0.864856 0.498846 0.960589 0.220529
C19   C     C_1   0.489846 0.134923 0.039412 0.220441
C20   C     C_1   0.510165 0.865078 0.960589 0.220634
C21   C     C_1   0.864849 0.498846 0.039400 0.220555
C22   C     C_1   0.135151 0.501133 0.960600 0.220531
C23   C     C_1   0.510170 0.865073 0.039404 0.220436
C24   C     C_R   0.505017 0.933459 0.019393 -0.023174
C25   C     C_1   0.489849 0.134929 0.960597 0.220448
C26   C     C_1   0.635107 0.996349 0.539410 0.220553
C27   C     C_1   0.364894 0.003656 0.460589 0.220456
C28   C     C_1   0.997062 0.635280 0.539409 0.220439
C29   C     C_1   0.002926 0.364721 0.460591 0.220543
C30   C     C_1   0.364887 0.003653 0.539399 0.220551
C31   C     C_1   0.635114 0.996347 0.460600 0.220448
C32   C     C_1   0.002923 0.364716 0.539401 0.220615
C33   C     C_1   0.997058 0.635285 0.460599 0.220568
C34   C     C_3   0.283025 0.604156 0.279831 -0.380051
C35   C     C_R   0.933354 0.499426 0.980601 -0.023231
C36   C     C_3   0.718498 0.394303 0.718109 -0.383166
C37   C     C_3   0.394226 0.278199 0.282318 -0.385006
C38   C     C_3   0.605803 0.718097 0.718030 -0.380858
C39   C     C_3   0.717427 0.395403 0.280516 -0.380193
C40   C     C_3   0.281289 0.602244 0.722182 -0.384927
C41   C     C_3   0.605665 0.721693 0.282220 -0.384962
C42   C     C_3   0.396857 0.281092 0.721836 -0.383839
C43   C     C_3   0.281257 0.394122 0.717854 -0.383126
C44   C     C_3   0.720979 0.608081 0.285209 -0.381166
C45   C     C_3   0.394365 0.717866 0.718250 -0.380937
C46   C     C_R   0.066646 0.500553 0.019399 -0.023272
C47   C     C_3   0.601548 0.282929 0.275621 -0.383209
C48   C     C_3   0.718938 0.602419 0.721933 -0.384938
C49   C     C_3   0.278916 0.391820 0.285298 -0.381202
C50   C     C_3   0.602935 0.281361 0.722165 -0.383809
C51   C     C_3   0.398992 0.716447 0.274577 -0.382968
C52   C     C_3   0.781195 0.102326 0.777956 -0.384979
C53   C     C_3   0.216719 0.899155 0.225366 -0.382986
C54   C     C_3   0.896940 0.781185 0.778030 -0.383794
C55   C     C_3   0.108297 0.220803 0.214774 -0.381230
C56   C     C_3   0.218474 0.894337 0.781852 -0.383184
C57   C     C_R   0.505016 0.933462 0.980603 -0.023223
C58   C     C_3   0.782692 0.101369 0.224377 -0.383228
C59   C     C_3   0.105870 0.218167 0.782056 -0.380879
C60   C     C_3   0.891754 0.779240 0.214862 -0.381219
C61   C     C_3   0.778011 0.894425 0.217700 -0.384925
C62   C     C_3   0.219010 0.102489 0.778170 -0.384969
C63   C     C_3   0.895219 0.217186 0.219538 -0.380208
C64   C     C_3   0.102904 0.781403 0.777777 -0.383797
C65   C     C_3   0.222120 0.105671 0.217535 -0.385062
C66   C     C_3   0.781322 0.894191 0.782054 -0.383030
C67   C     C_3   0.104304 0.783289 0.220254 -0.380093
C68   C     C_R   0.494997 0.066540 0.019398 -0.023150
C69   C     C_3   0.894345 0.217894 0.781792 -0.380936
C70   C     C_1   0.500007 0.000001 0.421429 -0.027830
C71   C     C_1   0.499993 0.000000 0.578570 -0.027661
C72   C     C_1   0.999996 0.500005 0.421434 -0.027630
C73   C     C_R   0.433371 0.001802 0.519394 -0.023230
C74   C     C_1   0.999996 0.499996 0.578566 -0.027699
C75   C     C_1   0.000007 0.499994 0.921428 -0.027644
C76   C     C_1   0.999993 0.499993 0.078572 -0.027576
C77   C     C_1   0.500004 0.000006 0.921434 -0.027657
C78   C     C_1   0.500005 0.999996 0.078566 -0.027822
C79   C     C_1   0.999995 0.499996 0.111696 0.031360
C80   C     C_1   0.000005 0.499997 0.888304 0.030905
C81   C     C_1   0.500002 0.999997 0.111688 0.030199
C82   C     C_1   0.500002 0.000004 0.888312 0.030818
C83   C     C_1   0.499995 0.000000 0.611696 0.030894
C84   C     C_R   0.998547 0.566715 0.480606 -0.023256
C85   C     C_1   0.500005 0.000001 0.388304 0.030281
C86   C     C_1   0.999998 0.499997 0.611688 0.030790
C87   C     C_1   0.999997 0.500004 0.388312 0.031237
C88   C     C_R   1.000000 0.500001 0.348953 0.507238
C89   C     C_R   1.000000 0.499999 0.651047 0.507608
C90   C     C_R   0.500001 0.000000 0.348940 0.507262
C91   C     C_R   0.499999 1.000000 0.651060 0.507304
C92   C     C_R   0.500000 0.000001 0.848952 0.507629
C93   C     C_R   0.500000 0.999999 0.151048 0.507634
C94   C     C_R   0.000001 0.499999 0.848941 0.507303
C95   C     C_R   0.001438 0.433286 0.519393 -0.023260
C96   C     C_R   0.999999 0.499999 0.151059 0.506885
C97   C     C_R   0.139947 0.360024 0.250008 0.496543
C98   C     C_R   0.859931 0.639997 0.749971 0.500195
C99   C     C_R   0.640047 0.140073 0.249992 0.500724
C100  C     C_R   0.360104 0.859951 0.749973 0.496675
C101  C     C_R   0.860039 0.639963 0.250016 0.496554
C102  C     C_R   0.139894 0.359961 0.750024 0.496713
C103  C     C_R   0.359952 0.859925 0.249992 0.500853
C104  C     C_R   0.640078 0.140000 0.750033 0.500205
C105  C     C_R   0.140080 0.639999 0.749969 0.500244
C106  C     C_R   0.433374 0.001803 0.480600 -0.023201
C107  C     C_R   0.860048 0.360036 0.250012 0.496362
C108  C     C_R   0.639891 0.859960 0.749975 0.496732
C109  C     C_R   0.359975 0.140043 0.249988 0.500208
C110  C     C_R   0.860106 0.359949 0.750027 0.496701
C111  C     C_R   0.139948 0.639964 0.250012 0.496337
C112  C     C_R   0.359931 0.139997 0.750029 0.500217
C113  C     C_R   0.640017 0.859948 0.249993 0.500274
C114  C     C_R   0.266402 0.678821 0.263510 0.003888
C115  C     C_R   0.734443 0.320258 0.735308 0.003985
C116  C     C_R   0.319116 0.264971 0.265874 -0.001890
C117  C     C_R   0.566626 0.998200 0.519399 -0.023231
C118  C     C_R   0.679633 0.734041 0.735323 0.003918
C119  C     C_R   0.733823 0.320944 0.263898 0.003914
C120  C     C_R   0.266488 0.679086 0.736316 -0.001609
C121  C     C_R   0.680813 0.734965 0.265820 -0.001864
C122  C     C_R   0.320283 0.266208 0.736032 -0.001871
C123  C     C_R   0.265451 0.320172 0.735174 0.004037
C124  C     C_R   0.735581 0.680888 0.266460 0.003902
C125  C     C_R   0.320455 0.733933 0.735439 0.003820
C126  C     C_R   0.678922 0.267102 0.262812 -0.002200
C127  C     C_R   0.733618 0.679179 0.736192 -0.001511
C128  C     C_R   0.001439 0.433288 0.480603 -0.023288
C129  C     C_R   0.264353 0.319051 0.266511 0.003909
C130  C     C_R   0.679622 0.266318 0.736184 -0.001975
C131  C     C_R   0.321329 0.732621 0.262338 -0.002308
C132  C     C_R   0.766452 0.179120 0.763742 -0.001615
C133  C     C_R   0.232759 0.821398 0.237629 -0.002285
C134  C     C_R   0.820320 0.766248 0.763908 -0.001890
C135  C     C_R   0.181011 0.235514 0.233510 0.003862
C136  C     C_R   0.234427 0.820279 0.764668 0.003967
C137  C     C_R   0.766965 0.178855 0.237166 -0.002203
C138  C     C_R   0.179668 0.234075 0.764722 0.003911
C139  C     C_R   0.998548 0.566713 0.519397 -0.023201
C140  C     C_R   0.819008 0.764502 0.233564 0.003894
C141  C     C_R   0.764871 0.819211 0.234137 -0.001818
C142  C     C_R   0.233652 0.179213 0.763857 -0.001481
C143  C     C_R   0.820847 0.233716 0.236129 0.003868
C144  C     C_R   0.179606 0.766340 0.763788 -0.001962
C145  C     C_R   0.235165 0.180818 0.234068 -0.001840
C146  C     C_R   0.765482 0.820205 0.764778 0.004076
C147  C     C_R   0.178904 0.766520 0.236523 0.003845
C148  C     C_R   0.820436 0.233952 0.764596 0.003831
C149  C     C_R   0.500004 0.000002 0.461257 -0.018443
C150  C     C_R   0.066649 0.500553 0.980607 -0.023229
C151  C     C_R   0.499996 0.000001 0.538742 -0.018475
C152  C     C_R   0.999993 0.500003 0.461261 -0.018491
C153  C     C_R   0.999994 0.499998 0.538739 -0.018435
C154  C     C_R   0.000004 0.499991 0.961258 -0.018440
C155  C     C_R   0.999996 0.499990 0.038741 -0.018499
C156  C     C_R   0.500006 0.000004 0.961261 -0.018445
C157  C     C_R   0.500007 0.999998 0.038739 -0.018408
C158  C     C_R   0.303625 0.803574 0.249971 0.056305
C159  C     C_R   0.696439 0.196247 0.750025 0.057395
C160  C     C_R   0.196012 0.303924 0.250027 0.067111
H1    H     H_    0.303769 0.610574 0.308373 0.127215
H2    H     H_    0.613376 0.699796 0.689134 0.129094
H3    H     H_    0.577385 0.675043 0.734056 0.133304
H4    H     H_    0.568822 0.765721 0.716634 0.131281
H5    H     H_    0.697543 0.388653 0.309193 0.127633
H6    H     H_    0.765131 0.432120 0.282403 0.132291
H7    H     H_    0.675476 0.423781 0.263737 0.134888
H8    H     H_    0.336564 0.593611 0.710878 0.119079
H9    H     H_    0.274817 0.562549 0.745023 0.155936
H10   H     H_    0.242032 0.588641 0.699935 0.126929
H11   H     H_    0.597989 0.667312 0.294824 0.120751
H12   H     H_    0.235235 0.567618 0.282016 0.132492
H13   H     H_    0.594373 0.762825 0.303949 0.131213
H14   H     H_    0.564078 0.726711 0.260232 0.145542
H15   H     H_    0.405164 0.336060 0.710034 0.119904
H16   H     H_    0.435972 0.275704 0.744925 0.150114
H17   H     H_    0.411033 0.241079 0.700002 0.128946
H18   H     H_    0.299123 0.386529 0.688894 0.130257
H19   H     H_    0.233812 0.431375 0.716651 0.132392
H20   H     H_    0.324572 0.422427 0.733733 0.131123
H21   H     H_    0.705726 0.617400 0.314420 0.131137
H22   H     H_    0.676190 0.579089 0.270748 0.131079
H23   H     H_    0.324365 0.575789 0.262669 0.135408
H24   H     H_    0.768340 0.570686 0.285811 0.130132
H25   H     H_    0.386921 0.699386 0.689376 0.128826
H26   H     H_    0.431315 0.765473 0.716816 0.131430
H27   H     H_    0.422747 0.674904 0.734375 0.133477
H28   H     H_    0.592786 0.338350 0.286799 0.119011
H29   H     H_    0.563863 0.277082 0.251946 0.153616
H30   H     H_    0.585720 0.243789 0.297560 0.127216
H31   H     H_    0.663737 0.593873 0.710531 0.119148
H32   H     H_    0.758337 0.588911 0.699729 0.127156
H33   H     H_    0.725302 0.562610 0.744734 0.155591
H34   H     H_    0.700378 0.386868 0.689179 0.129947
H35   H     H_    0.294137 0.382447 0.314510 0.131234
H36   H     H_    0.323721 0.420838 0.270863 0.130959
H37   H     H_    0.231549 0.429207 0.285902 0.130078
H38   H     H_    0.594562 0.336369 0.710412 0.119823
H39   H     H_    0.588530 0.241429 0.700338 0.128704
H40   H     H_    0.564025 0.275996 0.745342 0.150437
H41   H     H_    0.407938 0.660811 0.285434 0.118782
H42   H     H_    0.436085 0.722623 0.250685 0.154724
H43   H     H_    0.415439 0.755164 0.296592 0.126796
H44   H     H_    0.836424 0.093732 0.789325 0.119129
H45   H     H_    0.675322 0.422580 0.734116 0.131327
H46   H     H_    0.741856 0.088807 0.800178 0.126954
H47   H     H_    0.774794 0.062553 0.755143 0.155757
H48   H     H_    0.161195 0.908164 0.214459 0.118773
H49   H     H_    0.222855 0.936275 0.249267 0.154823
H50   H     H_    0.255473 0.915573 0.203381 0.126748
H51   H     H_    0.905275 0.836183 0.789794 0.119874
H52   H     H_    0.911208 0.741223 0.799873 0.128871
H53   H     H_    0.935973 0.775764 0.754909 0.150238
H54   H     H_    0.117596 0.205767 0.185530 0.131191
H55   H     H_    0.079520 0.175762 0.229170 0.131087
H56   H     H_    0.765939 0.431502 0.716839 0.132476
H57   H     H_    0.070775 0.268088 0.214287 0.130189
H58   H     H_    0.200309 0.886921 0.810775 0.129884
H59   H     H_    0.265924 0.931523 0.783141 0.132469
H60   H     H_    0.175330 0.922618 0.765824 0.131387
H61   H     H_    0.838008 0.092535 0.213159 0.118978
H62   H     H_    0.776907 0.063727 0.248087 0.153694
H63   H     H_    0.743525 0.085487 0.202477 0.127165
H64   H     H_    0.113499 0.199938 0.810960 0.129171
H65   H     H_    0.068886 0.265791 0.783436 0.131237
H66   H     H_    0.077429 0.175072 0.766068 0.133268
H67   H     H_    0.401869 0.332525 0.294979 0.120790
H68   H     H_    0.882502 0.794398 0.185632 0.131178
H69   H     H_    0.920559 0.824200 0.229311 0.131022
H70   H     H_    0.929235 0.731923 0.214329 0.130172
H71   H     H_    0.832273 0.902150 0.205043 0.120749
H72   H     H_    0.736839 0.905682 0.196007 0.131323
H73   H     H_    0.773040 0.936043 0.239692 0.145569
H74   H     H_    0.163824 0.093958 0.789591 0.119190
H75   H     H_    0.225363 0.062622 0.755392 0.155448
H76   H     H_    0.258440 0.089053 0.800372 0.127310
H77   H     H_    0.888479 0.197396 0.190839 0.127645
H78   H     H_    0.405498 0.236969 0.304002 0.131267
H79   H     H_    0.932026 0.264853 0.217718 0.132386
H80   H     H_    0.923431 0.175057 0.236292 0.134903
H81   H     H_    0.094516 0.836433 0.789501 0.119819
H82   H     H_    0.064019 0.775993 0.754591 0.150502
H83   H     H_    0.088483 0.741510 0.799618 0.128703
H84   H     H_    0.167875 0.097955 0.204863 0.120833
H85   H     H_    0.263327 0.094589 0.195836 0.131473
H86   H     H_    0.227148 0.063943 0.239469 0.145350
H87   H     H_    0.799356 0.886659 0.810992 0.130249
H88   H     H_    0.824526 0.922511 0.766105 0.131173
H89   H     H_    0.435818 0.273270 0.260331 0.145558
H90   H     H_    0.733849 0.931398 0.783316 0.132412
H91   H     H_    0.110660 0.803927 0.191686 0.127204
H92   H     H_    0.067665 0.735539 0.218153 0.132595
H93   H     H_    0.076139 0.824816 0.237403 0.135418
H94   H     H_    0.886907 0.199554 0.810689 0.128827
H95   H     H_    0.922674 0.174830 0.765712 0.133467
H96   H     H_    0.931349 0.265466 0.783162 0.131468
N1    N     N_1   0.189744 0.501590 0.055386 -0.250342
N2    N     N_1   0.310309 0.005133 0.444620 -0.251072
N3    N     N_1   0.995878 0.689934 0.555380 -0.251145
N4    N     N_1   0.004111 0.310067 0.444620 -0.250316
N5    N     N_1   0.310297 0.005127 0.555363 -0.250685
N6    N     N_1   0.689704 0.994871 0.444636 -0.251054
N7    N     N_1   0.004106 0.310058 0.555368 -0.250203
N8    N     N_1   0.995872 0.689943 0.444632 -0.250348
N9    N     N_1   0.810256 0.498383 0.944614 -0.250699
N10   N     N_1   0.485740 0.189429 0.055391 -0.251231
N11   N     N_1   0.514270 0.810572 0.944609 -0.250356
N12   N     N_1   0.810244 0.498384 0.055369 -0.250337
N13   N     N_1   0.189756 0.501595 0.944631 -0.250696
N14   N     N_1   0.514278 0.810563 0.055380 -0.251217
N15   N     N_1   0.485745 0.189439 0.944621 -0.251296
N16   N     N_1   0.689692 0.994874 0.555380 -0.250685
O1    O     O_3   0.000000 0.500000 0.250000 -0.450639
O2    O     O_R   0.000000 0.560700 0.668450 -0.528941
O3    O     O_R   0.560700 1.000000 0.331550 -0.528630
O4    O     O_R   0.439300 0.000000 0.668450 -0.528302
O5    O     O_R   0.500000 0.060700 0.831550 -0.528968
O6    O     O_R   0.500000 0.939300 0.168450 -0.528595
O7    O     O_R   0.939300 0.500000 0.831550 -0.528277
O8    O     O_R   0.060700 0.500000 0.168450 -0.528204
O9    O     O_R   0.500000 0.939300 0.831550 -0.527665
O10   O     O_R   0.500000 0.060700 0.168450 -0.528613
O11   O     O_R   0.060700 0.500000 0.831550 -0.528286
O12   O     O_3   0.000000 0.500000 0.750000 -0.447449
O13   O     O_R   0.939300 0.500000 0.168450 -0.528221
O14   O     O_R   0.085400 0.353840 0.271430 -0.538476
O15   O     O_R   0.914600 0.646160 0.728570 -0.542993
O16   O     O_R   0.646160 0.085400 0.271430 -0.542735
O17   O     O_R   0.353840 0.914600 0.728570 -0.540327
O18   O     O_R   0.914600 0.646160 0.271430 -0.538544
O19   O     O_R   0.085400 0.353840 0.728570 -0.538222
O20   O     O_R   0.353840 0.914600 0.271430 -0.542914
O21   O     O_R   0.646160 0.085400 0.728570 -0.541679
O22   O     O_R   0.085400 0.646160 0.728570 -0.543061
O23   O     O_3   0.500000 0.000000 0.250000 -0.444626
O24   O     O_R   0.914600 0.353840 0.271430 -0.538710
O25   O     O_R   0.646160 0.914600 0.728570 -0.540292
O26   O     O_R   0.353840 0.085400 0.271430 -0.542193
O27   O     O_R   0.914600 0.353840 0.728570 -0.538318
O28   O     O_R   0.085400 0.646160 0.271430 -0.538806
O29   O     O_R   0.353840 0.085400 0.728570 -0.541643
O30   O     O_R   0.646160 0.914600 0.271430 -0.542096
O31   O     O_R   0.585400 0.853840 0.771430 -0.538164
O32   O     O_R   0.414600 0.146160 0.228570 -0.542242
O33   O     O_R   0.146160 0.585400 0.771430 -0.541708
O34   O     O_3   0.500000 0.000000 0.750000 -0.447455
O35   O     O_R   0.853840 0.414600 0.228570 -0.538414
O36   O     O_R   0.414600 0.146160 0.771430 -0.542880
O37   O     O_R   0.585400 0.853840 0.228570 -0.542353
O38   O     O_R   0.853840 0.414600 0.771430 -0.540306
O39   O     O_R   0.146160 0.585400 0.228570 -0.538451
O40   O     O_R   0.585400 0.146160 0.228570 -0.543008
O41   O     O_R   0.414600 0.853840 0.771430 -0.538392
O42   O     O_R   0.146160 0.414600 0.228570 -0.538272
O43   O     O_R   0.853840 0.585400 0.771430 -0.541671
O44   O     O_R   0.414600 0.853840 0.228570 -0.543245
O45   O     O_R   0.000000 0.560700 0.331550 -0.528197
O46   O     O_R   0.585400 0.146160 0.771430 -0.543141
O47   O     O_R   0.853840 0.585400 0.228570 -0.538215
O48   O     O_R   0.146160 0.414600 0.771430 -0.540331
O49   O     O_R   0.000000 0.439300 0.668450 -0.527665
O50   O     O_R   0.439300 1.000000 0.331550 -0.528604
O51   O     O_R   0.560700 0.000000 0.668450 -0.528286
O52   O     O_R   0.000000 0.439300 0.331550 -0.528200
Zn1   Zn    Zn3+2 0.086700 0.500000 0.219560 0.940282
Zn2   Zn    Zn3+2 0.413300 0.000000 0.280440 0.937543
Zn3   Zn    Zn3+2 1.000000 0.586700 0.719560 0.935945
Zn4   Zn    Zn3+2 0.000000 0.413300 0.280440 0.940338
Zn5   Zn    Zn3+2 0.413300 1.000000 0.719560 0.938566
Zn6   Zn    Zn3+2 0.586700 0.000000 0.280440 0.937679
Zn7   Zn    Zn3+2 0.000000 0.413300 0.719560 0.942103
Zn8   Zn    Zn3+2 0.000000 0.586700 0.280440 0.940242
Zn9   Zn    Zn3+2 0.913300 0.500000 0.780440 0.938571
Zn10  Zn    Zn3+2 0.500000 0.086700 0.219560 0.937698
Zn11  Zn    Zn3+2 0.500000 0.913300 0.780440 0.942083
Zn12  Zn    Zn3+2 0.913300 0.500000 0.219560 0.940353
Zn13  Zn    Zn3+2 0.086700 0.500000 0.780440 0.938554
Zn14  Zn    Zn3+2 0.500000 0.913300 0.219560 0.937545
Zn15  Zn    Zn3+2 0.500000 0.086700 0.780440 0.935950
Zn16  Zn    Zn3+2 0.586700 1.000000 0.719560 0.938569

loop_
_geom_bond_atom_site_label_1
_geom_bond_atom_site_label_2
_ccdc_geom_bond_type
C5    C136  A    
C41   H14   S    
C22   C150  S    
C62   H74   S    
C14   C109  S    
O41   Zn11  S    
C41   C121  S    
C26   C117  S    
O31   Zn11  S    
C34   H1    S    
C55   H54   S    
C56   H58   S    
C100  O41   A    
C50   H38   S    
O34   Zn16  S    
C66   H88   S    
C46   C155  A    
C77   C156  S    
C63   H79   S    
C54   C134  S    
C133  C158  A    
O32   Zn10  S    
C7    C102  S    
C69   H94   S    
C9    C121  A    
C76   C79   T    
O21   Zn16  S    
C90   O50   A    
C20   N11   T    
C40   H9    S    
C134  C146  A    
C65   H84   S    
C43   H20   S    
C60   H69   S    
C52   C132  S    
C53   C133  S    
C140  C141  A    
C55   H57   S    
C12   C108  S    
C51   C131  S    
C107  O24   A    
C64   H81   S    
C49   H35   S    
C104  O21   A    
C113  O37   A    
C130  C159  A    
C95   C153  A    
C39   H5    S    
O36   Zn15  S    
C18   N9    T    
C5    C100  S    
C112  O36   A    
C28   N3    T    
C96   O13   A    
C19   C68   S    
C19   N10   T    
C67   C147  S    
C15   C115  A    
C104  C159  S    
C56   H60   S    
C47   C126  S    
O22   Zn3   S    
C9    C141  A    
O3    Zn6   S    
C7    C123  A    
C63   H77   S    
C85   C90   S    
O42   Zn1   S    
C83   C91   S    
C76   C155  S    
O49   Zn7   S    
C79   C96   S    
C42   H16   S    
C48   C127  S    
C3    C98   S    
C45   H25   S    
C77   C82   T    
O23   Zn2   S    
C36   H34   S    
C66   C146  S    
C59   H64   S    
C119  C126  A    
C111  O28   A    
C11   C143  A    
C44   H21   S    
C16   C111  S    
C102  O19   A    
O46   Zn15  S    
C66   H90   S    
C23   N14   T    
C48   H33   S    
C61   H73   S    
C97   O14   A    
O43   Zn9   S    
O40   Zn10  S    
C64   H83   S    
C49   H37   S    
C99   O16   A    
C41   H11   S    
C33   N8    T    
O19   Zn7   S    
O6    Zn14  S    
C91   O4    A    
C55   H55   S    
C15   C148  A    
C1    C31   S    
C61   H72   S    
C110  O38   A    
O29   Zn5   S    
O23   Zn6   S    
C59   H66   S    
C48   H31   S    
C4    C137  A    
O44   Zn14  S    
C95   C128  A    
C128  C152  A    
O5    Zn15  S    
C113  O30   A    
C23   C24   S    
C133  C147  A    
C18   C35   S    
C51   H42   S    
C54   H52   S    
C109  O32   A    
O51   Zn16  S    
C99   O40   A    
C28   C139  S    
C62   C142  S    
C93   O10   A    
C56   C136  S    
C58   H61   S    
O8    Zn1   S    
C71   C83   T    
C57   C156  A    
C132  C159  A    
O11   Zn13  S    
O34   Zn5   S    
C24   C157  A    
C45   H27   S    
C1    C117  A    
C59   C138  S    
C72   C152  S    
C60   H68   S    
C13   C156  A    
C34   H23   S    
C117  C151  A    
C10   C144  A    
O7    Zn9   S    
C25   N15   T    
C60   C140  S    
C26   N16   T    
C22   N13   T    
C61   C141  S    
C38   H3    S    
C97   O42   A    
C118  C127  A    
C17   N1    T    
C43   C123  S    
C72   C87   T    
C98   O15   A    
C41   H13   S    
C62   H75   S    
O12   Zn13  S    
O9    Zn11  S    
C16   C114  A    
C50   H39   S    
C4    C126  A    
C35   C154  A    
C9    C113  S    
C47   H30   S    
C36   H56   S    
C8    C122  A    
C37   H78   S    
O50   Zn2   S    
O13   Zn12  S    
C39   C119  S    
O15   Zn3   S    
O4    Zn5   S    
C27   C106  S    
C32   C95   S    
C109  O26   A    
O1    Zn4   S    
C4    C99   S    
C5    C125  A    
C63   C143  S    
C70   C85   T    
C129  C160  A    
C69   H96   S    
C94   O11   A    
C13   C68   A    
C2    C35   A    
C87   C88   S    
C52   H47   S    
C114  C131  A    
C65   H86   S    
O34   Zn11  S    
C40   H10   S    
C43   H18   S    
C14   C145  A    
C43   H19   S    
C16   C147  A    
C60   H70   S    
C8    C112  S    
O16   Zn6   S    
C64   H82   S    
C139  C153  A    
C53   H48   S    
C82   C92   S    
O35   Zn12  S    
C101  O18   A    
C21   N12   T    
C71   C151  S    
C84   C139  A    
C135  C145  A    
O1    Zn8   S    
C1    C149  A    
C98   O43   A    
C91   O51   A    
C66   H87   S    
O38   Zn9   S    
C67   H92   S    
C111  O39   A    
C15   C110  S    
C70   C149  S    
C51   H43   S    
O34   Zn15  S    
O47   Zn12  S    
O27   Zn7   S    
O23   Zn10  S    
C138  C142  A    
C63   H80   S    
C37   C116  S    
C107  O35   A    
C108  O25   A    
O25   Zn16  S    
C44   C124  S    
O37   Zn14  S    
C52   H44   S    
C96   O8    A    
C32   N7    T    
C97   C160  S    
C100  O17   A    
O52   Zn4   S    
C110  O27   A    
C2    C21   S    
C112  O29   A    
C105  O22   A    
C93   O6    A    
O39   Zn1   S    
C12   C118  A    
O17   Zn5   S    
C40   C120  S    
C89   O2    A    
O12   Zn3   S    
C80   C94   S    
C68   C157  A    
C44   H22   S    
C34   H12   S    
C24   C57   A    
O2    Zn3   S    
C27   N2    T    
C65   H85   S    
C135  C160  A    
O24   Zn4   S    
C120  C125  A    
O23   Zn14  S    
C86   C89   S    
C7    C138  A    
O14   Zn4   S    
C103  C158  S    
C49   H36   S    
C30   N5    T    
C104  O46   A    
C3    C134  A    
C39   H6    S    
C136  C144  A    
C78   C81   T    
C103  O20   A    
C61   H71   S    
C3    C127  A    
C36   H45   S    
C6    C140  A    
C59   H65   S    
C33   C84   S    
O48   Zn13  S    
C48   H32   S    
C10   C120  A    
C38   C118  S    
C108  O31   A    
C37   H67   S    
C53   H49   S    
C69   C148  S    
C8    C142  A    
O12   Zn7   S    
C56   H59   S    
C51   H41   S    
C101  O47   A    
C54   H53   S    
C102  O48   A    
O1    Zn1   S    
C2    C155  A    
C131  C158  A    
C6    C124  A    
C11   C119  A    
C58   H62   S    
O10   Zn10  S    
C31   N6    T    
C52   H46   S    
C42   H15   S    
C58   H63   S    
C55   C135  S    
C45   H26   S    
C42   H17   S    
C12   C146  A    
O26   Zn2   S    
C6    C101  S    
O33   Zn13  S    
C92   O5    A    
O28   Zn8   S    
C121  C124  A    
C50   C130  S    
C94   O7    A    
C116  C129  A    
C45   C125  S    
C90   O3    A    
C75   C80   T    
C44   H24   S    
C38   H4    S    
C137  C143  A    
C106  C149  A    
C73   C151  A    
C13   C25   S    
O20   Zn2   S    
C67   H93   S    
O45   Zn8   S    
C29   N4    T    
C62   H76   S    
C132  C148  A    
C17   C46   S    
C30   C73   S    
C50   H40   S    
C53   H50   S    
C64   C144  S    
C49   C129  S    
O1    Zn12  S    
C103  O44   A    
C74   C153  S    
O30   Zn6   S    
C47   H29   S    
C92   O9    A    
C81   C93   S    
C78   C157  S    
C74   C86   T    
O12   Zn9   S    
C84   C152  A    
C58   C137  S    
C54   H51   S    
C46   C150  A    
C11   C107  S    
C88   O45   A    
C65   C145  S    
C42   C122  S    
C88   O52   A    
C34   C114  S    
C89   O49   A    
C47   H28   S    
C69   H95   S    
C75   C154  S    
C73   C106  A    
C37   H89   S    
C14   C116  A    
C39   H7    S    
C40   H8    S    
C38   H2    S    
C150  C154  A    
C29   C128  S    
O18   Zn8   S    
C122  C123  A    
C10   C105  S    
C20   C57   S    
C36   C115  S    
C115  C130  A    
C105  O33   A    
C67   H91   S    
