data_mof_unit_16047.cif
_audit_creation_date              2012-12-10T18:20:41-0500
_audit_creation_method            fapswitch 2.2
_symmetry_space_group_name_H-M    P1
_symmetry_Int_Tables_number       1
_space_group_crystal_system       triclinic
_cell_length_a                    15.830578
_cell_length_b                    10.616342
_cell_length_c                    9.45226
_cell_angle_alpha                 90.252443
_cell_angle_beta                  90.446255
_cell_angle_gamma                 90.062004
_cell_volume                      1588.50897449

loop_
_atom_site_label
_atom_site_type_symbol
_atom_type_description
_atom_site_fract_x
_atom_site_fract_y
_atom_site_fract_z
_atom_type_partial_charge
C1    C     C_R   0.500355 0.259507 0.499585 0.773084
C2    C     C_R   0.499645 0.740493 0.500415 0.773084
C3    C     C_3   0.573808 0.957134 0.449955 -0.171932
C4    C     C_3   0.426192 0.042865 0.550045 -0.171933
C5    C     C_3   0.499491 0.877519 0.501303 0.036026
C6    C     C_3   0.500509 0.122481 0.498697 0.036026
C7    C     C_3   0.489446 0.960312 0.633490 -0.144201
C8    C     C_3   0.510553 0.039688 0.366510 -0.144201
C9    C     C_3   0.506550 0.613644 0.051496 -0.099672
C10   C     C_3   0.493450 0.386356 0.948504 -0.099672
C11   C     C_3   0.437407 0.565535 0.948265 -0.092310
C12   C     C_3   0.562593 0.434465 0.051735 -0.092310
C13   C     C_3   0.568585 0.547712 0.952378 0.130995
C14   C     C_3   0.431415 0.452288 0.047622 0.130995
C15   C     C_R   0.339980 0.499966 0.499574 0.826737
C16   C     C_R   0.660020 0.500034 0.500426 0.826738
C17   C     C_3   0.972579 0.431299 0.609505 -0.162657
C18   C     C_3   0.027421 0.568700 0.390495 -0.162657
C19   C     C_3   0.028085 0.381149 0.487421 -0.157338
C20   C     C_3   0.971914 0.618850 0.512579 -0.157338
C21   C     C_1   0.250159 0.500209 0.499010 -0.167690
C22   C     C_1   0.749841 0.499791 0.500990 -0.167690
C23   C     C_3   0.028756 0.550387 0.621814 -0.168174
C24   C     C_3   0.971244 0.449612 0.378186 -0.168174
C25   C     C_3   0.082709 0.500232 0.499721 0.199772
C26   C     C_3   0.917290 0.499768 0.500279 0.199772
C27   C     C_1   0.174484 0.500333 0.499282 -0.082985
C28   C     C_1   0.825516 0.499666 0.500718 -0.082985
C29   C     C_3   0.563817 0.042186 0.582006 -0.175463
C30   C     C_3   0.436183 0.957814 0.417994 -0.175464
Cu1   Cu    Cu3+1 0.500020 0.499990 0.643150 0.937237
Cu2   Cu    Cu3+1 0.499980 0.500010 0.356850 0.937237
H1    H     H_    0.052569 0.283621 0.477161 0.117980
H2    H     H_    0.947431 0.716379 0.522839 0.117980
H3    H     H_    0.948621 0.374963 0.699391 0.118509
H4    H     H_    0.051379 0.625036 0.300609 0.118509
H5    H     H_    0.946341 0.408270 0.278143 0.120802
H6    H     H_    0.053659 0.591730 0.721856 0.120802
H7    H     H_    0.634192 0.918791 0.409262 0.123263
H8    H     H_    0.365808 0.081209 0.590738 0.123263
H9    H     H_    0.616037 0.079714 0.649043 0.119020
H10   H     H_    0.383963 0.920286 0.350957 0.119020
H11   H     H_    0.480025 0.925933 0.742939 0.120335
H12   H     H_    0.519974 0.074067 0.257061 0.120335
H13   H     H_    0.385480 0.621153 0.899756 0.113299
H14   H     H_    0.614520 0.378847 0.100243 0.113299
H15   H     H_    0.512707 0.709300 0.098369 0.122449
H16   H     H_    0.487292 0.290700 0.901630 0.122449
N1    N     N_3   0.500060 0.499970 0.858290 -0.164377
N2    N     N_3   0.499940 0.500030 0.141710 -0.164377
O1    O     O_R   0.500040 0.316850 0.620870 -0.586437
O2    O     O_R   0.499960 0.683150 0.379130 -0.586437
O3    O     O_R   0.500000 0.316860 0.379090 -0.591925
O4    O     O_R   0.500000 0.683140 0.620910 -0.591924
O5    O     O_R   0.379090 0.499980 0.620870 -0.580382
O6    O     O_R   0.620910 0.500020 0.379130 -0.580382
O7    O     O_R   0.379060 0.499990 0.379090 -0.561848
O8    O     O_R   0.620940 0.500010 0.620910 -0.561848
C31   C     C_R   0.647758 0.607680 0.897139 0.130989
C32   C     C_R   0.644729 0.729174 0.839433 -0.110641
C33   C     C_R   0.717813 0.784913 0.785964 -0.164356
C34   C     C_R   0.794650 0.720361 0.791508 -0.113586
C35   C     C_R   0.798461 0.600047 0.850617 -0.125506
C36   C     C_R   0.725322 0.543646 0.903229 -0.145038
H17   H     H_    0.585892 0.780738 0.836366 0.116434
H18   H     H_    0.714894 0.878265 0.740629 0.120991
H19   H     H_    0.851224 0.763529 0.750146 0.115937
H20   H     H_    0.858004 0.550140 0.854753 0.120801
H21   H     H_    0.729270 0.449863 0.947121 0.101858
C37   C     C_R   0.352242 0.392320 0.102861 0.130988
C38   C     C_R   0.274677 0.456353 0.096770 -0.145038
C39   C     C_R   0.201539 0.399952 0.149382 -0.125506
C40   C     C_R   0.205350 0.279639 0.208492 -0.113585
C41   C     C_R   0.282187 0.215088 0.214038 -0.164356
C42   C     C_R   0.355271 0.270827 0.160568 -0.110641
H22   H     H_    0.270730 0.550136 0.052876 0.101858
H23   H     H_    0.141995 0.449859 0.145245 0.120801
H24   H     H_    0.148776 0.236471 0.249854 0.115937
H25   H     H_    0.285106 0.121736 0.259373 0.120991
H26   H     H_    0.414108 0.219263 0.163635 0.116435

loop_
_geom_bond_atom_site_label_1
_geom_bond_atom_site_label_2
_ccdc_geom_bond_type
C7    C29   S    
C15   O7    A    
C40   C41   A    
C16   O8    A    
C31   C36   A    
C34   C35   A    
C34   H19   S    
C18   C24   S    
C17   C26   S    
Cu1   O8    S    
C24   C26   S    
C38   H22   S    
C11   C14   S    
C2    O4    A    
C3    C29   S    
C9    C13   S    
Cu2   O2    S    
C1    O3    A    
C33   H18   S    
C4    H8    S    
C40   H24   S    
C37   C38   A    
C7    H11   S    
C42   H26   S    
C20   H2    S    
C21   C27   T    
C3    H7    S    
C31   C32   A    
C22   C28   T    
C14   C37   S    
C18   C25   S    
Cu2   O7    S    
Cu1   N1    S    
C4    C7    S    
C10   C12   S    
C41   C42   A    
C1    C6    S    
C4    C6    S    
C3    C8    S    
C10   C14   S    
C5    C7    S    
C6    C8    S    
C19   H1    S    
C32   C33   A    
C15   O5    A    
C16   O6    A    
C39   H23   S    
C11   N1    S    
C9    C11   S    
Cu1   Cu2   S    
C20   C23   S    
C24   H5    S    
C17   C23   S    
C36   H21   S    
C1    O1    A    
Cu2   N2    S    
C2    O2    A    
C13   N1    S    
C12   H14   S    
C32   H17   S    
C9    H15   S    
C41   H25   S    
C10   H16   S    
C11   H13   S    
C2    C5    S    
Cu2   O3    S    
C5    C30   S    
C35   H20   S    
C16   C22   S    
C29   H9    S    
C9    N2    S    
C8    H12   S    
Cu1   O1    S    
C39   C40   A    
C3    C5    S    
C12   N2    S    
C13   C31   S    
C25   C27   S    
C23   H6    S    
C26   C28   S    
C8    C30   S    
C19   C24   S    
C38   C39   A    
C14   N2    S    
C20   C26   S    
C17   C19   S    
C18   C20   S    
C23   C25   S    
Cu1   O4    S    
C33   C34   A    
C19   C25   S    
C35   C36   A    
C15   C21   S    
C6    C29   S    
C12   C13   S    
C37   C42   A    
C30   H10   S    
C17   H3    S    
Cu1   O5    S    
C10   N1    S    
C18   H4    S    
Cu2   O6    S    
C4    C30   S    
