data_mof_unit_22377.cif
_audit_creation_date              2012-12-10T20:00:28-0500
_audit_creation_method            fapswitch 2.2
_symmetry_space_group_name_H-M    P1
_symmetry_Int_Tables_number       1
_space_group_crystal_system       triclinic
_cell_length_a                    15.004685
_cell_length_b                    14.237725
_cell_length_c                    15.794982
_cell_angle_alpha                 90.000617
_cell_angle_beta                  91.155145
_cell_angle_gamma                 90.000319
_cell_volume                      3373.63697953

loop_
_atom_site_label
_atom_site_type_symbol
_atom_type_description
_atom_site_fract_x
_atom_site_fract_y
_atom_site_fract_z
_atom_type_partial_charge
C1    C     C_R   0.327890 0.500036 0.500872 0.832875
C2    C     C_R   0.672110 0.500036 0.499132 0.832830
C3    C     C_R   0.048110 0.501657 0.500471 0.125564
C4    C     C_R   0.951890 0.501664 0.499672 0.125544
C5    C     C_R   0.473592 0.104304 0.427373 0.261991
C6    C     C_R   0.577835 0.895831 0.520236 0.262420
C7    C     C_R   0.526420 0.104310 0.572631 0.261960
C8    C     C_R   0.422167 0.895833 0.479773 0.262425
C9    C     C_R   0.470432 0.204074 0.429666 0.358651
C10   C     C_R   0.575094 0.796296 0.525035 0.352088
C11   C     C_R   0.529575 0.204081 0.570334 0.358693
C12   C     C_R   0.424907 0.796298 0.474970 0.352112
C13   C     C_R   0.500006 0.053236 0.500003 -0.072738
C14   C     C_R   0.500003 0.947041 0.500005 -0.103112
C15   C     C_R   0.500656 0.499986 0.339445 0.871984
C16   C     C_R   0.499345 0.499987 0.660555 0.872000
C17   C     C_R   0.500370 0.586966 0.956047 0.353973
C18   C     C_R   0.505485 0.414867 0.043857 0.349084
C19   C     C_R   0.499641 0.586965 0.043957 0.353969
C20   C     C_R   0.494532 0.414868 0.956141 0.349088
C21   C     C_R   0.495858 0.500875 0.912736 -0.258028
C22   C     C_R   0.504155 0.500872 0.087265 -0.258024
C23   C     C_1   0.495501 0.500258 0.823661 0.075483
C24   C     C_1   0.504507 0.500255 0.176340 0.075521
C25   C     C_1   0.503069 0.499931 0.251196 -0.207146
C26   C     C_1   0.496935 0.499934 0.748804 -0.207155
C27   C     C_R   0.094884 0.580410 0.530269 -0.198049
C28   C     C_R   0.906601 0.422137 0.527998 -0.179549
C29   C     C_R   0.905129 0.580398 0.469811 -0.198043
C30   C     C_R   0.093385 0.422110 0.472167 -0.179588
C31   C     C_R   0.186959 0.579784 0.530995 -0.198472
C32   C     C_R   0.814773 0.421083 0.526026 -0.201828
C33   C     C_R   0.813054 0.579769 0.469037 -0.198442
C34   C     C_R   0.185213 0.421061 0.474088 -0.201806
C35   C     C_R   0.232094 0.500190 0.502379 -0.032845
C36   C     C_R   0.767906 0.500190 0.497666 -0.032869
H1    H     H_    0.060284 0.641697 0.553536 0.129852
H2    H     H_    0.942197 0.361266 0.552176 0.127576
H3    H     H_    0.939741 0.641668 0.446524 0.129855
H4    H     H_    0.057778 0.361223 0.448035 0.127581
H5    H     H_    0.222701 0.641068 0.554053 0.182279
H6    H     H_    0.780661 0.359145 0.547761 0.149376
H7    H     H_    0.777321 0.641036 0.445930 0.182229
H8    H     H_    0.219312 0.359110 0.452368 0.149311
N1    N     N_R   0.500000 0.252470 0.500000 -0.193903
N2    N     N_R   0.500000 0.747530 0.500000 -0.193375
O1    O     O_R   0.369060 0.579480 0.500010 -0.562935
O2    O     O_R   0.630940 0.420520 0.499990 -0.624824
O3    O     O_R   0.630940 0.579480 0.499990 -0.562915
O4    O     O_R   0.369060 0.420520 0.500010 -0.624836
O5    O     O_R   0.499980 0.579460 0.378020 -0.622590
O6    O     O_R   0.500020 0.420540 0.621980 -0.548964
O7    O     O_R   0.500020 0.579460 0.621980 -0.622591
O8    O     O_R   0.499980 0.420540 0.378020 -0.548966
Zn1   Zn    Zn3+2 0.500000 0.606140 0.500000 0.988131
Zn2   Zn    Zn3+2 0.500000 0.393860 0.500000 0.996814
O9    O     O_3   0.502696 0.672158 0.086178 -0.596025
C37   C     C_3   0.417709 0.693535 0.118255 0.149278
H9    H     H_    0.413024 0.663553 0.182849 0.099930
H10   H     H_    0.361281 0.664813 0.078877 0.124470
C38   C     C_3   0.407504 0.800213 0.125563 -0.373851
H11   H     H_    0.357416 0.816924 0.174084 0.173207
H12   H     H_    0.471876 0.831517 0.146958 0.236423
C39   C     C_3   0.377235 0.844825 0.041856 -0.824955
H13   H     H_    0.376601 0.922466 0.048438 0.239250
H14   H     H_    0.422663 0.825663 0.990195 0.308734
H15   H     H_    0.308813 0.820924 0.024511 0.244918
O10   O     O_3   0.490626 0.330177 0.912935 -0.629980
C40   C     C_3   0.401156 0.309639 0.889344 0.119508
H16   H     H_    0.402684 0.263892 0.832395 0.169301
H17   H     H_    0.361889 0.373176 0.870645 0.123354
C41   C     C_3   0.354240 0.256516 0.960229 -0.328901
H18   H     H_    0.393698 0.193206 0.978058 0.244496
H19   H     H_    0.349166 0.302279 0.016855 0.240710
C42   C     C_3   0.260304 0.226848 0.932789 -1.000341
H20   H     H_    0.219008 0.289691 0.917898 0.269425
H21   H     H_    0.228779 0.187450 0.984955 0.273742
H22   H     H_    0.262306 0.180910 0.876066 0.261613
O11   O     O_3   0.497313 0.672161 0.913830 -0.596024
C43   C     C_3   0.582294 0.693535 0.881738 0.149300
H23   H     H_    0.586963 0.663561 0.817139 0.099933
H24   H     H_    0.638729 0.664804 0.921103 0.124440
C44   C     C_3   0.592505 0.800213 0.874439 -0.373865
H25   H     H_    0.642608 0.816923 0.825931 0.173202
H26   H     H_    0.528138 0.831520 0.853029 0.236406
C45   C     C_3   0.622753 0.844822 0.958156 -0.824832
H27   H     H_    0.623425 0.922461 0.951568 0.239220
H28   H     H_    0.577288 0.825692 0.009795 0.308730
H29   H     H_    0.691155 0.820891 0.975536 0.244916
O12   O     O_3   0.509391 0.330175 0.087059 -0.630009
C46   C     C_3   0.598861 0.309639 0.110651 0.119495
H30   H     H_    0.597333 0.263881 0.167591 0.169308
H31   H     H_    0.638122 0.373175 0.129362 0.123361
C47   C     C_3   0.645783 0.256532 0.039759 -0.328899
H32   H     H_    0.606330 0.193224 0.021917 0.244506
H33   H     H_    0.650859 0.302307 0.983142 0.240712
C48   C     C_3   0.739719 0.226863 0.067198 -1.000377
H34   H     H_    0.781006 0.289703 0.082120 0.269433
H35   H     H_    0.771255 0.187496 0.015021 0.273733
H36   H     H_    0.737714 0.180897 0.123900 0.261626
O13   O     O_3   0.446703 0.057216 0.354697 -0.605762
C49   C     C_3   0.519258 0.048237 0.299648 0.104046
H37   H     H_    0.554068 0.980932 0.313759 0.122553
H38   H     H_    0.568341 0.107096 0.305246 0.127006
C50   C     C_3   0.483318 0.046073 0.208444 -0.320913
H39   H     H_    0.430862 0.991323 0.202211 0.223764
H40   H     H_    0.452728 0.115169 0.192607 0.237361
C51   C     C_3   0.557077 0.025389 0.146014 -0.994987
H41   H     H_    0.609816 0.079752 0.151064 0.269790
H42   H     H_    0.529018 0.025559 0.080430 0.268672
H43   H     H_    0.587167 0.955504 0.159129 0.264551
O14   O     O_3   0.656665 0.942372 0.538992 -0.564314
C52   C     C_3   0.704378 0.954161 0.463613 0.145166
H44   H     H_    0.668803 0.003558 0.420115 0.096868
H45   H     H_    0.713707 0.885791 0.430477 0.101308
C53   C     C_3   0.796801 0.994082 0.484487 -0.337526
H46   H     H_    0.833211 0.945322 0.527929 0.216608
H47   H     H_    0.834935 0.999816 0.425108 0.161362
C54   C     C_3   0.791435 0.090978 0.525514 -0.824017
H48   H     H_    0.753383 0.140202 0.483880 0.231123
H49   H     H_    0.859684 0.119375 0.536011 0.227167
H50   H     H_    0.758575 0.085897 0.587680 0.284516
O15   O     O_3   0.553314 0.057227 0.645308 -0.605761
C55   C     C_3   0.480762 0.048251 0.700361 0.103986
H51   H     H_    0.445942 0.980954 0.686243 0.122565
H52   H     H_    0.431689 0.107117 0.694772 0.127018
C56   C     C_3   0.516705 0.046068 0.791563 -0.320951
H53   H     H_    0.569155 0.991312 0.797786 0.223768
H54   H     H_    0.547302 0.115159 0.807412 0.237335
C57   C     C_3   0.442945 0.025379 0.853992 -0.994938
H55   H     H_    0.390213 0.079748 0.848951 0.269795
H56   H     H_    0.471005 0.025533 0.919577 0.268668
H57   H     H_    0.412847 0.955499 0.840865 0.264543
O16   O     O_3   0.343337 0.942373 0.461021 -0.564316
C58   C     C_3   0.295650 0.954207 0.536409 0.145179
H58   H     H_    0.331250 0.003606 0.579884 0.096871
H59   H     H_    0.286312 0.885853 0.569563 0.101283
C59   C     C_3   0.203233 0.994151 0.515551 -0.337572
H60   H     H_    0.166795 0.945389 0.472134 0.216623
H61   H     H_    0.165119 0.999920 0.574939 0.161378
C60   C     C_3   0.208615 0.091027 0.474499 -0.824083
H62   H     H_    0.246693 0.140251 0.516110 0.231114
H63   H     H_    0.140373 0.119443 0.464014 0.227186
H64   H     H_    0.241456 0.085912 0.412329 0.284523
O17   O     O_3   0.445722 0.253493 0.357622 -0.593718
C61   C     C_3   0.353236 0.243944 0.341317 0.143209
H65   H     H_    0.314340 0.248263 0.400466 0.108196
H66   H     H_    0.339186 0.175767 0.309664 0.180148
C62   C     C_3   0.322456 0.322662 0.281704 -0.331517
H67   H     H_    0.328093 0.391210 0.315008 0.217922
H68   H     H_    0.365946 0.324551 0.225538 0.251890
C63   C     C_3   0.226082 0.308505 0.251689 -0.998721
H69   H     H_    0.219749 0.242472 0.214601 0.268843
H70   H     H_    0.205315 0.368172 0.210555 0.273633
H71   H     H_    0.181023 0.305222 0.306500 0.265116
O18   O     O_3   0.652432 0.748103 0.545023 -0.603309
C64   C     C_3   0.669863 0.752229 0.633192 0.120851
H72   H     H_    0.617532 0.713522 0.667869 0.132553
H73   H     H_    0.672442 0.825965 0.656554 0.172569
C65   C     C_3   0.760364 0.706151 0.651452 -0.321049
H74   H     H_    0.756163 0.630142 0.636268 0.228158
H75   H     H_    0.811313 0.738677 0.610530 0.229987
C66   C     C_3   0.790311 0.716912 0.743736 -1.010596
H76   H     H_    0.793481 0.792285 0.761664 0.270112
H77   H     H_    0.857741 0.685898 0.752678 0.274978
H78   H     H_    0.743957 0.679274 0.785667 0.253338
O19   O     O_3   0.554291 0.253510 0.642373 -0.593734
C67   C     C_3   0.646769 0.243928 0.658706 0.143346
H79   H     H_    0.685687 0.248108 0.599559 0.108086
H80   H     H_    0.660767 0.175800 0.690463 0.180182
C68   C     C_3   0.677586 0.322738 0.718203 -0.331616
H81   H     H_    0.672040 0.391221 0.684776 0.217875
H82   H     H_    0.634057 0.324803 0.774336 0.251900
C69   C     C_3   0.773926 0.308536 0.748305 -0.998590
H83   H     H_    0.780143 0.242621 0.785590 0.268840
H84   H     H_    0.794751 0.368324 0.789277 0.273624
H85   H     H_    0.819017 0.304979 0.693523 0.265051
O20   O     O_3   0.347566 0.748107 0.454984 -0.603312
C70   C     C_3   0.330137 0.752228 0.366814 0.120869
H86   H     H_    0.382463 0.713511 0.332139 0.132563
H87   H     H_    0.327566 0.825963 0.343449 0.172558
C71   C     C_3   0.239631 0.706159 0.348555 -0.321066
H88   H     H_    0.243819 0.630153 0.363749 0.228152
H89   H     H_    0.188683 0.738700 0.389470 0.229984
C72   C     C_3   0.209692 0.716909 0.256268 -1.010571
H90   H     H_    0.206533 0.792280 0.238331 0.270110
H91   H     H_    0.142259 0.685902 0.247325 0.274976
H92   H     H_    0.256045 0.679260 0.214344 0.253339

loop_
_geom_bond_atom_site_label_1
_geom_bond_atom_site_label_2
_ccdc_geom_bond_type
C58   C59   S    
C12   O20   S    
C68   H81   S    
C9    N1    A    
O13   C49   S    
C38   C39   S    
C51   H41   S    
C66   H76   S    
O2    Zn2   S    
C56   H54   S    
O17   C61   S    
O9    C37   S    
O15   C55   S    
C19   O9    S    
C7    C11   A    
C68   H82   S    
C64   H72   S    
C32   C36   A    
O1    Zn1   S    
O18   C64   S    
C66   H77   S    
C52   H44   S    
C62   H68   S    
C49   H38   S    
C45   H28   S    
C72   H91   S    
C6    C14   A    
C37   H10   S    
C29   C33   A    
C17   O11   S    
C33   C36   A    
C53   H46   S    
C49   C50   S    
C38   H12   S    
C34   C35   A    
C23   C26   T    
C9    O17   S    
C40   H17   S    
C16   O7    A    
C48   H35   S    
C69   H83   S    
C67   C68   S    
N1    Zn2   S    
C53   H47   S    
O10   C40   S    
N2    Zn1   S    
C10   N2    A    
C15   O5    A    
C1    O4    A    
C5    C13   A    
C4    C29   A    
C41   H18   S    
C52   C53   S    
C38   H11   S    
C37   C38   S    
C67   H80   S    
C64   H73   S    
C13   C14   S    
C11   O19   S    
C49   H37   S    
C41   C42   S    
C66   H78   S    
O14   C52   S    
C4    C28   A    
C48   H34   S    
C61   H66   S    
O7    Zn1   S    
C16   C26   S    
C68   C69   S    
C5    O13   S    
C39   H15   S    
C30   C34   A    
C27   C31   A    
C18   O12   S    
C15   O8    A    
O20   C70   S    
C58   H58   S    
C19   C22   A    
C34   H8    S    
C24   C25   T    
C41   H19   S    
C60   H64   S    
C10   O18   S    
O19   C67   S    
C45   H27   S    
C1    O1    A    
C72   H92   S    
C47   C48   S    
C2    O2    A    
C37   H9    S    
O3    Zn1   S    
C8    O16   S    
C45   H29   S    
O4    Zn2   S    
C70   H86   S    
C71   C72   S    
C33   H7    S    
C3    C30   A    
C57   H56   S    
C42   H20   S    
C65   C66   S    
C5    C9    A    
C2    O3    A    
C46   H31   S    
C61   C62   S    
C50   H40   S    
C44   H25   S    
C63   H71   S    
C28   C32   A    
C8    C12   A    
C29   H3    S    
C30   H4    S    
C47   H32   S    
C50   C51   S    
C20   C21   A    
C47   H33   S    
C42   H21   S    
C69   H85   S    
O16   C58   S    
C54   H49   S    
C59   H61   S    
C55   C56   S    
C12   N2    A    
C67   H79   S    
C44   H26   S    
C63   H70   S    
C64   C65   S    
C21   C23   S    
C22   C24   S    
C62   C63   S    
C57   H57   S    
O12   C46   S    
C3    C4    S    
C46   H30   S    
C48   H36   S    
C1    C35   S    
C55   H52   S    
C61   H65   S    
C54   H50   S    
C2    C36   S    
C58   H59   S    
C8    C14   A    
C31   H5    S    
C71   H89   S    
C18   C22   A    
C6    O14   S    
C20   O10   S    
C65   H75   S    
C16   O6    A    
C7    O15   S    
C43   H23   S    
C59   C60   S    
C6    C10   A    
C18   C20   A    
C54   H48   S    
C53   C54   S    
O8    Zn2   S    
C56   H53   S    
C50   H39   S    
C51   H43   S    
C65   H74   S    
C70   C71   S    
C60   H63   S    
C57   H55   S    
C56   C57   S    
C60   H62   S    
C39   H13   S    
C46   C47   S    
C72   H90   S    
C27   H1    S    
C31   C35   A    
C3    C27   A    
C43   C44   S    
C17   C19   A    
C43   H24   S    
C51   H42   S    
O5    Zn1   S    
C40   H16   S    
C42   H22   S    
C69   H84   S    
C11   N1    A    
C59   H60   S    
O11   C43   S    
O6    Zn2   S    
C7    C13   A    
C44   C45   S    
C63   H69   S    
C15   C25   S    
C32   H6    S    
C40   C41   S    
C52   H45   S    
C28   H2    S    
C62   H67   S    
C71   H88   S    
C39   H14   S    
C55   H51   S    
C70   H87   S    
C17   C21   A    
