data_mof_unit_62223.cif
_audit_creation_date              2013-03-05T15:56:33-0500
_audit_creation_method            fapswitch 2.2
_symmetry_space_group_name_H-M    P1
_symmetry_Int_Tables_number       1
_space_group_crystal_system       triclinic
_cell_length_a                    23.333926
_cell_length_b                    23.333889
_cell_length_c                    55.971577
_cell_angle_alpha                 90.000015
_cell_angle_beta                  90.000035
_cell_angle_gamma                 89.999805
_cell_volume                      30474.91389

loop_
_atom_site_label
_atom_site_type_symbol
_atom_site_description
_atom_site_fract_x
_atom_site_fract_y
_atom_site_fract_z
_atom_type_partial_charge
O1    O     O_R   0.000620 0.918950 0.019370 -0.602468
O2    O     O_R   0.081050 0.000620 0.019370 -0.602166
O3    O     O_R   0.999380 0.081050 0.019370 -0.602468
O4    O     O_R   0.918950 0.999380 0.019370 -0.602166
O5    O     O_R   0.000620 0.081050 0.980630 -0.602212
O6    O     O_R   0.081050 0.999380 0.980630 -0.602539
O7    O     O_R   0.999380 0.918950 0.980630 -0.602212
O8    O     O_R   0.918950 0.000620 0.980630 -0.602539
O9    O     O_R   0.500620 0.418950 0.519370 -0.602177
O10   O     O_R   0.581050 0.500620 0.519370 -0.602504
O11   O     O_R   0.499380 0.581050 0.519370 -0.602177
O12   O     O_R   0.418950 0.499380 0.519370 -0.602503
O13   O     O_R   0.500620 0.581050 0.480630 -0.602481
O14   O     O_R   0.581050 0.499380 0.480630 -0.602179
O15   O     O_R   0.499380 0.418950 0.480630 -0.602481
O16   O     O_R   0.418950 0.500620 0.480630 -0.602180
C1    C     C_R   1.000000 0.891807 0.000000 0.909272
C2    C     C_R   0.108193 1.000000 0.000000 0.909274
C3    C     C_R   0.000000 0.108193 0.000000 0.909271
C4    C     C_R   0.891807 0.000000 0.000000 0.909274
C5    C     C_R   0.500000 0.391807 0.500000 0.909254
C6    C     C_R   0.608193 0.500000 0.500000 0.909256
C7    C     C_R   0.500000 0.608193 0.500000 0.909253
C8    C     C_R   0.391807 0.500000 0.500000 0.909256
Zn1   Zn    Zn3+2 0.000000 1.000000 0.026110 1.025637
Zn2   Zn    Zn3+2 0.000000 0.000000 0.973890 1.025414
Zn3   Zn    Zn3+2 0.500000 0.500000 0.526110 1.025615
Zn4   Zn    Zn3+2 0.500000 0.500000 0.473890 1.025632
C9    C     C_1   0.831508 0.000001 0.000000 -0.172293
C10   C     C_1   0.999999 0.831508 1.000000 -0.172256
C11   C     C_1   0.168492 0.999999 0.000000 -0.172293
C12   C     C_1   0.000001 0.168491 1.000000 -0.172256
C13   C     C_1   0.331508 0.499999 0.500000 -0.172265
C14   C     C_1   0.500001 0.331508 0.500000 -0.172228
C15   C     C_1   0.668492 0.500001 0.500000 -0.172265
C16   C     C_1   0.499999 0.668492 0.500000 -0.172228
C17   C     C_1   0.780549 0.000002 0.000000 0.030373
C18   C     C_1   0.999998 0.780549 1.000000 0.030437
C19   C     C_1   0.219451 0.999998 0.000000 0.030373
C20   C     C_1   0.000002 0.219451 1.000000 0.030437
C21   C     C_1   0.280549 0.499998 0.500000 0.030394
C22   C     C_1   0.500001 0.280549 0.500000 0.030457
C23   C     C_1   0.719451 0.500002 0.500000 0.030394
C24   C     C_1   0.499999 0.719451 0.500000 0.030457
C25   C     C_1   0.721182 0.000001 0.000000 0.028626
C26   C     C_1   0.999998 0.721183 1.000000 0.028710
C27   C     C_1   0.278817 0.999999 0.000000 0.028626
C28   C     C_1   0.000002 0.278817 1.000000 0.028710
C29   C     C_1   0.221182 0.499998 0.500000 0.028643
C30   C     C_1   0.500001 0.221183 0.500000 0.028725
C31   C     C_1   0.778818 0.500002 0.500000 0.028643
C32   C     C_1   0.499999 0.778817 0.500000 0.028725
C33   C     C_1   0.670223 0.000001 0.000000 -0.155372
C34   C     C_1   0.999999 0.670223 1.000000 -0.155306
C35   C     C_1   0.329777 0.999999 0.000000 -0.155371
C36   C     C_1   0.000001 0.329777 1.000000 -0.155306
C37   C     C_1   0.170223 0.499999 0.500000 -0.155365
C38   C     C_1   0.500001 0.170223 0.500000 -0.155300
C39   C     C_1   0.829777 0.500001 0.500000 -0.155365
C40   C     C_1   0.499999 0.829777 0.500000 -0.155300
O17   O     O_R   0.500970 0.048450 0.963610 -0.622280
O18   O     O_R   0.951550 0.500970 0.963610 -0.622664
O19   O     O_R   0.499030 0.951550 0.963610 -0.622279
O20   O     O_R   0.048450 0.499030 0.963610 -0.622664
O21   O     O_R   0.500970 0.951550 0.036390 -0.622366
O22   O     O_R   0.951550 0.499030 0.036390 -0.622223
O23   O     O_R   0.499030 0.048450 0.036390 -0.622367
O24   O     O_R   0.048450 0.500970 0.036390 -0.622223
O25   O     O_R   0.000970 0.548450 0.463610 -0.622371
O26   O     O_R   0.451550 0.000970 0.463610 -0.622228
O27   O     O_R   0.999030 0.451550 0.463610 -0.622371
O28   O     O_R   0.548450 0.999030 0.463610 -0.622227
O29   O     O_R   0.000970 0.451550 0.536390 -0.622332
O30   O     O_R   0.451550 0.999030 0.536390 -0.622703
O31   O     O_R   0.999030 0.548450 0.536390 -0.622332
O32   O     O_R   0.548450 0.000970 0.536390 -0.622704
C41   C     C_R   0.500000 0.000000 0.952268 0.869651
C42   C     C_R   1.000000 0.500000 0.952265 0.870154
C43   C     C_R   0.500000 1.000000 0.047731 0.869673
C44   C     C_R   1.000000 0.500000 0.047731 0.869480
C45   C     C_R   0.000000 0.500000 0.452269 0.869680
C46   C     C_R   0.500000 0.000000 0.452269 0.869487
C47   C     C_R   0.000000 0.500000 0.547733 0.869718
C48   C     C_R   0.500000 0.000000 0.547736 0.870201
O33   O     O_R   0.583520 0.048450 0.999240 -0.613605
O34   O     O_R   0.951550 0.583520 0.999240 -0.613410
O35   O     O_R   0.416480 0.951550 0.999240 -0.613605
O36   O     O_R   0.048450 0.416480 0.999240 -0.613410
O37   O     O_R   0.583520 0.951550 0.000760 -0.608070
O38   O     O_R   0.951550 0.416480 0.000760 -0.608214
O39   O     O_R   0.416480 0.048450 0.000760 -0.608070
O40   O     O_R   0.048450 0.583520 0.000760 -0.608215
O41   O     O_R   0.083520 0.548450 0.499240 -0.608090
O42   O     O_R   0.451550 0.083520 0.499240 -0.608244
O43   O     O_R   0.916480 0.451550 0.499240 -0.608090
O44   O     O_R   0.548450 0.916480 0.499240 -0.608244
O45   O     O_R   0.083520 0.451550 0.500760 -0.613587
O46   O     O_R   0.451550 0.916480 0.500760 -0.613383
O47   O     O_R   0.916480 0.548450 0.500760 -0.613587
O48   O     O_R   0.548450 0.083520 0.500760 -0.613383
C49   C     C_R   0.609924 0.000000 0.000000 0.901063
C50   C     C_R   1.000000 0.609924 1.000000 0.901187
C51   C     C_R   0.390076 1.000000 0.000000 0.901064
C52   C     C_R   0.000000 0.390076 1.000000 0.901188
C53   C     C_R   0.109924 0.500000 0.500000 0.901097
C54   C     C_R   0.500000 0.109924 0.500000 0.901216
C55   C     C_R   0.890076 0.500000 0.500000 0.901097
C56   C     C_R   0.500000 0.890076 0.500000 0.901216
Zn5   Zn    Zn3+2 0.500000 0.064130 0.000000 1.010670
Zn6   Zn    Zn3+2 0.935870 0.500000 0.000000 1.010523
Zn7   Zn    Zn3+2 0.500000 0.935870 0.000000 1.010670
Zn8   Zn    Zn3+2 0.064130 0.500000 0.000000 1.010523
Zn9   Zn    Zn3+2 1.000000 0.564130 0.500000 1.010608
Zn10  Zn    Zn3+2 0.435870 0.000000 0.500000 1.010468
Zn11  Zn    Zn3+2 0.000000 0.435870 0.500000 1.010609
Zn12  Zn    Zn3+2 0.564130 0.000000 0.500000 1.010468
C57   C     C_R   0.533784 0.959756 0.762598 0.026563
C58   C     C_R   0.970021 0.456863 0.762683 0.026545
C59   C     C_R   0.466217 0.040244 0.762598 0.026562
C60   C     C_R   0.029979 0.543137 0.762683 0.026545
C61   C     C_R   0.457421 0.030760 0.237320 0.026533
C62   C     C_R   0.039329 0.534838 0.237400 0.026558
C63   C     C_R   0.542579 0.969240 0.237320 0.026533
C64   C     C_R   0.960671 0.465162 0.237400 0.026558
C65   C     C_R   0.957416 0.469248 0.262680 0.026532
C66   C     C_R   0.539323 0.965155 0.262599 0.026558
C67   C     C_R   0.042584 0.530752 0.262680 0.026533
C68   C     C_R   0.460677 0.034845 0.262599 0.026559
C69   C     C_R   0.034087 0.539986 0.737401 0.026565
C70   C     C_R   0.470350 0.043364 0.737316 0.026532
C71   C     C_R   0.965913 0.460014 0.737401 0.026565
C72   C     C_R   0.529652 0.956636 0.737316 0.026533
C73   C     C_R   0.500001 0.000000 0.775237 0.088097
C74   C     C_R   0.000000 0.500000 0.775316 0.088321
C75   C     C_R   0.500000 1.000000 0.224687 0.088321
C76   C     C_R   0.000000 0.500000 0.224762 0.088129
C77   C     C_R   0.000000 0.500000 0.275313 0.088321
C78   C     C_R   0.500000 1.000000 0.275238 0.088128
C79   C     C_R   0.000000 0.500000 0.724762 0.088091
C80   C     C_R   0.500001 0.000000 0.724684 0.088325
C81   C     C_R   0.570824 0.923765 0.775621 -0.252273
C82   C     C_R   0.946545 0.410794 0.775671 -0.251620
C83   C     C_R   0.429177 0.076234 0.775621 -0.252273
C84   C     C_R   0.053455 0.589207 0.775671 -0.251621
C85   C     C_R   0.411764 0.055033 0.224337 -0.251658
C86   C     C_R   0.074290 0.572855 0.224381 -0.252315
C87   C     C_R   0.588235 0.944967 0.224337 -0.251658
C88   C     C_R   0.925710 0.427145 0.224381 -0.252316
C89   C     C_R   0.911755 0.444982 0.275662 -0.251658
C90   C     C_R   0.574276 0.927132 0.275619 -0.252316
C91   C     C_R   0.088245 0.555018 0.275662 -0.251659
C92   C     C_R   0.425723 0.072868 0.275619 -0.252317
C93   C     C_R   0.071400 0.575694 0.724379 -0.252272
C94   C     C_R   0.447225 0.089611 0.724328 -0.251610
C95   C     C_R   0.928601 0.424306 0.724378 -0.252272
C96   C     C_R   0.552777 0.910390 0.724328 -0.251610
C97   C     C_R   0.572029 0.923882 0.800481 0.343471
C98   C     C_R   0.948999 0.408516 0.800505 0.343012
C99   C     C_R   0.427972 0.076118 0.800481 0.343470
C100  C     C_R   0.051001 0.591485 0.800505 0.343014
C101  C     C_R   0.409401 0.052556 0.199505 0.343050
C102  C     C_R   0.074103 0.574097 0.199521 0.343530
C103  C     C_R   0.590599 0.947444 0.199505 0.343051
C104  C     C_R   0.925898 0.425903 0.199521 0.343531
C105  C     C_R   0.909392 0.447460 0.300494 0.343050
C106  C     C_R   0.574089 0.925890 0.300479 0.343531
C107  C     C_R   0.090608 0.552540 0.300495 0.343051
C108  C     C_R   0.425910 0.074110 0.300479 0.343531
C109  C     C_R   0.072602 0.575571 0.699519 0.343464
C110  C     C_R   0.449694 0.091869 0.699494 0.342967
C111  C     C_R   0.927399 0.424429 0.699519 0.343464
C112  C     C_R   0.550308 0.908131 0.699494 0.342968
C113  C     C_R   0.536790 0.962419 0.813326 -0.126476
C114  C     C_R   0.973557 0.454538 0.813386 -0.126239
C115  C     C_R   0.463211 0.037581 0.813326 -0.126474
C116  C     C_R   0.026442 0.545463 0.813386 -0.126239
C117  C     C_R   0.454972 0.027177 0.186619 -0.126133
C118  C     C_R   0.036543 0.537819 0.186675 -0.126438
C119  C     C_R   0.545028 0.972823 0.186619 -0.126133
C120  C     C_R   0.963457 0.462181 0.186675 -0.126438
C121  C     C_R   0.954967 0.472831 0.313381 -0.126133
C122  C     C_R   0.536536 0.962174 0.313325 -0.126439
C123  C     C_R   0.045033 0.527169 0.313381 -0.126134
C124  C     C_R   0.463463 0.037826 0.313325 -0.126439
C125  C     C_R   0.037068 0.537307 0.686673 -0.126499
C126  C     C_R   0.473899 0.045660 0.686614 -0.126266
C127  C     C_R   0.962932 0.462692 0.686673 -0.126499
C128  C     C_R   0.526102 0.954341 0.686614 -0.126266
C129  C     C_R   0.500001 1.000000 0.800634 -0.116449
C130  C     C_R   0.000000 0.500000 0.800707 -0.117711
C131  C     C_R   0.500000 0.000000 0.199296 -0.117710
C132  C     C_R   0.000000 0.500000 0.199366 -0.116491
C133  C     C_R   0.000000 0.500000 0.300704 -0.117711
C134  C     C_R   0.500000 1.000000 0.300634 -0.116491
C135  C     C_R   0.000000 0.500000 0.699365 -0.116447
C136  C     C_R   0.500001 0.000000 0.699293 -0.117705
C137  C     C_R   0.538334 0.966240 0.838453 0.553488
C138  C     C_R   0.972078 0.457189 0.838538 0.555448
C139  C     C_R   0.461667 0.033759 0.838453 0.553489
C140  C     C_R   0.027921 0.542811 0.838538 0.555447
C141  C     C_R   0.457594 0.028537 0.161464 0.555199
C142  C     C_R   0.032660 0.539274 0.161549 0.553504
C143  C     C_R   0.542406 0.971463 0.161464 0.555198
C144  C     C_R   0.967340 0.460725 0.161549 0.553505
C145  C     C_R   0.957590 0.471469 0.338536 0.555197
C146  C     C_R   0.532654 0.960720 0.338451 0.553502
C147  C     C_R   0.042410 0.528530 0.338536 0.555198
C148  C     C_R   0.467346 0.039280 0.338451 0.553502
C149  C     C_R   0.038574 0.533485 0.661546 0.553463
C150  C     C_R   0.472392 0.043014 0.661462 0.555461
C151  C     C_R   0.961427 0.466514 0.661546 0.553463
C152  C     C_R   0.527609 0.956986 0.661462 0.555460
N1    N     N_R   0.500000 1.000000 0.850333 -0.363766
N2    N     N_R   1.000000 0.500000 0.850384 -0.365455
N3    N     N_R   0.500000 1.000000 0.149613 -0.365214
N4    N     N_R   0.000000 0.500000 0.149666 -0.363724
N5    N     N_R   0.000000 0.500000 0.350387 -0.365215
N6    N     N_R   0.500000 1.000000 0.350334 -0.363725
N7    N     N_R   0.000001 0.500000 0.649667 -0.363802
N8    N     N_R   0.500000 1.000000 0.649617 -0.365485
H1    H     H_    0.600177 0.894898 0.766874 0.189925
H2    H     H_    0.929053 0.373614 0.766852 0.188057
H3    H     H_    0.399824 0.105102 0.766874 0.189925
H4    H     H_    0.070947 0.626386 0.766853 0.188057
H5    H     H_    0.374924 0.073211 0.233163 0.188038
H6    H     H_    0.102354 0.602967 0.233135 0.189938
H7    H     H_    0.625076 0.926789 0.233163 0.188038
H8    H     H_    0.897647 0.397032 0.233135 0.189938
H9    H     H_    0.874911 0.426811 0.266837 0.188040
H10   H     H_    0.602335 0.897014 0.266865 0.189937
H11   H     H_    0.125089 0.573188 0.266837 0.188040
H12   H     H_    0.397664 0.102986 0.266865 0.189938
H13   H     H_    0.100975 0.604334 0.733126 0.189920
H14   H     H_    0.430019 0.126924 0.733147 0.188092
H15   H     H_    0.899025 0.395666 0.733126 0.189920
H16   H     H_    0.569984 0.873077 0.733147 0.188091
O49   O     O_2   0.578433 0.937643 0.851064 -0.477664
O50   O     O_2   0.942664 0.417831 0.851228 -0.479016
O51   O     O_2   0.421568 0.062357 0.851064 -0.477665
O52   O     O_2   0.057335 0.582170 0.851228 -0.479016
O53   O     O_2   0.418595 0.058429 0.148775 -0.479289
O54   O     O_2   0.060092 0.580186 0.148942 -0.477663
O55   O     O_2   0.581404 0.941571 0.148775 -0.479289
O56   O     O_2   0.939908 0.419814 0.148942 -0.477664
O57   O     O_2   0.918587 0.441583 0.351225 -0.479291
O58   O     O_2   0.560079 0.919804 0.351058 -0.477665
O59   O     O_2   0.081413 0.558416 0.351225 -0.479292
O60   O     O_2   0.439921 0.080196 0.351058 -0.477664
O61   O     O_2   0.078862 0.561809 0.648933 -0.477600
O62   O     O_2   0.443255 0.082577 0.648771 -0.478983
O63   O     O_2   0.921139 0.438191 0.648933 -0.477601
O64   O     O_2   0.556745 0.917422 0.648771 -0.478983
C153  C     C_R   0.511981 0.050557 0.888513 -0.075735
C154  C     C_R   0.949103 0.510437 0.888498 -0.077015
C155  C     C_R   0.488020 0.949443 0.888513 -0.075734
C156  C     C_R   0.050897 0.489564 0.888498 -0.077015
C157  C     C_R   0.510339 0.050918 0.111484 -0.076442
C158  C     C_R   0.949084 0.510348 0.111482 -0.075520
C159  C     C_R   0.489660 0.949082 0.111484 -0.076441
C160  C     C_R   0.050917 0.489652 0.111482 -0.075520
C161  C     C_R   0.010334 0.449080 0.388516 -0.076446
C162  C     C_R   0.449082 0.989658 0.388518 -0.075525
C163  C     C_R   0.989666 0.550920 0.388516 -0.076445
C164  C     C_R   0.550917 0.010342 0.388518 -0.075525
C165  C     C_R   0.011716 0.449381 0.611489 -0.075804
C166  C     C_R   0.449053 0.989812 0.611505 -0.077089
C167  C     C_R   0.988285 0.550619 0.611489 -0.075805
C168  C     C_R   0.550947 0.010187 0.611505 -0.077089
H17   H     H_    0.521580 0.089732 0.878943 0.165314
H18   H     H_    0.909675 0.518749 0.878898 0.159668
H19   H     H_    0.478420 0.910267 0.878943 0.165314
H20   H     H_    0.090325 0.481252 0.878898 0.159668
H21   H     H_    0.518606 0.090364 0.121077 0.160191
H22   H     H_    0.909618 0.518689 0.121051 0.165457
H23   H     H_    0.481394 0.909636 0.121077 0.160191
H24   H     H_    0.090382 0.481311 0.121051 0.165457
H25   H     H_    0.018595 0.409634 0.378922 0.160186
H26   H     H_    0.409616 0.981322 0.378949 0.165451
H27   H     H_    0.981405 0.590366 0.378922 0.160186
H28   H     H_    0.590384 0.018678 0.378949 0.165451
H29   H     H_    0.021105 0.410156 0.621060 0.165186
H30   H     H_    0.409585 0.981697 0.621105 0.159554
H31   H     H_    0.978896 0.589844 0.621060 0.165186
H32   H     H_    0.590415 0.018303 0.621105 0.159554
C169  C     C_R   0.511736 0.050664 0.913392 -0.192355
C170  C     C_R   0.949000 0.510228 0.913378 -0.191061
C171  C     C_R   0.488264 0.949335 0.913392 -0.192354
C172  C     C_R   0.051000 0.489772 0.913378 -0.191061
C173  C     C_R   0.510080 0.051028 0.086604 -0.191348
C174  C     C_R   0.948982 0.510087 0.086603 -0.192408
C175  C     C_R   0.489920 0.948972 0.086604 -0.191349
C176  C     C_R   0.051018 0.489913 0.086603 -0.192408
C177  C     C_R   0.010074 0.448971 0.413396 -0.191354
C178  C     C_R   0.448980 0.989919 0.413397 -0.192413
C179  C     C_R   0.989926 0.551029 0.413396 -0.191354
C180  C     C_R   0.551019 0.010081 0.413397 -0.192413
C181  C     C_R   0.011477 0.449276 0.586610 -0.192323
C182  C     C_R   0.448952 0.990015 0.586625 -0.191023
C183  C     C_R   0.988524 0.550724 0.586610 -0.192323
C184  C     C_R   0.551048 0.009985 0.586625 -0.191022
H33   H     H_    0.521172 0.090238 0.922703 0.175876
H34   H     H_    0.909145 0.518444 0.922680 0.175251
H35   H     H_    0.478828 0.909761 0.922703 0.175876
H36   H     H_    0.090855 0.481556 0.922680 0.175252
H37   H     H_    0.518213 0.090888 0.077293 0.174467
H38   H     H_    0.909126 0.518240 0.077291 0.175382
H39   H     H_    0.481786 0.909112 0.077293 0.174467
H40   H     H_    0.090874 0.481760 0.077291 0.175382
H41   H     H_    0.018203 0.409109 0.422707 0.174463
H42   H     H_    0.409124 0.981771 0.422709 0.175379
H43   H     H_    0.981797 0.590890 0.422707 0.174463
H44   H     H_    0.590876 0.018229 0.422709 0.175379
H45   H     H_    0.020706 0.409651 0.577300 0.175905
H46   H     H_    0.409056 0.981993 0.577323 0.175271
H47   H     H_    0.979295 0.590349 0.577300 0.175905
H48   H     H_    0.590944 0.018007 0.577323 0.175271
C185  C     C_R   0.500000 1.000000 0.926033 -0.046836
C186  C     C_R   1.000000 0.500000 0.926024 -0.046179
C187  C     C_R   0.500000 0.000000 0.073964 -0.045287
C188  C     C_R   1.000000 0.500000 0.073964 -0.046321
C189  C     C_R   0.000000 0.500000 0.426036 -0.045287
C190  C     C_R   0.500000 0.000000 0.426036 -0.046320
C191  C     C_R   0.000000 0.500000 0.573968 -0.046879
C192  C     C_R   0.500000 0.000000 0.573977 -0.046216
C193  C     C_R   0.500000 1.000000 0.875973 0.273550
C194  C     C_R   1.000000 0.500000 0.875991 0.281017
C195  C     C_R   0.500000 0.000000 0.123999 0.279995
C196  C     C_R   0.000000 0.500000 0.124025 0.273203
C197  C     C_R   1.000000 0.500000 0.376001 0.280002
C198  C     C_R   0.500000 1.000000 0.375975 0.273210
C199  C     C_R   0.000001 0.500000 0.624028 0.273726
C200  C     C_R   0.500000 1.000000 0.624011 0.281189
N9    N     N_R   0.607155 0.881930 0.812168 0.252398
O65   O     O_R   0.660808 0.876761 0.806212 -0.323618
O66   O     O_R   0.583038 0.841406 0.824584 -0.308054
N10   N     N_R   0.929082 0.357329 0.812038 0.251885
O67   O     O_R   0.879284 0.336147 0.806424 -0.327837
O68   O     O_R   0.965080 0.325755 0.823963 -0.299053
N11   N     N_R   0.392846 0.118069 0.812168 0.252399
O69   O     O_R   0.339193 0.123239 0.806212 -0.323618
O70   O     O_R   0.416963 0.158593 0.824584 -0.308054
N12   N     N_R   0.070917 0.642671 0.812038 0.251884
O71   O     O_R   0.120716 0.663854 0.806424 -0.327837
O72   O     O_R   0.034919 0.674245 0.823962 -0.299054
N13   N     N_R   0.358566 0.073376 0.187982 0.251925
O73   O     O_R   0.338386 0.123620 0.193543 -0.327867
O74   O     O_R   0.326242 0.037901 0.176136 -0.298759
N14   N     N_R   0.115040 0.610394 0.187834 0.252397
O75   O     O_R   0.118707 0.664165 0.193797 -0.323487
O76   O     O_R   0.156203 0.587437 0.175403 -0.308248
N15   N     N_R   0.641434 0.926624 0.187982 0.251925
O77   O     O_R   0.661613 0.876380 0.193543 -0.327867
O78   O     O_R   0.673758 0.962099 0.176136 -0.298759
N16   N     N_R   0.884960 0.389606 0.187833 0.252397
O79   O     O_R   0.881293 0.335835 0.193797 -0.323488
O80   O     O_R   0.843797 0.412563 0.175402 -0.308248
N17   N     N_R   0.858554 0.426649 0.312018 0.251925
O81   O     O_R   0.838364 0.376410 0.306457 -0.327869
O82   O     O_R   0.826236 0.462130 0.323864 -0.298758
N18   N     N_R   0.615020 0.889584 0.312166 0.252398
O83   O     O_R   0.618675 0.835813 0.306204 -0.323486
O84   O     O_R   0.656188 0.912533 0.324597 -0.308255
N19   N     N_R   0.141446 0.573350 0.312018 0.251924
O85   O     O_R   0.161636 0.623590 0.306457 -0.327869
O86   O     O_R   0.173764 0.537870 0.323864 -0.298759
N20   N     N_R   0.384980 0.110416 0.312166 0.252398
O87   O     O_R   0.381324 0.164187 0.306204 -0.323486
O88   O     O_R   0.343812 0.087466 0.324597 -0.308254
N21   N     N_R   0.108056 0.617246 0.687833 0.252395
O89   O     O_R   0.161757 0.621968 0.693778 -0.323488
O90   O     O_R   0.084257 0.657982 0.675431 -0.308094
N22   N     N_R   0.430177 0.143210 0.687961 0.251896
O91   O     O_R   0.380558 0.164797 0.693583 -0.327843
O92   O     O_R   0.466414 0.174486 0.676026 -0.298944
N23   N     N_R   0.891945 0.382754 0.687833 0.252395
O93   O     O_R   0.838244 0.378033 0.693778 -0.323488
O94   O     O_R   0.915744 0.342018 0.675431 -0.308093
N24   N     N_R   0.569828 0.856792 0.687961 0.251896
O95   O     O_R   0.619448 0.835208 0.693582 -0.327842
O96   O     O_R   0.533591 0.825513 0.676026 -0.298944

loop_
_geom_bond_atom_site_label_1
_geom_bond_atom_site_label_2
_geom_bond_distance
_ccdc_geom_bond_type
C107  N19   1.434926 S    
N17   O81   1.301193 A    
C117  C131  1.417587 A    
C92   H12   1.078229 S    
C166  C182  1.392583 A    
O8    Zn2   1.928527 S    
C14   C22   1.189088 T    
C70   C80   1.415081 A    
C165  H29   1.082939 S    
N9    O65   1.301157 A    
C76   C132  1.421421 A    
C143  N3    1.364726 A    
O34   Zn6   1.983349 S    
C145  O57   1.348678 S    
O46   Zn10  1.983349 S    
C45   C189  1.468280 S    
O30   Zn10  2.069530 S    
C59   C70   1.420239 A    
O46   C56   1.288205 A    
N22   O91   1.301253 A    
C10   C18   1.189088 T    
C57   C72   1.420238 A    
C58   C71   1.420237 A    
C137  O49   1.348687 S    
C98   C114  1.414690 A    
C178  C190  1.404656 A    
C60   C84   1.408584 A    
C100  C116  1.414689 A    
O3    C3    1.255695 A    
C122  C134  1.417894 A    
O45   Zn11  1.983352 S    
O40   C50   1.288216 A    
O45   C53   1.288204 A    
O44   C56   1.288215 A    
C57   C73   1.415506 A    
C1    C10   1.406999 S    
O32   C48   1.296874 A    
C82   C98   1.392186 A    
C158  C196  1.400953 A    
C3    C12   1.406999 S    
C21   C29   1.385249 S    
C79   C135  1.421499 A    
C77   C133  1.421163 A    
C154  C170  1.392578 A    
C156  C194  1.399938 A    
C147  N5    1.364726 A    
O12   Zn3   1.928526 S    
C73   C129  1.421493 A    
O23   C43   1.296743 A    
C61   C68   1.420180 A    
N12   O71   1.301247 A    
C63   C66   1.420180 A    
C152  N8    1.364517 A    
C85   H5    1.078373 S    
N6    C198  1.435206 S    
C88   C104  1.391779 A    
C159  C195  1.400174 A    
C64   C88   1.408331 A    
O11   Zn3   1.928521 S    
C153  H17   1.082939 S    
C94   H14   1.078365 S    
O22   Zn6   2.069530 S    
O38   C52   1.288216 A    
C65   C89   1.408473 A    
O35   C51   1.288204 A    
C81   C97   1.391740 A    
C48   C192  1.468773 S    
C125  C149  1.409672 A    
C16   C24   1.189088 T    
C17   C25   1.385249 S    
C138  N2    1.364541 A    
C19   C27   1.385249 S    
C20   C28   1.385244 S    
C108  N20   1.434488 S    
O37   C49   1.288214 A    
O39   C51   1.288214 A    
N10   O67   1.301246 A    
C147  O59   1.348676 S    
N23   O93   1.301154 A    
C80   C136  1.421163 A    
O48   C54   1.288205 A    
C90   H10   1.078231 S    
C100  N12   1.434996 S    
C128  C152  1.409594 A    
O9    C5    1.255695 A    
C85   C101  1.392180 A    
C184  H48   1.082921 S    
C91   C107  1.392186 A    
C155  C193  1.400888 A    
O11   C7    1.255695 A    
N14   O75   1.301125 A    
C62   C86   1.408332 A    
O19   Zn7   2.069536 S    
O26   C46   1.296748 A    
O20   Zn8   2.069536 S    
O4    C4    1.255695 A    
C119  C131  1.417588 A    
C7    C16   1.406999 S    
C63   C75   1.415011 A    
O44   Zn12  1.983352 S    
C2    C11   1.407003 S    
N24   O95   1.301253 A    
C173  H37   1.082935 S    
O29   C47   1.296786 A    
C81   H1    1.078227 S    
O10   Zn3   1.928524 S    
C160  C176  1.392527 A    
O21   C43   1.296745 A    
C161  C177  1.392583 A    
C158  H22   1.082940 S    
C123  C147  1.409658 A    
N15   O77   1.301193 A    
C88   H8    1.078229 S    
C23   C31   1.385249 S    
O4    Zn1   1.928526 S    
C157  C173  1.392583 A    
C181  C191  1.404730 A    
O32   Zn12  2.069531 S    
C105  N17   1.434929 S    
O25   Zn9   2.069536 S    
C157  C195  1.400174 A    
O7    Zn2   1.928524 S    
C112  N24   1.435012 S    
C90   C106  1.391773 A    
C97   N9    1.434536 S    
O13   C7    1.255700 A    
O24   Zn8   2.069531 S    
C110  N22   1.435013 S    
C62   C67   1.420180 A    
C68   C78   1.415429 A    
C74   C130  1.421169 A    
C104  N16   1.434486 S    
C32   C40   1.189086 T    
C67   C91   1.408469 A    
C166  C200  1.399906 A    
C68   C92   1.408328 A    
C91   H11   1.078374 S    
O17   C41   1.296770 A    
O7    C1    1.255700 A    
C178  H42   1.082946 S    
C140  N2    1.364543 A    
C167  C183  1.392525 A    
O31   Zn9   2.069531 S    
C95   H15   1.078226 S    
C15   C23   1.189088 T    
C58   C74   1.415075 A    
C166  H30   1.082916 S    
C25   C33   1.189085 T    
C182  C192  1.405087 A    
C179  C189  1.404854 A    
N18   O83   1.301124 A    
O36   C52   1.288205 A    
C151  O63   1.348683 S    
C174  H38   1.082946 S    
C113  C137  1.409672 A    
C60   C69   1.420238 A    
C149  N7    1.364819 A    
C89   C105  1.392180 A    
C111  N23   1.434522 S    
C87   H7    1.078375 S    
C96   C112  1.392195 A    
C39   C55   1.407017 S    
C169  H33   1.082943 S    
C122  C146  1.409677 A    
C126  C136  1.417619 A    
C148  O60   1.348671 S    
C118  C132  1.417896 A    
C69   C79   1.415500 A    
C70   C94   1.408592 A    
C115  C139  1.409672 A    
C22   C30   1.385244 S    
C119  C143  1.409657 A    
C103  C119  1.414797 A    
C117  C141  1.409657 A    
C184  C192  1.405089 A    
C84   C100  1.392187 A    
C9    C17   1.189088 T    
O34   C50   1.288205 A    
C170  H34   1.082918 S    
C139  N1    1.364840 A    
O20   C42   1.296859 A    
O18   C42   1.296857 A    
O30   C48   1.296875 A    
C40   C56   1.407015 S    
C101  N13   1.434929 S    
C180  C190  1.404654 A    
O22   C44   1.296749 A    
O12   C8    1.255700 A    
O1    C1    1.255695 A    
C89   H9    1.078376 S    
O14   C6    1.255700 A    
C118  C142  1.409672 A    
C172  C186  1.405061 A    
C168  C184  1.392583 A    
C87   C103  1.392180 A    
C69   C93   1.408389 A    
C66   C90   1.408331 A    
C158  C174  1.392527 A    
O6    Zn2   1.928524 S    
C96   H16   1.078366 S    
C124  C134  1.417895 A    
C72   C96   1.408591 A    
N22   O92   1.301478 A    
C60   C74   1.415075 A    
C18   C26   1.385244 S    
C71   C79   1.415502 A    
C153  C193  1.400887 A    
C160  H24   1.082939 S    
C161  H25   1.082905 S    
N16   O79   1.301124 A    
C97   C113  1.414763 A    
C163  C179  1.392583 A    
C165  C199  1.400852 A    
C150  O62   1.348711 S    
N21   O90   1.301435 A    
C109  N21   1.434522 S    
O24   C44   1.296748 A    
C103  N15   1.434927 S    
C37   C53   1.407017 S    
O48   Zn12  1.983347 S    
C170  C186  1.405062 A    
N3    C195  1.433678 S    
C182  H46   1.082919 S    
O10   C6    1.255696 A    
C86   C102  1.391773 A    
C146  O58   1.348670 S    
C125  C135  1.417959 A    
O33   Zn5   1.983350 S    
N12   O72   1.301467 A    
O35   Zn7   1.983352 S    
C155  C171  1.392531 A    
C156  C172  1.392583 A    
N20   O87   1.301121 A    
C138  O50   1.348703 S    
C92   C108  1.391779 A    
O42   C54   1.288215 A    
C33   C49   1.407017 S    
C106  C122  1.414791 A    
N19   O85   1.301191 A    
C162  C178  1.392532 A    
O13   Zn4   1.928521 S    
C159  H23   1.082904 S    
C152  O64   1.348709 S    
C121  C133  1.417588 A    
C104  C120  1.414788 A    
C177  H41   1.082935 S    
C154  C194  1.399940 A    
N9    O66   1.301441 A    
N17   O82   1.301413 A    
C116  C140  1.409595 A    
C144  O56   1.348668 S    
C78   C134  1.421421 A    
C148  N6    1.364902 A    
C59   C83   1.408398 A    
C169  C185  1.404700 A    
C64   C76   1.415430 A    
C30   C38   1.189086 T    
O3    Zn1   1.928521 S    
C36   C52   1.407015 S    
C163  C197  1.400175 A    
C150  N8    1.364520 A    
O40   Zn8   1.983347 S    
C106  N18   1.434488 S    
C5    C14   1.406999 S    
C86   H6    1.078233 S    
C65   C77   1.415014 A    
N7    C199  1.435050 S    
C139  O51   1.348685 S    
C57   C81   1.408399 A    
C140  O52   1.348703 S    
C177  C189  1.404853 A    
C116  C130  1.417614 A    
N11   O69   1.301159 A    
C167  H31   1.082939 S    
C145  N5    1.364727 A    
C110  C126  1.414685 A    
C164  C198  1.400950 A    
C93   H13   1.078223 S    
O41   Zn9   1.983350 S    
C75   C131  1.421163 A    
O43   C55   1.288214 A    
C114  C130  1.417616 A    
N10   O68   1.301468 A    
C168  H32   1.082915 S    
C126  C150  1.409589 A    
C175  H39   1.082933 S    
N24   O96   1.301475 A    
C151  N7    1.364820 A    
O9    Zn3   1.928523 S    
N1    C193  1.435100 S    
C144  N4    1.364903 A    
C34   C50   1.407015 S    
C120  C144  1.409677 A    
O47   Zn9   1.983355 S    
N15   O78   1.301412 A    
C83   C99   1.391735 A    
O5    C3    1.255700 A    
C72   C80   1.415081 A    
O47   C55   1.288204 A    
O28   Zn12  2.069536 S    
C165  C181  1.392525 A    
C8    C13   1.407003 S    
O29   Zn11  2.069530 S    
C13   C21   1.189088 T    
N4    C196  1.435206 S    
C71   C95   1.408389 A    
C105  C121  1.414798 A    
C94   C110  1.392195 A    
O31   C47   1.296784 A    
O15   Zn4   1.928524 S    
C163  H27   1.082905 S    
C123  C133  1.417586 A    
O2    Zn1   1.928524 S    
C102  N14   1.434487 S    
C161  C197  1.400175 A    
O25   C45   1.296743 A    
C181  H45   1.082939 S    
O5    Zn2   1.928521 S    
O36   Zn8   1.983352 S    
C93   C109  1.391728 A    
C175  C187  1.404852 A    
C164  C180  1.392532 A    
C176  C188  1.404655 A    
C149  O61   1.348684 S    
C142  O54   1.348672 S    
O16   Zn4   1.928527 S    
N5    C197  1.433673 S    
O2    C2    1.255696 A    
C171  C185  1.404699 A    
O17   Zn5   2.069536 S    
N18   O84   1.301378 A    
O42   Zn10  1.983349 S    
C29   C37   1.189085 T    
C155  H19   1.082941 S    
O26   Zn10  2.069536 S    
C6    C15   1.407003 S    
C156  H20   1.082913 S    
O8    C4    1.255701 A    
N2    C194  1.433253 S    
C83   H3    1.078229 S    
C153  C169  1.392531 A    
C143  O55   1.348677 S    
C162  H26   1.082937 S    
C35   C51   1.407017 S    
C141  O53   1.348676 S    
O21   Zn7   2.069530 S    
O41   C53   1.288214 A    
O23   Zn5   2.069531 S    
C179  H43   1.082935 S    
O43   Zn11  1.983352 S    
C180  H44   1.082947 S    
C146  N6    1.364902 A    
N8    C200  1.433203 S    
C183  H47   1.082940 S    
C41   C185  1.468392 S    
O16   C8    1.255696 A    
C99   C115  1.414767 A    
O1    Zn1   1.928523 S    
C172  H36   1.082918 S    
C26   C34   1.189086 T    
N14   O76   1.301383 A    
C162  C198  1.400951 A    
N19   O86   1.301414 A    
C4    C9    1.407003 S    
N23   O94   1.301438 A    
O6    C2    1.255700 A    
C107  C123  1.414797 A    
C114  C138  1.409595 A    
C102  C118  1.414790 A    
C99   N11   1.434539 S    
C120  C132  1.417894 A    
C108  C124  1.414787 A    
C154  H18   1.082913 S    
C61   C75   1.415012 A    
C38   C54   1.407015 S    
C121  C145  1.409652 A    
C59   C73   1.415502 A    
O18   Zn6   2.069536 S    
C159  C175  1.392583 A    
C173  C187  1.404849 A    
C62   C76   1.415429 A    
C174  C188  1.404655 A    
O27   Zn11  2.069536 S    
C43   C187  1.468280 S    
C44   C188  1.468297 S    
N11   O70   1.301437 A    
C63   C87   1.408470 A    
N16   O80   1.301386 A    
C168  C200  1.399905 A    
C141  N3    1.364726 A    
C61   C85   1.408469 A    
C31   C39   1.189085 T    
O38   Zn6   1.983349 S    
C160  C196  1.400952 A    
O33   C49   1.288204 A    
C27   C35   1.189085 T    
N21   O89   1.301156 A    
O19   C41   1.296773 A    
C28   C36   1.189086 T    
C66   C78   1.415429 A    
C127  C135  1.417961 A    
C127  C151  1.409671 A    
C58   C82   1.408580 A    
C176  H40   1.082947 S    
C115  C129  1.417945 A    
O37   Zn7   1.983352 S    
C157  H21   1.082904 S    
C42   C186  1.468717 S    
O27   C45   1.296745 A    
C111  C127  1.414764 A    
C98   N10   1.435000 S    
C142  N4    1.364904 A    
O39   Zn5   1.983355 S    
C109  C125  1.414765 A    
C167  C199  1.400855 A    
C47   C191  1.468448 S    
C24   C32   1.385244 S    
N13   O74   1.301411 A    
C112  C128  1.414686 A    
C113  C129  1.417942 A    
C164  H28   1.082938 S    
C11   C19   1.189088 T    
C12   C20   1.189088 T    
N20   O88   1.301381 A    
C84   H4    1.078360 S    
C46   C190  1.468297 S    
C95   C111  1.391728 A    
O15   C5    1.255700 A    
C137  N1    1.364844 A    
C128  C136  1.417618 A    
C183  C191  1.404727 A    
C124  C148  1.409677 A    
C171  H35   1.082944 S    
C67   C77   1.415013 A    
O14   Zn4   1.928524 S    
N13   O73   1.301193 A    
C101  C117  1.414798 A    
C82   H2    1.078361 S    
O28   C46   1.296749 A    
C64   C65   1.420174 A    
