data_mof_unit_32494.cif
_audit_creation_date              2013-03-05T15:53:43-0500
_audit_creation_method            fapswitch 2.2
_symmetry_space_group_name_H-M    P1
_symmetry_Int_Tables_number       1
_space_group_crystal_system       triclinic
_cell_length_a                    14.957567
_cell_length_b                    14.717155
_cell_length_c                    17.117852
_cell_angle_alpha                 108.917484
_cell_angle_beta                  106.441295
_cell_angle_gamma                 107.821851
_cell_volume                      3072.74266148

loop_
_atom_site_label
_atom_site_type_symbol
_atom_site_description
_atom_site_fract_x
_atom_site_fract_y
_atom_site_fract_z
_atom_type_partial_charge
C1    C     C_R   0.089646 0.274343 0.049236 -0.124394
H1    H     H_    0.168063 0.290794 0.088571 0.103471
N1    N     N_R   0.055640 0.348550 0.045600 -0.042410
C2    C     C_R   0.935675 0.525947 0.750709 0.244752
N2    N     N_R   0.960830 0.507850 0.823710 -0.096259
C3    C     C_R   0.766036 0.198546 0.811478 0.019340
N3    N     N_R   0.811290 0.303400 0.871650 -0.070077
C4    C     C_R   0.253080 0.529788 0.945566 -0.102781
H2    H     H_    0.259356 0.559575 0.897117 0.137662
N4    N     N_R   0.205180 0.552990 0.997660 -0.045422
C5    C     C_R   0.798244 0.298995 0.740328 -0.050151
H3    H     H_    0.811140 0.324415 0.690698 0.128007
N5    N     N_R   0.814810 0.361830 0.823710 -0.039817
C6    C     C_R   0.258324 0.441474 0.029259 -0.129182
H4    H     H_    0.278390 0.395187 0.062451 0.092107
N6    N     N_R   0.201660 0.494570 0.045600 -0.041317
C7    C     C_R   0.107586 0.604770 0.824146 -0.117981
H5    H     H_    0.187411 0.661076 0.849306 0.145686
N7    N     N_R   0.068420 0.560530 0.871650 -0.073294
C8    C     C_R   0.917890 0.191809 0.974858 -0.141377
H6    H     H_    0.839218 0.134828 0.948313 0.113728
N8    N     N_R   0.948050 0.295860 0.997660 -0.043492
C9    C     C_R   0.005039 0.173816 0.000254 0.068375
C10   C     C_R   0.025949 0.582372 0.747313 -0.034187
C11   C     C_R   0.763943 0.195411 0.728408 -0.030330
C12   C     C_R   0.289123 0.460669 0.964413 0.070003
C13   C     C_R   0.271341 0.692958 0.254391 -0.129406
H7    H     H_    0.296064 0.661536 0.301161 0.095920
N9    N     N_R   0.185190 0.638170 0.176290 -0.043357
C14   C     C_R   0.702429 0.491828 0.911169 0.268890
N10   N     N_R   0.798340 0.505430 0.954400 -0.091687
C15   C     C_R   0.889969 0.465986 0.186269 -0.119476
H8    H     H_    0.807924 0.439969 0.166967 0.103113
N11   N     N_R   0.931580 0.439470 0.128350 -0.040527
C16   C     C_R   0.079394 0.808212 0.051019 -0.083433
H9    H     H_    0.157841 0.869126 0.094488 0.124377
N12   N     N_R   0.051950 0.704140 0.002340 -0.051837
C17   C     C_R   0.907989 0.724309 0.978429 -0.065034
H10   H     H_    0.827447 0.707816 0.958104 0.134727
N13   N     N_R   0.944360 0.651450 0.954400 -0.042373
C18   C     C_R   0.062881 0.546160 0.264628 -0.120036
H11   H     H_    0.140558 0.588929 0.317943 0.109052
N14   N     N_R   0.039170 0.492150 0.176290 -0.043943
C19   C     C_R   0.274812 0.787488 0.176050 -0.156329
H12   H     H_    0.303744 0.841271 0.149019 0.116026
N15   N     N_R   0.188710 0.696600 0.128350 -0.042748
C20   C     C_R   0.698401 0.406181 0.996097 -0.222876
H13   H     H_    0.670564 0.347128 0.018770 0.128299
N16   N     N_R   0.794820 0.447010 0.002340 -0.060337
Ni1   Ni    Ni4+2 0.119330 0.493420 0.109950 0.210656
Ni2   Ni    Ni4+2 0.880670 0.506580 0.890050 0.327905
Ni3   Ni    Ni4+2 0.872590 0.372590 0.000000 0.208729
Ni4   Ni    Ni4+2 0.127410 0.627410 0.000000 0.230361
C21   C     C_R   0.328189 0.787734 0.255626 0.077992
C22   C     C_R   0.638472 0.433639 0.938951 -0.067621
C23   C     C_R   0.970223 0.533239 0.272980 0.043848
C24   C     C_R   0.990606 0.824256 0.039100 0.010373
C25   C     C_R   0.401326 0.473004 0.882328 0.061545
C26   C     C_R   0.353704 0.423087 0.926635 -0.000535
C27   C     C_R   0.379845 0.344786 0.942832 -0.155863
H14   H     H_    0.341177 0.300030 0.972124 0.141096
C28   C     C_R   0.467139 0.335283 0.934090 -0.175842
H15   H     H_    0.493085 0.283869 0.957393 0.149264
C29   C     C_R   0.527968 0.404350 0.909219 0.080518
C30   C     C_R   0.485977 0.462012 0.872393 0.157368
C31   C     C_3   0.534966 0.572788 0.881848 -0.537715
C32   C     C_3   0.442235 0.586683 0.893288 0.232671
H16   H     H_    0.610237 0.625613 0.942965 0.158009
H17   H     H_    0.538285 0.571480 0.817474 0.272263
C33   C     C_R   0.955840 0.564306 0.357659 0.053654
C34   C     C_R   0.028569 0.612427 0.674691 0.121583
C35   C     C_R   0.100679 0.731156 0.614945 0.311239
C36   C     C_R   0.103548 0.707830 0.688831 -0.254922
C37   C     C_R   0.948116 0.543279 0.588949 -0.171079
C38   C     C_R   0.944685 0.563440 0.515579 0.130723
C39   C     C_R   0.026860 0.651688 0.524591 -0.038763
C40   C     C_R   0.034265 0.650532 0.442988 -0.042604
C41   C     C_R   0.865880 0.492882 0.354087 -0.171558
C42   C     C_R   0.861262 0.491219 0.432226 -0.156784
H18   H     H_    0.803172 0.428516 0.290735 0.124882
H19   H     H_    0.795484 0.427711 0.426697 0.134522
H20   H     H_    0.160716 0.765870 0.757432 0.181826
H21   H     H_    0.889025 0.469651 0.577955 0.132072
C43   C     C_R   0.706799 0.105850 0.637273 0.132039
C44   C     C_R   0.427837 0.871821 0.324843 0.116824
C45   C     C_R   0.532038 0.061213 0.415002 -0.209266
C46   C     C_R   0.451040 0.976477 0.336645 -0.218281
C47   C     C_R   0.493729 0.851097 0.385670 -0.300644
C48   C     C_R   0.574577 0.936249 0.465545 0.177157
C49   C     C_R   0.589133 0.041183 0.481689 0.169970
C50   C     C_R   0.653368 0.124139 0.567110 -0.262141
C51   C     C_R   0.703564 0.004610 0.618467 -0.139484
C52   C     C_R   0.635611 0.918904 0.532848 -0.219280
H22   H     H_    0.655247 0.201934 0.579839 0.167469
H23   H     H_    0.752242 0.991575 0.669401 0.126747
H24   H     H_    0.544659 0.141927 0.426469 0.152264
H25   H     H_    0.628284 0.839361 0.520347 0.143234
H26   H     H_    0.401517 0.993607 0.289480 0.136783
H27   H     H_    0.477502 0.769804 0.374474 0.129792
C53   C     C_R   0.097985 0.057456 0.976024 0.094170
C54   C     C_R   0.006541 0.067810 0.971138 0.082238
C55   C     C_R   0.913087 0.972289 0.923451 -0.259951
H28   H     H_    0.840514 0.973433 0.921109 0.140945
C56   C     C_R   0.910554 0.874970 0.870080 -0.145107
H29   H     H_    0.837168 0.804485 0.828305 0.193527
C57   C     C_R   0.001339 0.870575 0.865445 0.120754
C58   C     C_R   0.095093 0.960520 0.924942 0.022504
C59   C     C_3   0.183855 0.012440 0.906333 0.260963
C60   C     C_3   0.187253 0.119001 0.962146 -0.663226
H30   H     H_    0.163377 0.991976 0.833087 0.105886
H31   H     H_    0.258073 0.171094 0.027467 0.217051
H32   H     H_    0.165803 0.159796 0.920533 0.198590
N17   N     N_R   0.667327 0.485550 0.821647 0.234695
O1    O     O_R   0.711204 0.566274 0.808023 -0.385398
O2    O     O_R   0.593233 0.397404 0.752471 -0.366617
N18   N     N_R   0.840818 0.533285 0.712719 0.248689
O3    O     O_R   0.843952 0.621927 0.710999 -0.389153
O4    O     O_R   0.751969 0.449369 0.670876 -0.372561
C61   C     C_R   0.472105 0.675340 0.987205 0.045992
C62   C     C_R   0.442041 0.758930 0.995876 -0.085238
C63   C     C_R   0.471528 0.839860 0.081852 -0.118899
C64   C     C_R   0.530809 0.838697 0.160436 -0.102587
C65   C     C_R   0.559625 0.755826 0.153437 -0.075192
C66   C     C_R   0.530766 0.674842 0.067738 -0.166272
H33   H     H_    0.395176 0.762224 0.936817 0.162020
H34   H     H_    0.448408 0.903739 0.087531 0.160457
H35   H     H_    0.554544 0.902106 0.226803 0.129847
H36   H     H_    0.604936 0.754616 0.214530 0.113960
H37   H     H_    0.554624 0.611786 0.064392 0.116243
N19   N     N_R   0.380255 0.596491 0.815183 0.234193
O5    O     O_R   0.288684 0.520515 0.755932 -0.402214
O6    O     O_R   0.422163 0.675113 0.798132 -0.421776
C67   C     C_R   0.125305 0.731583 0.445891 0.132089
C68   C     C_R   0.111183 0.796373 0.403246 -0.056320
C69   C     C_R   0.197015 0.876827 0.410253 -0.092168
C70   C     C_R   0.297223 0.892778 0.459394 -0.062656
C71   C     C_R   0.311904 0.826106 0.499037 -0.065622
C72   C     C_R   0.226340 0.745239 0.491901 -0.143966
H38   H     H_    0.033962 0.786076 0.366457 0.109022
H39   H     H_    0.185928 0.927687 0.378533 0.117050
H40   H     H_    0.363517 0.956695 0.466590 0.131450
H41   H     H_    0.389610 0.837754 0.535992 0.128080
H42   H     H_    0.238648 0.694624 0.523604 0.130729
N20   N     N_R   0.164859 0.837989 0.634376 0.235558
O7    O     O_R   0.123604 0.889608 0.599231 -0.393334
O8    O     O_R   0.257590 0.890825 0.700676 -0.421379
C73   C     C_R   0.681728 0.117872 0.815962 0.136043
C74   C     C_R   0.600523 0.140458 0.828123 -0.177114
C75   C     C_R   0.517771 0.064656 0.829020 -0.056558
C76   C     C_R   0.514863 0.965163 0.817217 0.006431
C77   C     C_R   0.594393 0.941194 0.803837 -0.125000
C78   C     C_R   0.677015 0.016747 0.802495 -0.215406
H43   H     H_    0.600020 0.215885 0.834773 0.151222
H44   H     H_    0.455533 0.082866 0.838145 0.182998
H45   H     H_    0.450932 0.906587 0.818204 0.174583
H46   H     H_    0.592298 0.864188 0.794873 0.161954
H47   H     H_    0.738955 0.997487 0.794462 0.116919
N21   N     N_R   0.276119 0.000663 0.950090 0.256061
O9    O     O_R   0.365371 0.061398 0.957834 -0.423107
O10   O     O_R   0.268346 0.922409 0.971725 -0.456749

loop_
_geom_bond_atom_site_label_1
_geom_bond_atom_site_label_2
_geom_bond_distance
_ccdc_geom_bond_type
C31   H16   1.112024 S    
C71   H41   1.082587 S    
C54   C55   1.415527 A    
C3    C73   1.484310 S    
C13   N9    1.337101 A    
C4    C12   1.370960 A    
C18   H11   1.076418 S    
C16   H9    1.078655 S    
C37   H21   1.085435 S    
C35   C39   1.431470 A    
C56   C57   1.402087 A    
C49   C50   1.371478 A    
C13   C21   1.383385 A    
C65   C66   1.397073 A    
C20   N16   1.339061 A    
C61   C66   1.412831 A    
N18   O3    1.301229 A    
C28   H15   1.081714 S    
N8    Ni3   1.824066 S    
C16   N12   1.342663 A    
N6    Ni1   1.870117 S    
N3    Ni3   1.882086 S    
N12   N13   1.393018 A    
C72   H42   1.082964 S    
C60   H31   1.112072 S    
C14   N10   1.331526 A    
C2    C10   1.380433 A    
C41   H18   1.080466 S    
C3    C11   1.398752 A    
C33   C41   1.401872 A    
C57   C58   1.391813 A    
C5    C11   1.374464 A    
C59   C60   1.525471 S    
C27   C28   1.398437 A    
C1    H1    1.077571 S    
C64   H35   1.081205 S    
N4    Ni4   1.825411 S    
C53   C54   1.404320 A    
C28   C29   1.405732 A    
N5    Ni2   1.819832 S    
C73   C74   1.405190 A    
C59   H30   1.112596 S    
C4    H2    1.069307 S    
C11   C43   1.457364 S    
C77   C78   1.398447 A    
C43   C50   1.396992 A    
C12   C26   1.451189 S    
C46   H26   1.082511 S    
N12   Ni4   1.824066 S    
C47   C48   1.388420 A    
N7    Ni4   1.882366 S    
C31   C32   1.518356 S    
C53   C60   1.496152 S    
C75   H44   1.082007 S    
C33   C40   1.427213 A    
N21   O10   1.302314 A    
C18   N14   1.337426 A    
C40   C67   1.486145 S    
N10   N16   1.367356 A    
C56   H29   1.081668 S    
N1    Ni1   1.818387 S    
C19   N15   1.325370 A    
N9    Ni1   1.819831 S    
C44   C46   1.401767 A    
C69   H39   1.082203 S    
C7    C10   1.375832 A    
C37   C38   1.372050 A    
N11   N14   1.393015 A    
C69   C70   1.397203 A    
C17   H10   1.077169 S    
C74   C75   1.397665 A    
N20   O8    1.301162 A    
C45   C49   1.392755 A    
C60   H32   1.112059 S    
C68   H38   1.083011 S    
C42   H19   1.085168 S    
C45   C46   1.375786 A    
C35   C36   1.406829 A    
C25   C26   1.403233 A    
C51   H23   1.077829 S    
C27   H14   1.079301 S    
C1    N1    1.349625 A    
C15   N11   1.330312 A    
N21   O9    1.300494 A    
N19   O6    1.302159 A    
C38   C39   1.416665 A    
C18   C23   1.394949 A    
C70   H40   1.080769 S    
C34   C37   1.385662 A    
C17   C24   1.392705 A    
C25   C30   1.373947 A    
C20   H13   1.080733 S    
C8    C9    1.386897 A    
N3    N5    1.367475 A    
C58   C59   1.491402 S    
N16   Ni3   1.825410 S    
C22   C29   1.456794 S    
C7    H5    1.081488 S    
C26   C27   1.406893 A    
C77   H46   1.082461 S    
C6    C12   1.391889 A    
C61   C62   1.412685 A    
C55   C56   1.409335 A    
C63   C64   1.394655 A    
C3    N3    1.354895 A    
C45   H24   1.084345 S    
C8    N8    1.338182 A    
C1    C9    1.393682 A    
C23   C33   1.470857 S    
C76   H45   1.082523 S    
C67   C68   1.405012 A    
C6    N6    1.343535 A    
C32   N19   1.474194 S    
C74   H43   1.081158 S    
C52   H25   1.083505 S    
C36   H20   1.083467 S    
C62   C63   1.397685 A    
C20   C22   1.380373 A    
N17   O1    1.298287 A    
C14   C22   1.376529 A    
C44   C47   1.399127 A    
C35   N20   1.435445 S    
C78   H47   1.079447 S    
C53   C58   1.390575 A    
C41   C42   1.366361 A    
C2    N18   1.436891 S    
C19   H12   1.081237 S    
N10   Ni2   1.870119 S    
C2    N2    1.336058 A    
C21   C44   1.441318 S    
C5    H3    1.074058 S    
N14   Ni1   1.870381 S    
C68   C69   1.398152 A    
N2    N7    1.393015 A    
N13   Ni2   1.818386 S    
C71   C72   1.397923 A    
N11   Ni3   1.882363 S    
C76   C77   1.396669 A    
C16   C24   1.389576 A    
N9    N15   1.367474 A    
N20   O7    1.301147 A    
C15   H8    1.078243 S    
C73   C78   1.406120 A    
C64   C65   1.394225 A    
C63   H34   1.082421 S    
N4    N6    1.367357 A    
C75   C76   1.396769 A    
C29   C30   1.400374 A    
C50   H22   1.083603 S    
C17   N13   1.346363 A    
C39   C40   1.427275 A    
C5    N5    1.325698 A    
C65   H36   1.082391 S    
C9    C54   1.485416 S    
C38   C42   1.385479 A    
N15   Ni4   1.882083 S    
C51   C52   1.394786 A    
C7    N7    1.344560 A    
N18   O4    1.298980 A    
C66   H37   1.082430 S    
N19   O5    1.302226 A    
C62   H33   1.080375 S    
C48   C52   1.401374 A    
C55   H28   1.080377 S    
C47   H27   1.083635 S    
C31   H17   1.111269 S    
C19   C21   1.368336 A    
C25   C32   1.521013 S    
C67   C72   1.407914 A    
C59   N21   1.463226 S    
C8    H6    1.068007 S    
C4    N4    1.318740 A    
C30   C31   1.500516 S    
C34   C36   1.396362 A    
C13   H7    1.081077 S    
C6    H4    1.075414 S    
N2    Ni2   1.870378 S    
N1    N8    1.393017 A    
C43   C51   1.400716 A    
C48   C49   1.411421 A    
C32   C61   1.537235 S    
C15   C23   1.391158 A    
C70   C71   1.396710 A    
C10   C34   1.454673 S    
N17   O2    1.301673 A    
C14   N17   1.433732 S    
