data_mof_unit_15726.cif
_audit_creation_date              2013-03-05T15:51:58-0500
_audit_creation_method            fapswitch 2.2
_symmetry_space_group_name_H-M    P1
_symmetry_Int_Tables_number       1
_space_group_crystal_system       triclinic
_cell_length_a                    23.107581
_cell_length_b                    7.297406
_cell_length_c                    15.112435
_cell_angle_alpha                 89.957566
_cell_angle_beta                  107.829091
_cell_angle_gamma                 90.007353
_cell_volume                      2425.95327436

loop_
_atom_site_label
_atom_site_type_symbol
_atom_site_description
_atom_site_fract_x
_atom_site_fract_y
_atom_site_fract_z
_atom_type_partial_charge
O1    O     O_R   0.711000 0.648610 0.341170 -0.595974
O2    O     O_R   0.289000 0.351390 0.658830 -0.561005
O3    O     O_R   0.789000 0.148610 0.158830 -0.592616
O4    O     O_R   0.211000 0.851390 0.841170 -0.569897
O5    O     O_R   0.829650 0.322030 0.336650 -0.573663
O6    O     O_R   0.170350 0.677970 0.663350 -0.585832
O7    O     O_R   0.670350 0.822030 0.163350 -0.574525
O8    O     O_R   0.329650 0.177970 0.836650 -0.590457
C1    C     C_R   0.854337 0.485783 0.356576 1.028357
C2    C     C_R   0.145662 0.514232 0.643424 1.026869
C3    C     C_R   0.645617 0.985796 0.143593 1.032177
C4    C     C_R   0.354333 0.014165 0.856585 1.022956
O9    O     O_R   0.713950 0.319280 0.352070 -0.561265
O10   O     O_R   0.286050 0.680720 0.647930 -0.596169
O11   O     O_R   0.786050 0.819280 0.147930 -0.567717
O12   O     O_R   0.213950 0.180720 0.852070 -0.587843
O13   O     O_R   0.672470 0.142870 0.174360 -0.588187
O14   O     O_R   0.327530 0.857130 0.825640 -0.570930
O15   O     O_R   0.827530 0.642870 0.325640 -0.583625
O16   O     O_R   0.172470 0.357130 0.674360 -0.572497
C5    C     C_R   0.701160 0.487644 0.375816 1.119099
C6    C     C_R   0.298801 0.512882 0.624118 1.115068
C7    C     C_R   0.797483 0.987705 0.123089 1.131203
C8    C     C_R   0.202731 0.012227 0.877143 1.123433
O17   O     O_3   0.736530 0.478650 0.191680 -0.292558
O18   O     O_3   0.263470 0.521350 0.808320 -0.287763
O19   O     O_3   0.763470 0.978650 0.308320 -0.289144
O20   O     O_3   0.236530 0.021350 0.691680 -0.286724
V1    V     V_3+5 0.752500 0.206170 0.260820 1.313448
V2    V     V_3+5 0.247500 0.793830 0.739180 1.314549
V3    V     V_3+5 0.747500 0.706170 0.239180 1.311173
V4    V     V_3+5 0.252500 0.293830 0.760820 1.314147
C9    C     C_R   0.826160 0.996441 0.049440 -0.490648
C10   C     C_R   0.173855 0.002940 0.950547 -0.484963
C11   C     C_R   0.672587 0.500547 0.450249 -0.475597
C12   C     C_R   0.327233 0.509826 0.549293 -0.477007
C13   C     C_R   0.822722 0.013124 0.888123 -0.078889
C14   C     C_R   0.177259 0.001916 0.112000 -0.078639
C15   C     C_R   0.677322 0.580969 0.607769 -0.086065
C16   C     C_R   0.322134 0.569930 0.389421 -0.086793
C17   C     C_R   0.791990 0.015650 0.954861 0.245953
C18   C     C_R   0.207948 0.988558 0.045370 0.238598
C19   C     C_R   0.707401 0.540791 0.542495 0.242033
C20   C     C_R   0.292270 0.539693 0.455982 0.249444
C21   C     C_R   0.889657 0.987830 0.075810 0.776569
C22   C     C_R   0.110497 0.017091 0.924097 0.776676
C23   C     C_R   0.608844 0.499740 0.425362 0.773490
C24   C     C_R   0.390972 0.509666 0.574004 0.776356
C25   C     C_R   0.920869 0.010387 0.009502 -0.065371
C26   C     C_R   0.079093 0.000914 0.990481 -0.066424
C27   C     C_R   0.578391 0.560494 0.488517 -0.061210
C28   C     C_R   0.421155 0.562010 0.509024 -0.062599
C29   C     C_R   0.886383 0.001331 0.914563 -0.249476
C30   C     C_R   0.113570 0.014423 0.085322 -0.245654
C31   C     C_R   0.613593 0.590239 0.582030 -0.242044
C32   C     C_R   0.385818 0.580774 0.414746 -0.244699
C33   C     C_R   0.985368 0.027037 0.034138 -0.143705
C34   C     C_R   0.014530 0.986060 0.965745 -0.145175
C35   C     C_R   0.514028 0.586915 0.462734 -0.154258
C36   C     C_R   0.485361 0.591221 0.533931 -0.152887
C37   C     C_R   0.978023 0.929318 0.875636 0.265028
C38   C     C_R   0.021666 0.085511 0.124018 0.265209
C39   C     C_R   0.521546 0.639246 0.625530 0.267683
C40   C     C_R   0.477600 0.623709 0.369769 0.267516
C41   C     C_R   0.915299 0.961422 0.848104 0.718031
C42   C     C_R   0.084616 0.057452 0.151388 0.720262
C43   C     C_R   0.585099 0.635414 0.648600 0.714073
C44   C     C_R   0.414083 0.617278 0.346848 0.715458
H1    H     H_    0.796495 0.012994 0.815144 0.226861
H2    H     H_    0.203311 0.003830 0.185030 0.229021
H3    H     H_    0.704126 0.606535 0.679179 0.226675
H4    H     H_    0.295175 0.587315 0.317375 0.226961
C45   C     C_1   0.416787 0.006762 0.918638 -0.152062
C46   C     C_1   0.583138 0.993020 0.081613 -0.147677
C47   C     C_1   0.083193 0.507005 0.581418 -0.153637
C48   C     C_1   0.916807 0.493024 0.418577 -0.154597
C49   C     C_1   0.469127 0.002140 0.970010 0.164008
C50   C     C_1   0.530787 0.997448 0.030269 0.164364
C51   C     C_1   0.030838 0.502421 0.530096 0.161891
C52   C     C_1   0.969163 0.497607 0.469895 0.162166
F1    F     F_    0.881349 0.927497 0.758870 -0.604709
F2    F     F_    0.118593 0.096534 0.240056 -0.610283
F3    F     F_    0.619405 0.682792 0.735944 -0.611692
F4    F     F_    0.379543 0.653894 0.258138 -0.607418
F5    F     F_    0.080812 0.066129 0.834905 -0.674569
F6    F     F_    0.919867 0.938849 0.164808 -0.673396
F7    F     F_    0.422651 0.450694 0.660569 -0.668274
F8    F     F_    0.577449 0.430406 0.340897 -0.670254
N1    N     N_R   0.273259 0.971334 0.075291 0.256926
O21   O     O_R   0.305046 0.024248 0.158163 -0.308530
O22   O     O_R   0.300929 0.886766 0.024100 -0.385244
N2    N     N_R   0.726597 0.028107 0.924731 0.259330
O23   O     O_R   0.698349 0.107843 0.846309 -0.313306
O24   O     O_R   0.694572 0.945341 0.970056 -0.394829
N3    N     N_R   0.226774 0.538164 0.427473 0.254854
O25   O     O_R   0.195809 0.627364 0.353505 -0.319687
O26   O     O_R   0.197701 0.433835 0.469413 -0.386785
N4    N     N_R   0.772913 0.539586 0.571386 0.249396
O27   O     O_R   0.803601 0.634872 0.643189 -0.287297
O28   O     O_R   0.802290 0.429499 0.532679 -0.399545
N5    N     N_R   0.002121 0.815295 0.817484 0.284214
O29   O     O_R   0.039710 0.683302 0.854226 -0.379143
O30   O     O_R   0.982125 0.830098 0.727365 -0.251495
N6    N     N_R   0.996812 0.196593 0.182359 0.283662
O31   O     O_R   0.016892 0.181210 0.272448 -0.252172
O32   O     O_R   0.958204 0.326325 0.145845 -0.379879
N7    N     N_R   0.495117 0.723937 0.690100 0.285571
O33   O     O_R   0.517011 0.691418 0.778825 -0.256264
O34   O     O_R   0.453136 0.848278 0.661389 -0.382386
N8    N     N_R   0.503558 0.700222 0.302617 0.285839
O35   O     O_R   0.481878 0.657056 0.215100 -0.257141
O36   O     O_R   0.544836 0.827534 0.327312 -0.383831

loop_
_geom_bond_atom_site_label_1
_geom_bond_atom_site_label_2
_geom_bond_distance
_ccdc_geom_bond_type
O17   V3    1.796217 S    
C14   H2    1.083440 S    
O18   V4    1.796219 S    
N5    O29   1.301783 A    
C13   H1    1.083679 S    
O19   V1    1.795294 S    
C9    C21   1.399112 A    
O3    C7    1.332185 A    
N3    O25   1.301721 A    
C10   C18   1.411971 A    
C19   N4    1.441396 S    
O15   V3    1.964743 S    
N6    O32   1.301791 A    
C25   C33   1.426521 A    
C33   C38   1.426085 A    
C49   C50   1.437351 S    
O1    C5    1.333236 A    
C35   C40   1.424706 A    
C26   C30   1.414087 A    
C36   C39   1.424799 A    
C40   C44   1.401816 A    
O9    V1    2.032385 S    
C14   C18   1.401326 A    
O4    C8    1.331997 A    
O1    V3    2.014562 S    
O13   V1    1.965085 S    
C31   C43   1.400172 A    
O2    V4    2.014565 S    
O3    V1    2.015086 S    
N8    O35   1.301645 A    
C28   C36   1.430524 A    
C41   F1    1.359385 S    
C1    O15   1.318487 A    
C15   C31   1.404888 A    
C2    O16   1.318587 A    
C7    C9    1.460653 S    
O2    C6    1.336808 A    
N7    O33   1.301654 A    
C10   C22   1.398384 A    
C1    C48   1.461616 S    
N1    O22   1.300712 A    
C11   C19   1.410894 A    
C16   C20   1.400515 A    
O5    V1    1.989045 S    
C22   F5    1.359642 S    
C13   C29   1.403954 A    
C34   C37   1.426454 A    
O11   C7    1.334654 A    
C11   C23   1.404213 A    
C35   C36   1.426165 A    
O12   C8    1.334904 A    
C4    C45   1.461595 S    
N7    O34   1.301750 A    
O10   V2    2.032387 S    
N6    O31   1.301700 A    
C38   N6    1.440658 S    
C39   C43   1.401950 A    
O7    V3    1.988515 S    
C38   C42   1.400153 A    
C26   C34   1.426816 A    
C23   C27   1.419384 A    
C16   C32   1.404787 A    
C32   C44   1.400142 A    
C8    C10   1.460677 S    
C37   N5    1.440704 S    
C44   F4    1.360136 S    
O7    C3    1.318760 A    
O5    C1    1.318801 A    
C42   F2    1.360001 S    
C2    C47   1.461623 S    
C40   N8    1.439884 S    
C14   C30   1.404796 A    
C21   C25   1.412003 A    
O8    C4    1.318842 A    
N2    O24   1.300502 A    
C24   F7    1.358413 S    
O9    C5    1.338400 A    
C43   F3    1.360199 S    
O14   V2    1.965087 S    
O6    V2    1.989043 S    
N4    O28   1.300900 A    
C12   C20   1.410927 A    
C27   C35   1.430422 A    
C39   N7    1.439804 S    
C29   C41   1.396941 A    
O16   V4    1.964740 S    
C3    O13   1.318715 A    
C45   C49   1.221340 T    
C16   H4    1.083558 S    
C48   C52   1.221357 T    
C3    C46   1.461629 S    
O6    C2    1.318701 A    
C15   C19   1.400878 A    
N3    O26   1.300998 A    
O11   V3    2.031464 S    
C5    C11   1.471441 S    
O12   V4    2.031465 S    
C6    C12   1.471662 S    
C22   C26   1.411589 A    
C18   N1    1.442211 S    
C9    C17   1.412329 A    
C23   F8    1.358484 S    
O10   C6    1.334943 A    
O20   V2    1.795296 S    
C21   F6    1.359577 S    
C20   N3    1.441176 S    
C33   C34   1.427867 A    
O8    V4    1.988519 S    
C25   C29   1.413475 A    
N2    O23   1.301760 A    
C12   C24   1.404258 A    
C27   C31   1.415070 A    
C13   C17   1.400172 A    
N8    O36   1.301735 A    
C51   C52   1.437386 S    
C37   C41   1.399789 A    
C24   C28   1.419681 A    
C17   N2    1.441380 S    
N5    O30   1.301697 A    
N4    O27   1.301402 A    
C46   C50   1.221334 T    
C4    O14   1.318613 A    
C15   H3    1.083532 S    
N1    O21   1.301709 A    
C30   C42   1.397378 A    
C47   C51   1.221359 T    
O4    V2    2.015083 S    
C28   C32   1.415209 A    
