data_mof_unit_49687.cif
_audit_creation_date              2012-12-10T17:59:47-0500
_audit_creation_method            fapswitch 2.2
_symmetry_space_group_name_H-M    P1
_symmetry_Int_Tables_number       1
_space_group_crystal_system       triclinic
_cell_length_a                    10.823398
_cell_length_b                    9.636846
_cell_length_c                    15.898979
_cell_angle_alpha                 90.007736
_cell_angle_beta                  93.498669
_cell_angle_gamma                 89.802175
_cell_volume                      1655.21726319

loop_
_atom_site_label
_atom_site_type_symbol
_atom_type_description
_atom_site_fract_x
_atom_site_fract_y
_atom_site_fract_z
_atom_type_partial_charge
C1    C     C_R   0.263175 0.500290 0.498916 0.765073
C2    C     C_3   0.627435 0.494393 0.959083 0.511580
C3    C     C_3   0.618569 0.497329 0.057083 -0.486006
C4    C     C_1   0.491626 0.499578 0.824219 0.217687
C5    C     C_1   0.484350 0.499275 0.175390 0.178966
C6    C     C_1   0.489102 0.499764 0.250897 -0.010307
C7    C     C_R   0.058540 0.481016 0.422268 0.327809
C8    C     C_R   0.073321 0.522299 0.575494 0.359756
C9    C     C_R   0.929106 0.482401 0.422700 0.379026
C10   C     C_R   0.944646 0.515379 0.576576 0.330547
C11   C     C_R   0.872337 0.498696 0.500026 -0.443675
C12   C     C_R   0.129843 0.501400 0.498795 -0.343602
C13   C     C_R   0.438851 0.073582 0.436252 0.446858
C14   C     C_R   0.438797 0.926816 0.436285 0.442287
C15   C     C_R   0.495642 0.499973 0.340493 0.849770
C16   C     C_R   0.560902 0.926475 0.563863 0.433342
C17   C     C_R   0.560998 0.073166 0.563822 0.429603
C18   C     C_R   0.737614 0.499741 0.500226 1.004745
C19   C     C_R   0.497061 0.499996 0.659374 0.855022
C20   C     C_3   0.415426 0.633676 0.046619 0.604154
C21   C     C_3   0.416395 0.363771 0.046780 0.562702
C22   C     C_3   0.415107 0.368793 0.947402 0.151385
C23   C     C_3   0.425627 0.637618 0.948107 0.080278
C24   C     C_1   0.494449 0.499721 0.748802 0.064096
C25   C     C_3   0.481716 0.498511 0.082909 -0.058936
C26   C     C_3   0.487808 0.500045 0.916395 -0.338868
Cu1   Cu    Cu3+1 0.500020 0.640660 0.500000 1.034747
Cu2   Cu    Cu3+1 0.500020 0.359340 0.500000 1.033339
H1    H     H_    0.469125 0.279163 0.927332 0.166123
H2    H     H_    0.491822 0.720268 0.936199 0.212443
H3    H     H_    0.667631 0.588496 0.085712 0.265698
H4    H     H_    0.668241 0.407315 0.087243 0.251939
N1    N     N_R   0.500030 0.852070 0.500020 -0.348881
N2    N     N_R   0.500030 0.147930 0.500020 -0.343356
O1    O     O_R   0.319660 0.618740 0.500000 -0.605066
O2    O     O_R   0.319660 0.381260 0.500000 -0.594685
O3    O     O_R   0.500020 0.618840 0.379440 -0.550471
O4    O     O_R   0.500020 0.381160 0.379440 -0.555499
O5    O     O_R   0.680370 0.618830 0.500010 -0.582384
O6    O     O_R   0.680370 0.381170 0.500010 -0.568657
O7    O     O_R   0.500010 0.618730 0.620560 -0.558166
O8    O     O_R   0.500010 0.381270 0.620560 -0.565435
S1    S     S_3+6 0.294653 0.714699 0.887468 0.099415
O9    O     O_2   0.268765 0.853372 0.926069 -0.203635
O10   O     O_2   0.328265 0.738540 0.798299 -0.241537
O11   O     O_3   0.164030 0.621637 0.885766 -0.417280
H5    H     H_    0.101636 0.678396 0.852964 0.420205
S2    S     S_3+6 0.267394 0.323433 0.892912 0.117425
O12   O     O_2   0.254614 0.385019 0.806045 -0.222560
O13   O     O_2   0.264588 0.168091 0.884262 -0.204846
O14   O     O_3   0.143926 0.370857 0.945497 -0.385403
H6    H     H_    0.072552 0.326933 0.914141 0.418815
O15   O     O_3   0.626767 0.862454 0.629606 -0.590233
H7    H     H_    0.661812 0.776514 0.607867 0.384571
O16   O     O_3   0.627141 0.136826 0.629424 -0.622564
H8    H     H_    0.663629 0.221435 0.607291 0.384272
O17   O     O_3   0.291900 0.639684 0.070424 -0.619335
H9    H     H_    0.239898 0.579983 0.032465 0.414990
O18   O     O_3   0.295614 0.354171 0.074771 -0.640281
H10   H     H_    0.301636 0.325903 0.134934 0.369474
O19   O     O_3   0.484136 0.246358 0.076547 -0.682805
H11   H     H_    0.436632 0.162928 0.057397 0.380330
O20   O     O_3   0.477571 0.749623 0.082724 -0.641619
H12   H     H_    0.429483 0.833625 0.064854 0.389680
S3    S     S_3+6 0.722699 0.643228 0.929207 0.067451
O21   O     O_2   0.858184 0.614004 0.947095 -0.191441
O22   O     O_2   0.701055 0.674605 0.836948 -0.228835
O23   O     O_3   0.690595 0.786767 0.984371 -0.507623
H13   H     H_    0.735394 0.862732 0.957511 0.420917
S4    S     S_3+6 0.713786 0.337295 0.931322 0.063878
O24   O     O_2   0.846803 0.349363 0.963064 -0.186499
O25   O     O_2   0.665748 0.208090 0.970735 -0.270155
O26   O     O_3   0.709916 0.315657 0.826297 -0.460702
H14   H     H_    0.642582 0.248327 0.813005 0.376137
O27   O     O_3   0.111740 0.461103 0.346100 -0.610112
H15   H     H_    0.202505 0.472508 0.351796 0.306934
O28   O     O_3   0.140079 0.549650 0.650903 -0.588749
H16   H     H_    0.229793 0.554226 0.643512 0.335673
S5    S     S_3+6 0.837568 0.469004 0.325775 0.072918
O29   O     O_2   0.755410 0.344063 0.329320 -0.277077
O30   O     O_2   0.759024 0.597420 0.315402 -0.302751
O31   O     O_3   0.922581 0.453922 0.241084 -0.387237
H17   H     H_    0.861551 0.453327 0.192048 0.379989
S6    S     S_3+6 0.878078 0.530267 0.675754 0.108117
O32   O     O_2   0.859235 0.681395 0.694396 -0.214849
O33   O     O_2   0.756739 0.456231 0.674985 -0.323713
O34   O     O_3   0.972518 0.460470 0.752510 -0.389653
H18   H     H_    0.931243 0.478857 0.805274 0.421306
O35   O     O_3   0.372811 0.137652 0.370512 -0.628111
H19   H     H_    0.336808 0.223235 0.392153 0.359789
O36   O     O_3   0.372449 0.863142 0.370721 -0.618908
H20   H     H_    0.336660 0.777817 0.392514 0.361249

loop_
_geom_bond_atom_site_label_1
_geom_bond_atom_site_label_2
_ccdc_geom_bond_type
C22   S2    S    
O16   H8    S    
C11   C18   S    
C22   H1    S    
O26   H14   S    
S6    O34   S    
S1    O9    D    
C2    S3    S    
C14   N1    A    
O15   H7    S    
Cu1   N1    S    
S6    O33   D    
C21   O18   S    
C5    C6    T    
C4    C24   T    
C20   C25   S    
Cu2   O6    S    
C23   S1    S    
C9    S5    S    
C23   C26   S    
Cu2   O8    S    
C18   O5    A    
C18   O6    A    
C16   O15   S    
C15   O3    A    
C6    C15   S    
S2    O14   S    
Cu1   O5    S    
C16   C17   A    
S3    O22   D    
S4    O24   D    
C17   O16   S    
C21   O19   S    
C19   O8    A    
S2    O13   D    
Cu2   N2    S    
O18   H10   S    
C13   C14   A    
O19   H11   S    
C1    C12   S    
C7    C12   A    
O14   H6    S    
C23   H2    S    
C3    C25   S    
S6    O32   D    
O36   H20   S    
S5    O30   D    
O23   H13   S    
C7    O27   S    
Cu1   O1    S    
O28   H16   S    
S5    O29   D    
O27   H15   S    
C15   O4    A    
C16   N1    A    
C9    C11   A    
Cu1   O7    S    
C20   C23   S    
Cu2   O4    S    
C8    C12   A    
S3    O23   S    
S4    O26   S    
C2    C26   S    
C3    H3    S    
S1    O10   D    
C5    C25   S    
S2    O12   D    
O31   H17   S    
C8    O28   S    
C17   N2    A    
C1    O1    A    
C7    C9    A    
C21   C25   S    
O11   H5    S    
C13   O35   S    
S5    O31   S    
C4    C26   S    
C20   O20   S    
C2    C3    S    
O35   H19   S    
C13   N2    A    
C2    S4    S    
O17   H9    S    
Cu1   O3    S    
C10   S6    S    
C19   C24   S    
C3    H4    S    
S1    O11   S    
C14   O36   S    
C10   C11   A    
O20   H12   S    
Cu2   O2    S    
O34   H18   S    
C8    C10   A    
S3    O21   D    
C22   C26   S    
Cu1   Cu2   S    
S4    O25   D    
C20   O17   S    
C21   C22   S    
C19   O7    A    
C1    O2    A    
