data_mof_unit_54652.cif
_audit_creation_date              2013-03-05T15:51:40-0500
_audit_creation_method            fapswitch 2.2
_symmetry_space_group_name_H-M    P1
_symmetry_Int_Tables_number       1
_space_group_crystal_system       triclinic
_cell_length_a                    10.676435
_cell_length_b                    10.856549
_cell_length_c                    9.583088
_cell_angle_alpha                 89.703909
_cell_angle_beta                  89.149765
_cell_angle_gamma                 92.896455
_cell_volume                      1109.20780469

loop_
_atom_site_label
_atom_site_type_symbol
_atom_site_description
_atom_site_fract_x
_atom_site_fract_y
_atom_site_fract_z
_atom_type_partial_charge
O1    O     O_R   0.499990 0.319640 0.618810 -0.606392
O2    O     O_R   0.500000 0.319660 0.381240 -0.587875
C1    C     C_R   0.508400 0.262730 0.501208 0.795614
O3    O     O_R   0.316850 0.499960 0.618770 -0.555152
O4    O     O_R   0.316860 0.499980 0.381190 -0.547128
C2    C     C_R   0.259720 0.499918 0.501163 0.891971
Cu1   Cu    Cu3+1 0.499990 0.499990 0.640660 0.972195
Cu2   Cu    Cu3+1 0.500010 0.500010 0.359340 0.999300
O5    O     O_R   0.500000 0.680340 0.618760 -0.625602
O6    O     O_R   0.500010 0.680360 0.381190 -0.588436
O7    O     O_R   0.683140 0.500020 0.618810 -0.597928
O8    O     O_R   0.683150 0.500040 0.381230 -0.574999
C3    C     C_R   0.491383 0.737117 0.500754 0.830169
C4    C     C_R   0.740444 0.500495 0.498952 0.843647
C5    C     C_3   0.035397 0.495855 0.630801 0.366057
C6    C     C_3   0.950596 0.396329 0.560707 -0.206912
H1    H     H_    0.908560 0.311265 0.610906 0.197927
C7    C     C_3   0.876925 0.501056 0.497027 -0.167987
C8    C     C_3   0.959870 0.600496 0.571249 -0.301655
C9    C     C_3   0.047541 0.603461 0.441836 0.288608
C10   C     C_3   0.963542 0.507020 0.367090 0.299222
C11   C     C_3   0.039292 0.402749 0.430148 -0.274289
C12   C     C_3   0.123515 0.501516 0.503433 -0.235412
H2    H     H_    0.926756 0.681279 0.628961 0.217165
H3    H     H_    0.073210 0.322227 0.372389 0.205133
H4    H     H_    0.514461 0.112409 0.280232 0.166080
C13   C     C_R   0.546577 0.115068 0.764787 -0.108791
H5    H     H_    0.599483 0.202049 0.772587 0.173800
C14   C     C_R   0.516582 0.053568 0.889809 -0.111361
H6    H     H_    0.539796 0.096414 0.988512 0.147418
C15   C     C_R   0.453788 0.938537 0.887499 -0.122378
H7    H     H_    0.424600 0.893091 0.984314 0.158695
C16   C     C_R   0.432711 0.879838 0.760443 -0.112573
H8    H     H_    0.380391 0.792080 0.763973 0.194433
C17   C     C_R   0.475353 0.935768 0.633046 0.088823
C18   C     C_R   0.513650 0.061744 0.634549 0.099309
C19   C     C_R   0.516320 0.128357 0.505952 -0.113031
C20   C     C_R   0.509756 0.064246 0.379616 -0.161021
H9    H     H_    0.501577 0.890141 0.279619 0.172526
C21   C     C_R   0.498521 0.936964 0.379089 -0.118728
C22   C     C_R   0.482596 0.871187 0.504564 -0.072160
H10   H     H_    0.365891 0.352371 0.132311 0.143411
C23   C     C_R   0.655272 0.675004 0.140198 -0.228133
H11   H     H_    0.670331 0.675418 0.249428 0.230166
C24   C     C_R   0.721441 0.768685 0.066641 0.250527
C25   C     C_R   0.725116 0.765971 0.921975 0.237162
C26   C     C_R   0.658469 0.672451 0.852473 -0.240298
H12   H     H_    0.673083 0.673676 0.742842 0.226544
C27   C     C_R   0.577601 0.585043 0.923475 0.168509
C28   C     C_R   0.576981 0.585504 0.072914 0.180335
N1    N     N_R   0.501210 0.501210 0.147910 -0.188190
C29   C     C_R   0.426320 0.418824 0.075641 -0.003428
H13   H     H_    0.365583 0.352785 0.873582 0.159643
C30   C     C_R   0.426146 0.419038 0.927616 0.001477
N2    N     N_R   0.501250 0.501290 0.852040 -0.196912
Br1   Br    Br    0.804636 0.899764 0.167934 -0.361841
Br2   Br    Br    0.821186 0.887830 0.814344 -0.417106
N3    N     N_R   0.075619 0.490771 0.775212 0.156698
O9    O     O_R   0.045105 0.394746 0.852439 -0.313193
O10   O     O_R   0.138688 0.584131 0.828828 -0.312826
N4    N     N_R   0.097996 0.718026 0.378066 0.161415
O11   O     O_R   0.022523 0.803372 0.345398 -0.264624
O12   O     O_R   0.218171 0.739257 0.361436 -0.359849
Br3   Br    Br    0.921089 0.512865 0.171433 -0.347768

loop_
_geom_bond_atom_site_label_1
_geom_bond_atom_site_label_2
_geom_bond_distance
_ccdc_geom_bond_type
O1    C1    1.292165 A    
O4    Cu2   1.963460 S    
C20   C21   1.381030 A    
C23   H11   1.061392 S    
C15   C16   1.393175 A    
C23   C28   1.413838 A    
C19   C20   1.400518 A    
C13   C18   1.419987 A    
C13   C14   1.393740 A    
C7    C10   1.539100 S    
C5    N3    1.456666 S    
C4    C7    1.456688 S    
C15   H7    1.082806 S    
C8    C9    1.541841 S    
C9    C12   1.526266 S    
Cu1   N2    2.026036 S    
Cu2   O8    1.969580 S    
C27   N2    1.381297 A    
C5    C12   1.529043 S    
C16   H8    1.079911 S    
O8    C4    1.291167 A    
Cu1   Cu2   2.695910 S    
C14   C15   1.387679 A    
C6    C7    1.543123 S    
O1    Cu1   1.970219 S    
H13   C30   1.081831 S    
Cu1   O7    1.963459 S    
C23   C24   1.391240 A    
Cu2   N1    2.025973 S    
N4    O11   1.298368 A    
O3    Cu1   1.969580 S    
C2    C12   1.455006 S    
C3    C22   1.463897 S    
C18   C19   1.424839 A    
C16   C17   1.419285 A    
C29   C30   1.418559 A    
C8    H2    1.109316 S    
O2    C1    1.308853 A    
C11   C12   1.542928 S    
C25   Br2   1.919242 S    
O4    C2    1.293499 A    
C17   C22   1.423067 A    
O7    C4    1.293214 A    
O2    Cu2   1.968111 S    
O3    C2    1.289430 A    
H9    C21   1.083458 S    
C14   H6    1.082753 S    
C5    C6    1.537880 S    
C5    C8    1.538192 S    
C24   C25   1.386829 A    
C13   H5    1.079100 S    
N1    C29   1.367295 A    
C9    C10   1.531502 S    
C1    C19   1.466045 S    
C26   C27   1.414922 A    
C27   C28   1.432035 A    
C25   C26   1.388806 A    
C9    N4    1.457840 S    
Cu1   O5    1.968109 S    
C7    C8    1.544542 S    
O5    C3    1.291851 A    
C30   N2    1.366967 A    
C21   C22   1.399108 A    
C10   Br3   1.937000 S    
C6    C11   1.557002 S    
C17   C18   1.407745 A    
C28   N1    1.381870 A    
N3    O9    1.300464 A    
C10   C11   1.549412 S    
N3    O10   1.300532 A    
C11   H3    1.110291 S    
Cu2   O6    1.970219 S    
H4    C20   1.083413 S    
C26   H12   1.059754 S    
C24   Br1   1.915317 S    
H10   C29   1.081743 S    
C6    H1    1.110324 S    
N4    O12   1.299370 A    
O6    C3    1.308013 A    
