data_mof_unit_60960.cif
_audit_creation_date              2012-12-10T17:42:00-0500
_audit_creation_method            fapswitch 2.2
_symmetry_space_group_name_H-M    P1
_symmetry_Int_Tables_number       1
_space_group_crystal_system       triclinic
_cell_length_a                    30.320331
_cell_length_b                    30.320297
_cell_length_c                    23.687099
_cell_angle_alpha                 89.999981
_cell_angle_beta                  90.000011
_cell_angle_gamma                 90.0
_cell_volume                      21776.0579872

loop_
_atom_site_label
_atom_site_type_symbol
_atom_type_description
_atom_site_fract_x
_atom_site_fract_y
_atom_site_fract_z
_atom_type_partial_charge
C1    C     C_R   0.585061 0.000000 0.500000 0.906566
C2    C     C_R   0.000000 0.584976 0.500000 0.944000
C3    C     C_R   0.414939 0.000000 0.500000 0.906566
C4    C     C_R   1.000000 0.415024 0.500000 0.944000
C5    C     C_R   0.084976 0.500000 0.000000 0.943964
C6    C     C_R   0.500000 0.085061 0.000000 0.906574
C7    C     C_R   0.915024 0.500000 0.000000 0.943953
C8    C     C_R   0.500000 0.914939 1.000000 0.906575
C9    C     C_R   0.843666 0.030938 0.533033 0.287733
C10   C     C_R   0.959740 0.844081 0.499663 0.284025
C11   C     C_R   0.156334 0.969062 0.533033 0.287730
C12   C     C_R   0.040260 0.155919 0.499665 0.284025
C13   C     C_R   0.156334 0.030938 0.466967 0.287733
C14   C     C_R   0.040260 0.844081 0.500337 0.284024
C15   C     C_R   0.843665 0.969062 0.466967 0.287729
C16   C     C_R   0.959740 0.155919 0.500335 0.284024
C17   C     C_R   0.344081 0.540260 0.999686 0.284023
C18   C     C_R   0.469055 0.343666 0.033023 0.287737
C19   C     C_R   0.655919 0.459739 0.999693 0.284023
C20   C     C_R   0.530945 0.656334 0.033022 0.287747
C21   C     C_R   0.655919 0.540260 0.000307 0.284023
C22   C     C_R   0.530945 0.343666 0.966978 0.287748
C23   C     C_R   0.344081 0.459740 0.000313 0.284024
C24   C     C_R   0.469055 0.656334 0.966977 0.287737
C25   C     C_R   0.866670 0.000000 0.500000 -0.363127
C26   C     C_R   0.000000 0.866909 0.500000 -0.342265
C27   C     C_R   0.133330 0.000000 0.500000 -0.363128
C28   C     C_R   1.000000 0.133090 0.500000 -0.342264
C29   C     C_R   0.366910 0.500000 1.000000 -0.342259
C30   C     C_R   0.500000 0.366670 0.000000 -0.363112
C31   C     C_R   0.633090 0.500000 0.000000 -0.342257
C32   C     C_R   0.500000 0.633330 1.000000 -0.363112
C33   C     C_R   0.774474 0.000000 0.500000 -0.085512
C34   C     C_R   1.000000 0.774603 0.500000 -0.102180
C35   C     C_R   0.225526 0.000000 0.500000 -0.085512
C36   C     C_R   1.000000 0.225397 0.500000 -0.102177
C37   C     C_R   0.274603 0.500000 0.000000 -0.102176
C38   C     C_R   0.500000 0.274474 0.000000 -0.085526
C39   C     C_R   0.725396 0.500000 1.000000 -0.102177
C40   C     C_R   0.500000 0.725526 1.000000 -0.085526
C41   C     C_R   1.000000 0.914990 0.500000 1.009421
C42   C     C_R   0.085102 0.000000 0.500000 1.010460
C43   C     C_R   1.000000 0.085010 0.500000 1.009422
C44   C     C_R   0.914898 0.000000 0.500000 1.010461
C45   C     C_R   0.500000 0.414898 0.000000 1.010502
C46   C     C_R   0.585010 0.500000 0.000000 1.009464
C47   C     C_R   0.500000 0.585102 1.000000 1.010501
C48   C     C_R   0.414990 0.500000 1.000000 1.009457
C49   C     C_R   0.500000 1.000000 0.608178 0.786356
C50   C     C_R   1.000000 0.500000 0.608180 0.821286
C51   C     C_R   0.500000 0.000000 0.391821 0.786357
C52   C     C_R   0.000000 0.500000 0.391820 0.821287
C53   C     C_R   1.000000 0.500000 0.108180 0.821233
C54   C     C_R   0.500000 1.000000 0.108178 0.786360
C55   C     C_R   0.000000 0.500000 0.891820 0.821234
C56   C     C_R   0.500000 0.000000 0.891822 0.786360
C57   C     C_1   0.500000 1.000000 0.669017 -0.189010
C58   C     C_1   1.000000 0.500000 0.669020 -0.181492
C59   C     C_1   0.500000 0.000000 0.330983 -0.189010
C60   C     C_1   1.000000 0.500000 0.330980 -0.181491
C61   C     C_1   1.000000 0.500000 0.169020 -0.181517
C62   C     C_1   0.500000 1.000000 0.169017 -0.189012
C63   C     C_1   0.000000 0.500000 0.830980 -0.181517
C64   C     C_1   0.500000 0.000000 0.830983 -0.189012
C65   C     C_1   0.500000 1.000000 0.720069 -0.010115
C66   C     C_1   1.000000 0.500000 0.720070 -0.009904
C67   C     C_1   0.500000 0.000000 0.279931 -0.010115
C68   C     C_1   1.000000 0.500000 0.279929 -0.009904
C69   C     C_1   1.000000 0.500000 0.220070 -0.009906
C70   C     C_1   0.500000 0.000000 0.220069 -0.010117
C71   C     C_1   1.000000 0.500000 0.779929 -0.009906
C72   C     C_1   0.500000 1.000000 0.779931 -0.010117
C73   C     C_R   0.702835 0.029642 0.464879 0.409125
C74   C     C_R   0.987757 0.702504 0.450703 0.419614
C75   C     C_R   0.297165 0.970358 0.464879 0.409124
C76   C     C_R   0.012243 0.297496 0.450703 0.419612
C77   C     C_R   0.297165 0.029642 0.535121 0.409123
C78   C     C_R   0.012243 0.702504 0.549297 0.419616
C79   C     C_R   0.702835 0.970358 0.535121 0.409124
C80   C     C_R   0.987757 0.297496 0.549296 0.419613
C81   C     C_R   0.202504 0.512261 0.950710 0.419612
C82   C     C_R   0.470361 0.202835 0.964874 0.409132
C83   C     C_R   0.797496 0.487733 0.950713 0.419612
C84   C     C_R   0.529639 0.797165 0.964874 0.409134
C85   C     C_R   0.797496 0.512266 0.049287 0.419611
C86   C     C_R   0.529639 0.202835 0.035125 0.409133
C87   C     C_R   0.202504 0.487739 0.049289 0.419610
C88   C     C_R   0.470361 0.797165 0.035126 0.409133
C89   C     C_R   0.656643 0.029689 0.465094 0.338887
C90   C     C_R   0.986980 0.656235 0.451240 0.329113
C91   C     C_R   0.343357 0.970311 0.465094 0.338889
C92   C     C_R   0.013021 0.343765 0.451240 0.329114
C93   C     C_R   0.343357 0.029689 0.534906 0.338888
C94   C     C_R   0.013020 0.656235 0.548760 0.329111
C95   C     C_R   0.656643 0.970311 0.534906 0.338888
C96   C     C_R   0.986979 0.343765 0.548760 0.329113
C97   C     C_R   0.156235 0.513038 0.951248 0.329118
C98   C     C_R   0.470314 0.156643 0.965090 0.338885
C99   C     C_R   0.843764 0.486956 0.951251 0.329120
C100  C     C_R   0.529686 0.843357 0.965090 0.338882
C101  C     C_R   0.843764 0.513044 0.048749 0.329121
C102  C     C_R   0.529686 0.156643 0.034910 0.338883
C103  C     C_R   0.156235 0.486962 0.048752 0.329119
C104  C     C_R   0.470314 0.843357 0.034910 0.338882
C105  C     C_R   0.633454 0.000000 0.500000 -0.400844
C106  C     C_R   0.000000 0.633211 0.500000 -0.386309
C107  C     C_R   0.366546 0.000000 0.500000 -0.400845
C108  C     C_R   1.000000 0.366789 0.500000 -0.386309
C109  C     C_R   0.133211 0.500000 0.000000 -0.386318
C110  C     C_R   0.500000 0.133454 0.000000 -0.400843
C111  C     C_R   0.866788 0.500000 0.000000 -0.386321
C112  C     C_R   0.500000 0.866546 1.000000 -0.400842
C113  C     C_R   0.726008 0.000000 0.500000 -0.094760
C114  C     C_R   1.000000 0.725864 0.500000 -0.101312
C115  C     C_R   0.273992 0.000000 0.500000 -0.094759
C116  C     C_R   1.000000 0.274136 0.500000 -0.101311
C117  C     C_R   0.225865 0.500000 0.000000 -0.101309
C118  C     C_R   0.500000 0.226008 0.000000 -0.094765
C119  C     C_R   0.774135 0.500000 1.000000 -0.101310
C120  C     C_R   0.500000 0.773992 0.000000 -0.094765
C121  C     C_R   0.797342 0.033343 0.528997 0.339501
C122  C     C_R   0.959679 0.797581 0.496623 0.353630
C123  C     C_R   0.202658 0.966657 0.528997 0.339500
C124  C     C_R   0.040321 0.202418 0.496624 0.353629
C125  C     C_R   0.202658 0.033343 0.471003 0.339502
C126  C     C_R   0.040321 0.797581 0.503377 0.353631
C127  C     C_R   0.797342 0.966657 0.471003 0.339501
C128  C     C_R   0.959679 0.202418 0.503375 0.353630
C129  C     C_R   0.297581 0.540322 0.996646 0.353629
C130  C     C_R   0.466652 0.297343 0.028986 0.339509
C131  C     C_R   0.702418 0.459677 0.996652 0.353629
C132  C     C_R   0.533349 0.702657 0.028986 0.339509
C133  C     C_R   0.702418 0.540323 0.003347 0.353630
C134  C     C_R   0.533349 0.297343 0.971014 0.339508
C135  C     C_R   0.297581 0.459678 0.003354 0.353627
C136  C     C_R   0.466652 0.702657 0.971014 0.339510
Cu1   Cu    Cu3+1 0.500000 0.044070 0.500000 1.003593
Cu2   Cu    Cu3+1 0.955930 0.500000 0.500000 0.991234
Cu3   Cu    Cu3+1 0.500000 0.955930 0.500000 1.003593
Cu4   Cu    Cu3+1 0.044070 0.500000 0.500000 0.991236
Cu5   Cu    Cu3+1 0.000000 0.544070 0.000000 0.991271
Cu6   Cu    Cu3+1 0.455930 0.000000 0.000000 1.003594
Cu7   Cu    Cu3+1 0.000000 0.455930 0.000000 0.991271
Cu8   Cu    Cu3+1 0.544070 0.000000 0.000000 1.003594
Cu9   Cu    Cu3+1 1.000000 0.000000 0.555800 0.957337
Cu10  Cu    Cu3+1 1.000000 0.000000 0.444200 0.957337
Cu11  Cu    Cu3+1 0.500000 0.500000 0.055800 0.957315
Cu12  Cu    Cu3+1 0.500000 0.500000 0.944200 0.957315
O1    O     O_R   0.564260 0.037220 0.500020 -0.552347
O2    O     O_R   0.962780 0.564260 0.500020 -0.575897
O3    O     O_R   0.435740 0.962780 0.500020 -0.552347
O4    O     O_R   0.037220 0.435740 0.500020 -0.575897
O5    O     O_R   0.435740 0.037220 0.499980 -0.552347
O6    O     O_R   0.037220 0.564260 0.499980 -0.575897
O7    O     O_R   0.564260 0.962780 0.499980 -0.552347
O8    O     O_R   0.962780 0.435740 0.499980 -0.575896
O9    O     O_R   0.064260 0.537220 0.000020 -0.575874
O10   O     O_R   0.462780 0.064260 0.000020 -0.552351
O11   O     O_R   0.935740 0.462780 0.000020 -0.575865
O12   O     O_R   0.537220 0.935740 0.000020 -0.552351
O13   O     O_R   0.935740 0.537220 0.999980 -0.575866
O14   O     O_R   0.537220 0.064260 0.999980 -0.552351
O15   O     O_R   0.064260 0.462780 0.999980 -0.575873
O16   O     O_R   0.462780 0.935740 0.999980 -0.552350
O17   O     O_R   0.499990 0.037220 0.581420 -0.579418
O18   O     O_R   0.962780 0.499990 0.581420 -0.579257
O19   O     O_R   0.500010 0.962780 0.581420 -0.579417
O20   O     O_R   0.037220 0.500010 0.581420 -0.579256
O21   O     O_R   0.500010 0.037220 0.418580 -0.579418
O22   O     O_R   0.037220 0.499990 0.418580 -0.579257
O23   O     O_R   0.499990 0.962780 0.418580 -0.579418
O24   O     O_R   0.962780 0.500010 0.418580 -0.579257
O25   O     O_R   0.999990 0.537220 0.081420 -0.579249
O26   O     O_R   0.462780 0.999990 0.081420 -0.579416
O27   O     O_R   0.000010 0.462780 0.081420 -0.579246
O28   O     O_R   0.537220 0.000010 0.081420 -0.579416
O29   O     O_R   0.000010 0.537220 0.918580 -0.579246
O30   O     O_R   0.537220 0.999990 0.918580 -0.579416
O31   O     O_R   0.999990 0.462780 0.918580 -0.579249
O32   O     O_R   0.462780 0.000010 0.918580 -0.579416
O33   O     O_R   0.999990 0.935770 0.547120 -0.599037
O34   O     O_R   0.064230 0.999990 0.547120 -0.588581
O35   O     O_R   0.000010 0.064230 0.547120 -0.599037
O36   O     O_R   0.935770 0.000010 0.547120 -0.588582
O37   O     O_R   0.000010 0.935770 0.452880 -0.599036
O38   O     O_R   0.935770 0.999990 0.452880 -0.588581
O39   O     O_R   0.999990 0.064230 0.452880 -0.599036
O40   O     O_R   0.064230 0.000010 0.452880 -0.588582
O41   O     O_R   0.499990 0.435770 0.047120 -0.588594
O42   O     O_R   0.564230 0.499990 0.047120 -0.599049
O43   O     O_R   0.500010 0.564230 0.047120 -0.588599
O44   O     O_R   0.435770 0.500010 0.047120 -0.599047
O45   O     O_R   0.500010 0.435770 0.952880 -0.588599
O46   O     O_R   0.435770 0.499990 0.952880 -0.599046
O47   O     O_R   0.499990 0.564230 0.952880 -0.588595
O48   O     O_R   0.564230 0.500010 0.952880 -0.599049
O49   O     O_3   0.724573 0.060741 0.432256 -0.542820
C137  C     C_3   0.744960 0.040363 0.385319 -0.313362
H1    H     H_    0.740919 0.062194 0.348106 0.182452
H2    H     H_    0.730903 0.007537 0.373848 0.156692
H3    H     H_    0.780877 0.037013 0.393204 0.154157
O50   O     O_3   0.974162 0.724127 0.402191 -0.538069
C138  C     C_3   0.010601 0.744275 0.375280 -0.315318
H4    H     H_    0.005523 0.742398 0.328971 0.184065
H5    H     H_    0.042942 0.728276 0.384622 0.148168
H6    H     H_    0.012130 0.779738 0.386654 0.159207
O51   O     O_3   0.275427 0.939258 0.432256 -0.542821
C139  C     C_3   0.255040 0.959636 0.385320 -0.313362
H7    H     H_    0.259081 0.937804 0.348106 0.182452
H8    H     H_    0.269097 0.992462 0.373847 0.156693
H9    H     H_    0.219123 0.962986 0.393204 0.154157
O52   O     O_3   0.025839 0.275873 0.402191 -0.538069
C140  C     C_3   0.989400 0.255724 0.375280 -0.315319
H10   H     H_    0.994478 0.257603 0.328971 0.184066
H11   H     H_    0.957059 0.271721 0.384624 0.148170
H12   H     H_    0.987873 0.220261 0.386652 0.159207
O53   O     O_3   0.275427 0.060742 0.567743 -0.542820
C141  C     C_3   0.255040 0.040364 0.614680 -0.313361
H13   H     H_    0.259081 0.062195 0.651894 0.182452
H14   H     H_    0.269097 0.007538 0.626152 0.156692
H15   H     H_    0.219123 0.037014 0.606796 0.154157
O54   O     O_3   0.025838 0.724127 0.597809 -0.538070
C142  C     C_3   0.989399 0.744275 0.624720 -0.315319
H16   H     H_    0.994477 0.742398 0.671029 0.184066
H17   H     H_    0.957058 0.728277 0.615378 0.148168
H18   H     H_    0.987870 0.779738 0.613346 0.159206
O55   O     O_3   0.724573 0.939258 0.567744 -0.542820
C143  C     C_3   0.744960 0.959637 0.614680 -0.313361
H19   H     H_    0.740919 0.937805 0.651894 0.182452
H20   H     H_    0.730903 0.992463 0.626152 0.156692
H21   H     H_    0.780877 0.962987 0.606796 0.154157
O56   O     O_3   0.974161 0.275873 0.597808 -0.538070
C144  C     C_3   0.010599 0.255724 0.624720 -0.315319
H22   H     H_    0.005520 0.257601 0.671029 0.184066
H23   H     H_    0.042940 0.271723 0.615379 0.148169
H24   H     H_    0.012128 0.220262 0.613347 0.159206
O57   O     O_3   0.224127 0.525873 0.902206 -0.538069
C145  C     C_3   0.244275 0.489443 0.875274 -0.315321
H25   H     H_    0.242398 0.494538 0.828968 0.184066
H26   H     H_    0.228276 0.457099 0.884596 0.148166
H27   H     H_    0.279737 0.487910 0.886647 0.159206
O58   O     O_3   0.439265 0.224573 0.932246 -0.542813
C146  C     C_3   0.459649 0.244961 0.885313 -0.313372
H28   H     H_    0.437821 0.240921 0.848096 0.182453
H29   H     H_    0.492476 0.230902 0.873846 0.156684
H30   H     H_    0.463000 0.280877 0.893199 0.154158
O59   O     O_3   0.775873 0.474115 0.902211 -0.538069
C147  C     C_3   0.755725 0.510542 0.875271 -0.315321
H31   H     H_    0.757601 0.505440 0.828967 0.184067
H32   H     H_    0.771726 0.542886 0.884586 0.148164
H33   H     H_    0.720264 0.512078 0.886645 0.159206
O60   O     O_3   0.560735 0.775427 0.932246 -0.542812
C148  C     C_3   0.540351 0.755039 0.885313 -0.313370
H34   H     H_    0.537001 0.719123 0.893199 0.154158
H35   H     H_    0.507525 0.769098 0.873846 0.156684
H36   H     H_    0.562180 0.759079 0.848096 0.182453
O61   O     O_3   0.775873 0.525884 0.097788 -0.538069
C149  C     C_3   0.755726 0.489458 0.124729 -0.315321
H37   H     H_    0.757601 0.494560 0.171033 0.184067
H38   H     H_    0.771726 0.457114 0.115414 0.148164
H39   H     H_    0.720264 0.487922 0.113354 0.159206
O62   O     O_3   0.560735 0.224573 0.067754 -0.542811
C150  C     C_3   0.540352 0.244960 0.114686 -0.313368
H40   H     H_    0.562180 0.240921 0.151904 0.182452
H41   H     H_    0.507525 0.230902 0.126154 0.156683
H42   H     H_    0.537001 0.280877 0.106801 0.154157
O63   O     O_3   0.224127 0.474127 0.097794 -0.538069
C151  C     C_3   0.244275 0.510557 0.124726 -0.315319
H43   H     H_    0.242398 0.505461 0.171032 0.184066
H44   H     H_    0.279737 0.512091 0.113353 0.159205
H45   H     H_    0.228275 0.542900 0.115404 0.148166
O64   O     O_3   0.439265 0.775427 0.067754 -0.542813
C152  C     C_3   0.459649 0.755039 0.114687 -0.313369
H46   H     H_    0.437821 0.759079 0.151904 0.182453
H47   H     H_    0.492476 0.769098 0.126154 0.156683
H48   H     H_    0.463000 0.719123 0.106801 0.154157
O65   O     O_3   0.634299 0.060139 0.432266 -0.516372
C153  C     C_3   0.623609 0.040412 0.380074 -0.227465
H49   H     H_    0.602938 0.010396 0.385568 0.120063
H50   H     H_    0.653766 0.032241 0.355579 0.149933
H51   H     H_    0.604170 0.064310 0.354817 0.182245
O66   O     O_3   0.971270 0.633598 0.404647 -0.526046
C154  C     C_3   0.007076 0.622997 0.369134 -0.258835
H52   H     H_    0.031955 0.602202 0.391093 0.137074
H53   H     H_    0.022980 0.653146 0.351973 0.161848
H54   H     H_    0.994427 0.603731 0.332769 0.185812
O67   O     O_3   0.365701 0.939861 0.432266 -0.516372
C155  C     C_3   0.376391 0.959587 0.380074 -0.227465
H55   H     H_    0.397062 0.989604 0.385568 0.120063
H56   H     H_    0.346234 0.967758 0.355580 0.149934
H57   H     H_    0.395831 0.935690 0.354817 0.182246
O68   O     O_3   0.028731 0.366402 0.404648 -0.526045
C156  C     C_3   0.992925 0.377003 0.369134 -0.258830
H58   H     H_    0.968047 0.397798 0.391092 0.137074
H59   H     H_    0.977020 0.346853 0.351973 0.161846
H60   H     H_    0.005574 0.396268 0.332769 0.185813
O69   O     O_3   0.365701 0.060139 0.567734 -0.516372
C157  C     C_3   0.376391 0.040413 0.619926 -0.227464
H61   H     H_    0.397062 0.010396 0.614431 0.120063
H62   H     H_    0.346234 0.032241 0.644420 0.149933
H63   H     H_    0.395830 0.064310 0.645183 0.182245
O70   O     O_3   0.028730 0.633597 0.595353 -0.526045
C158  C     C_3   0.992924 0.622997 0.630866 -0.258833
H64   H     H_    0.968045 0.602202 0.608907 0.137074
H65   H     H_    0.977020 0.653146 0.648027 0.161847
H66   H     H_    0.005572 0.603731 0.667231 0.185813
O71   O     O_3   0.634299 0.939861 0.567734 -0.516372
C159  C     C_3   0.623609 0.959588 0.619926 -0.227466
H67   H     H_    0.602938 0.989604 0.614431 0.120063
H68   H     H_    0.653766 0.967759 0.644420 0.149934
H69   H     H_    0.604169 0.935690 0.645183 0.182246
O72   O     O_3   0.971268 0.366402 0.595352 -0.526046
C160  C     C_3   0.007074 0.377003 0.630866 -0.258835
H70   H     H_    0.031953 0.397798 0.608908 0.137073
H71   H     H_    0.022978 0.346853 0.648027 0.161848
H72   H     H_    0.994425 0.396269 0.667230 0.185812
O73   O     O_3   0.133598 0.528764 0.904664 -0.526033
C161  C     C_3   0.122996 0.492970 0.869131 -0.258801
H73   H     H_    0.102201 0.468084 0.891077 0.137044
H74   H     H_    0.153145 0.477071 0.851961 0.161839
H75   H     H_    0.103730 0.505631 0.832774 0.185817
O74   O     O_3   0.439867 0.134299 0.932258 -0.516374
C162  C     C_3   0.459598 0.123609 0.880068 -0.227474
H76   H     H_    0.489614 0.102938 0.885567 0.120063
H77   H     H_    0.467770 0.153766 0.855575 0.149939
H78   H     H_    0.435702 0.104169 0.854808 0.182246
O75   O     O_3   0.866402 0.471224 0.904670 -0.526029
C163  C     C_3   0.877005 0.507014 0.869130 -0.258795
H79   H     H_    0.897799 0.531902 0.891072 0.137033
H80   H     H_    0.846856 0.522910 0.851956 0.161838
H81   H     H_    0.896271 0.494348 0.832777 0.185818
O76   O     O_3   0.560133 0.865701 0.932257 -0.516373
C164  C     C_3   0.540402 0.876391 0.880068 -0.227473
H82   H     H_    0.510386 0.897062 0.885567 0.120063
H83   H     H_    0.532229 0.846234 0.855575 0.149938
H84   H     H_    0.564298 0.895831 0.854808 0.182246
O77   O     O_3   0.866402 0.528776 0.095330 -0.526029
C165  C     C_3   0.877005 0.492986 0.130869 -0.258795
H85   H     H_    0.897800 0.468098 0.108928 0.137033
H86   H     H_    0.846856 0.477089 0.148044 0.161838
H87   H     H_    0.896271 0.505652 0.167223 0.185818
O78   O     O_3   0.560133 0.134299 0.067742 -0.516374
C166  C     C_3   0.540403 0.123608 0.119931 -0.227474
H88   H     H_    0.510386 0.102939 0.114433 0.120063
H89   H     H_    0.532230 0.153766 0.144425 0.149939
H90   H     H_    0.564298 0.104168 0.145191 0.182246
O79   O     O_3   0.133598 0.471235 0.095336 -0.526033
C167  C     C_3   0.122996 0.507030 0.130869 -0.258806
H91   H     H_    0.102201 0.531915 0.108922 0.137045
H92   H     H_    0.153145 0.522929 0.148039 0.161840
H93   H     H_    0.103730 0.494369 0.167225 0.185818
O80   O     O_3   0.439867 0.865701 0.067742 -0.516373
C168  C     C_3   0.459598 0.876391 0.119931 -0.227475
H94   H     H_    0.489614 0.897061 0.114433 0.120063
H95   H     H_    0.467770 0.846234 0.144425 0.149940
H96   H     H_    0.435702 0.895831 0.145191 0.182247
O81   O     O_3   0.773549 0.065602 0.557184 -0.582996
C169  C     C_3   0.782784 0.107423 0.533672 -0.188335
H97   H     H_    0.786974 0.106586 0.486921 0.169829
H98   H     H_    0.812399 0.122130 0.553734 0.189687
H99   H     H_    0.754590 0.129615 0.542782 0.172899
O82   O     O_3   0.920628 0.773681 0.495818 -0.580093
C170  C     C_3   0.895861 0.783647 0.446890 -0.137904
H100  H     H_    0.916499 0.793280 0.409901 0.166247
H101  H     H_    0.871420 0.809894 0.456199 0.174358
H102  H     H_    0.877102 0.753766 0.434516 0.172539
O83   O     O_3   0.226452 0.934398 0.557184 -0.582995
C171  C     C_3   0.217217 0.892577 0.533674 -0.188336
H103  H     H_    0.213027 0.893414 0.486922 0.169829
H104  H     H_    0.187600 0.877871 0.553736 0.189687
H105  H     H_    0.245410 0.870386 0.542784 0.172899
O84   O     O_3   0.079371 0.226319 0.495821 -0.580095
C172  C     C_3   0.104140 0.216353 0.446894 -0.137908
H106  H     H_    0.083502 0.206720 0.409904 0.166248
H107  H     H_    0.128581 0.190106 0.456203 0.174359
H108  H     H_    0.122900 0.246234 0.434520 0.172539
O85   O     O_3   0.226451 0.065601 0.442815 -0.582995
C173  C     C_3   0.217216 0.107423 0.466326 -0.188335
H109  H     H_    0.213026 0.106586 0.513078 0.169829
H110  H     H_    0.187601 0.122129 0.446264 0.189687
H111  H     H_    0.245410 0.129614 0.457216 0.172898
O86   O     O_3   0.079372 0.773681 0.504182 -0.580093
C174  C     C_3   0.104139 0.783647 0.553110 -0.137906
H112  H     H_    0.083501 0.793280 0.590099 0.166247
H113  H     H_    0.128580 0.809894 0.543801 0.174358
H114  H     H_    0.122899 0.753765 0.565484 0.172539
O87   O     O_3   0.773548 0.934398 0.442816 -0.582995
C175  C     C_3   0.782784 0.892577 0.466327 -0.188338
H115  H     H_    0.786973 0.893414 0.513079 0.169829
H116  H     H_    0.812400 0.877870 0.446266 0.189687
H117  H     H_    0.754590 0.870385 0.457217 0.172899
O88   O     O_3   0.920628 0.226319 0.504179 -0.580095
C176  C     C_3   0.895860 0.216353 0.553106 -0.137907
H118  H     H_    0.916498 0.206720 0.590096 0.166248
H119  H     H_    0.871419 0.190106 0.543797 0.174358
H120  H     H_    0.877100 0.246234 0.565479 0.172539
O89   O     O_3   0.273681 0.579373 0.995862 -0.580095
C177  C     C_3   0.283648 0.604157 0.946948 -0.137906
H121  H     H_    0.293282 0.583531 0.909948 0.166248
H122  H     H_    0.309893 0.628595 0.956271 0.174349
H123  H     H_    0.253766 0.622920 0.934583 0.172541
O90   O     O_3   0.434387 0.273549 0.057163 -0.582995
C178  C     C_3   0.392570 0.282786 0.033642 -0.188278
H124  H     H_    0.393415 0.286983 0.986892 0.169820
H125  H     H_    0.377859 0.312398 0.053708 0.189669
H126  H     H_    0.370378 0.254590 0.042739 0.172894
O91   O     O_3   0.726319 0.420627 0.995875 -0.580094
C179  C     C_3   0.716352 0.395837 0.946966 -0.137899
H127  H     H_    0.706717 0.416459 0.909962 0.166247
H128  H     H_    0.690107 0.371399 0.956294 0.174344
H129  H     H_    0.746234 0.377074 0.934603 0.172541
O92   O     O_3   0.565613 0.726451 0.057162 -0.582996
C180  C     C_3   0.607430 0.717213 0.033642 -0.188270
H130  H     H_    0.606586 0.713015 0.986891 0.169821
H131  H     H_    0.622142 0.687602 0.053708 0.189666
H132  H     H_    0.629623 0.745410 0.042737 0.172892
O93   O     O_3   0.726319 0.579373 0.004125 -0.580095
C181  C     C_3   0.716352 0.604163 0.053034 -0.137899
H133  H     H_    0.706717 0.583541 0.090038 0.166247
H134  H     H_    0.690107 0.628601 0.043706 0.174344
H135  H     H_    0.746234 0.622926 0.065397 0.172541
O94   O     O_3   0.565613 0.273549 0.942838 -0.582996
C182  C     C_3   0.607430 0.282786 0.966358 -0.188269
H136  H     H_    0.606585 0.286985 0.013109 0.169821
H137  H     H_    0.622142 0.312398 0.946292 0.189666
H138  H     H_    0.629623 0.254590 0.957263 0.172892
O95   O     O_3   0.273681 0.420627 0.004138 -0.580094
C183  C     C_3   0.283647 0.395843 0.053051 -0.137905
H139  H     H_    0.293282 0.416469 0.090052 0.166247
H140  H     H_    0.309893 0.371405 0.043728 0.174349
H141  H     H_    0.253766 0.377080 0.065417 0.172541
O96   O     O_3   0.434387 0.726452 0.942837 -0.582995
C184  C     C_3   0.392570 0.717214 0.966357 -0.188281
H142  H     H_    0.393415 0.713016 0.013108 0.169820
H143  H     H_    0.377859 0.687602 0.946292 0.189670
H144  H     H_    0.370378 0.745410 0.957261 0.172894
O97   O     O_3   0.866926 0.060891 0.565534 -0.528364
C185  C     C_3   0.863099 0.048719 0.622808 -0.243790
H145  H     H_    0.885127 0.070216 0.648117 0.175025
H146  H     H_    0.873645 0.013973 0.629981 0.140326
H147  H     H_    0.828934 0.053657 0.638579 0.175717
O98   O     O_3   0.920617 0.867554 0.499037 -0.542310
C186  C     C_3   0.903982 0.869639 0.554540 -0.291138
H148  H     H_    0.873434 0.889784 0.554212 0.175268
H149  H     H_    0.927750 0.885928 0.583657 0.153213
H150  H     H_    0.895194 0.836302 0.570609 0.177584
O99   O     O_3   0.133074 0.939109 0.565535 -0.528363
C187  C     C_3   0.136901 0.951282 0.622809 -0.243783
H151  H     H_    0.126355 0.986028 0.629981 0.140324
H152  H     H_    0.171066 0.946344 0.638580 0.175716
H153  H     H_    0.114873 0.929786 0.648118 0.175024
O100  O     O_3   0.079383 0.132445 0.499040 -0.542313
C188  C     C_3   0.096016 0.130361 0.554543 -0.291139
H154  H     H_    0.126565 0.110216 0.554216 0.175267
H155  H     H_    0.072248 0.114072 0.583660 0.153214
H156  H     H_    0.104805 0.163698 0.570612 0.177585
O101  O     O_3   0.133074 0.060891 0.434465 -0.528364
C189  C     C_3   0.136901 0.048718 0.377191 -0.243789
H157  H     H_    0.114873 0.070214 0.351882 0.175025
H158  H     H_    0.126355 0.013972 0.370019 0.140325
H159  H     H_    0.171066 0.053656 0.361420 0.175717
O102  O     O_3   0.079383 0.867554 0.500963 -0.542311
C190  C     C_3   0.096018 0.869639 0.445460 -0.291138
H160  H     H_    0.126566 0.889784 0.445789 0.175267
H161  H     H_    0.072250 0.885928 0.416343 0.153213
H162  H     H_    0.104806 0.836303 0.429391 0.177584
O103  O     O_3   0.866926 0.939109 0.434466 -0.528363
C191  C     C_3   0.863099 0.951281 0.377192 -0.243784
H163  H     H_    0.885127 0.929784 0.351883 0.175024
H164  H     H_    0.873645 0.986027 0.370019 0.140325
H165  H     H_    0.828934 0.946343 0.361421 0.175716
O104  O     O_3   0.920617 0.132445 0.500960 -0.542312
C192  C     C_3   0.903984 0.130361 0.445457 -0.291136
H166  H     H_    0.927752 0.114072 0.416339 0.153214
H167  H     H_    0.895195 0.163698 0.429388 0.177584
H168  H     H_    0.873435 0.110216 0.445783 0.175266
O105  O     O_3   0.367555 0.579383 0.999080 -0.542317
C193  C     C_3   0.369636 0.596002 0.054591 -0.291144
H169  H     H_    0.385922 0.572225 0.083700 0.153227
H170  H     H_    0.336299 0.604788 0.070660 0.177593
H171  H     H_    0.389783 0.626549 0.054279 0.175260
O106  O     O_3   0.439095 0.366926 0.065513 -0.528370
C194  C     C_3   0.451256 0.363101 0.122792 -0.243820
H172  H     H_    0.429754 0.385128 0.148093 0.175024
H173  H     H_    0.486001 0.373648 0.129975 0.140337
H174  H     H_    0.446316 0.328936 0.138562 0.175720
O107  O     O_3   0.632445 0.420617 0.999092 -0.542323
C195  C     C_3   0.630364 0.404002 0.054605 -0.291151
H175  H     H_    0.610217 0.373455 0.054297 0.175257
H176  H     H_    0.614079 0.427781 0.083711 0.153233
H177  H     H_    0.663701 0.395217 0.070675 0.177596
O108  O     O_3   0.560905 0.633073 0.065512 -0.528373
C196  C     C_3   0.548745 0.636898 0.122791 -0.243831
H178  H     H_    0.514001 0.626352 0.129975 0.140339
H179  H     H_    0.553685 0.671064 0.138561 0.175722
H180  H     H_    0.570247 0.614871 0.148092 0.175024
O109  O     O_3   0.632445 0.579383 0.000908 -0.542323
C197  C     C_3   0.630364 0.595998 0.945395 -0.291149
H181  H     H_    0.614079 0.572218 0.916289 0.153232
H182  H     H_    0.663701 0.604783 0.929325 0.177596
H183  H     H_    0.610216 0.626545 0.945703 0.175257
O110  O     O_3   0.560905 0.366927 0.934488 -0.528373
C198  C     C_3   0.548745 0.363101 0.877209 -0.243832
H184  H     H_    0.570247 0.385129 0.851908 0.175024
H185  H     H_    0.514001 0.373648 0.870025 0.140339
H186  H     H_    0.553685 0.328936 0.861439 0.175721
O111  O     O_3   0.367555 0.420617 0.000919 -0.542317
C199  C     C_3   0.369636 0.403998 0.945409 -0.291143
H187  H     H_    0.385922 0.427775 0.916300 0.153227
H188  H     H_    0.336299 0.395212 0.929339 0.177592
H189  H     H_    0.389783 0.373451 0.945721 0.175260
O112  O     O_3   0.439095 0.633073 0.934487 -0.528370
C200  C     C_3   0.451256 0.636899 0.877208 -0.243823
H190  H     H_    0.429754 0.614872 0.851907 0.175025
H191  H     H_    0.486001 0.626352 0.870025 0.140337
H192  H     H_    0.446316 0.671064 0.861438 0.175720

loop_
_geom_bond_atom_site_label_1
_geom_bond_atom_site_label_2
_ccdc_geom_bond_type
Cu5   O25   S    
O95   C183  S    
O81   C169  S    
C90   O66   S    
C6    C110  S    
O101  C189  S    
C30   C45   S    
C91   O67   S    
C142  H16   S    
Cu7   O27   S    
Cu9   Cu10  S    
C142  H18   S    
C158  H65   S    
C164  H82   S    
C192  H168  S    
C138  H5    S    
Cu9   O36   S    
Cu12  O48   S    
O66   C154  S    
O86   C174  S    
C47   O47   A    
C178  H125  S    
C140  H12   S    
C7    O11   A    
Cu11  O42   S    
C74   C114  A    
C81   C117  A    
C152  H48   S    
O84   C172  S    
C82   O58   S    
C169  H99   S    
C83   C119  A    
C6    O10   A    
O110  C198  S    
C75   O51   S    
C169  H97   S    
C21   C133  A    
C80   C116  A    
O64   C152  S    
C9    C121  A    
C37   C135  A    
Cu3   O23   S    
Cu8   O12   S    
Cu4   O4    S    
C159  H69   S    
C13   C125  A    
C96   C108  A    
C180  H131  S    
C15   C127  A    
C82   C98   A    
C93   O69   S    
C94   O70   S    
C20   C32   A    
C143  H20   S    
C171  H103  S    
C168  H95   S    
C147  H32   S    
O77   C165  S    
C182  H138  S    
C198  H185  S    
C145  H26   S    
O50   C138  S    
C190  H160  S    
C84   C100  A    
C155  H57   S    
C91   C107  A    
Cu10  O39   S    
C51   O21   A    
C172  H108  S    
C52   O22   A    
O78   C166  S    
O97   C185  S    
C188  H156  S    
O99   C187  S    
C24   C32   A    
Cu1   Cu3   S    
O55   C143  S    
C11   C27   A    
C184  H144  S    
O80   C168  S    
C97   O73   S    
C197  H181  S    
Cu1   O5    S    
O76   C164  S    
Cu3   O19   S    
Cu2   Cu4   S    
C87   C103  A    
Cu5   O9    S    
O96   C184  S    
C63   C71   T    
C196  H179  S    
C32   C47   S    
Cu6   Cu8   S    
C18   C130  A    
C121  O81   S    
C157  H61   S    
C82   C118  A    
C174  H112  S    
C126  O86   S    
C164  H84   S    
C99   O75   S    
C150  H41   S    
C23   O111  S    
C18   O106  S    
C161  H75   S    
C36   C124  A    
C10   C122  A    
C134  O94   S    
C46   O48   A    
C135  O95   S    
C176  H118  S    
C14   C126  A    
C187  H151  S    
C74   C90   A    
C8    C112  S    
C77   O53   S    
C39   C131  A    
C78   C94   A    
C43   O35   A    
C195  H175  S    
C37   C129  A    
Cu6   O10   S    
C195  H177  S    
C186  H149  S    
Cu12  O45   S    
C194  H174  S    
C37   C117  S    
O52   C140  S    
C83   O59   S    
C137  H2    S    
C162  H77   S    
C173  H109  S    
C77   C115  A    
C86   O62   S    
C171  H105  S    
C1    C105  S    
O60   C148  S    
C2    O2    A    
Cu10  O37   S    
Cu11  Cu12  S    
C52   O24   A    
C136  O96   S    
C10   O98   S    
C53   O25   A    
C56   O30   A    
C21   C31   A    
C62   C70   T    
C23   C29   A    
O92   C180  S    
C139  H9    S    
C148  H34   S    
C160  H71   S    
O82   C170  S    
C54   O28   A    
Cu9   O33   S    
C33   C127  A    
C49   C57   S    
O72   C160  S    
O61   C149  S    
C85   C119  A    
C167  H91   S    
C161  H74   S    
C52   C60   S    
C59   C67   T    
C131  O91   S    
C104  O80   S    
Cu6   O32   S    
Cu11  O43   S    
C175  H115  S    
C31   C46   S    
C133  O93   S    
C179  H129  S    
Cu7   O31   S    
C144  H22   S    
C194  H173  S    
C75   C91   A    
C76   O52   S    
C38   C134  A    
C34   C122  A    
C16   C128  A    
O57   C145  S    
C154  H54   S    
C92   O68   S    
C36   C128  A    
C80   O56   S    
C88   C104  A    
C159  H68   S    
C181  H134  S    
O51   C139  S    
C4    O4    A    
C176  H120  S    
C189  H157  S    
C187  H153  S    
O104  C192  S    
C8    O16   A    
C104  C112  A    
C68   C69   S    
O53   C141  S    
C19   O107  S    
C2    C106  S    
C167  H93   S    
C171  H104  S    
C200  H191  S    
C155  H56   S    
C169  H98   S    
C156  H58   S    
C130  O90   S    
C181  H135  S    
C97   C109  A    
Cu12  O47   S    
C141  H14   S    
C194  H172  S    
Cu3   O7    S    
C146  H30   S    
C99   C111  A    
Cu8   O28   S    
C89   O65   S    
C179  H127  S    
C35   C115  S    
C78   O54   S    
C165  H86   S    
C79   C113  A    
C50   O20   A    
O94   C182  S    
C170  H102  S    
C177  H122  S    
C167  H92   S    
C86   C102  A    
C183  H139  S    
C53   O27   A    
C141  H15   S    
O90   C178  S    
C56   O32   A    
C15   O103  S    
C22   C30   A    
C55   O31   A    
C95   O71   S    
O100  C188  S    
C148  H36   S    
O63   C151  S    
C142  H17   S    
O62   C150  S    
C192  H167  S    
C165  H87   S    
Cu9   O35   S    
C33   C113  S    
Cu2   O18   S    
C67   C70   S    
C85   O61   S    
C35   C123  A    
C149  H37   S    
C174  H114  S    
O89   C177  S    
C27   C42   S    
Cu11  O41   S    
C175  H117  S    
C39   C119  S    
Cu3   O3    S    
C152  H47   S    
C81   O57   S    
C143  H21   S    
O49   C137  S    
C144  H24   S    
C191  H163  S    
C89   C105  A    
O107  C195  S    
C153  H49   S    
O98   C186  S    
O109  C197  S    
C87   O63   S    
C199  H187  S    
C36   C116  S    
C16   C28   A    
C180  H130  S    
C98   C110  A    
C124  O84   S    
C17   C29   A    
C138  H4    S    
C19   C31   A    
Cu1   O17   S    
C168  H94   S    
C9    C25   A    
C150  H40   S    
C182  H137  S    
C140  H10   S    
C42   O34   A    
C40   C136  A    
C145  H27   S    
C12   C28   A    
Cu5   O29   S    
C38   C130  A    
Cu10  O40   S    
C20   C132  A    
C87   C117  A    
C156  H60   S    
Cu5   Cu7   S    
Cu6   O16   S    
C84   O60   S    
C61   C69   T    
C146  H28   S    
C73   C113  A    
O108  C196  S    
Cu7   O15   S    
C188  H155  S    
C185  H145  S    
C143  H19   S    
C35   C125  A    
C178  H124  S    
C139  H7    S    
C184  H143  S    
C153  H51   S    
C50   O18   A    
C190  H162  S    
C197  H182  S    
C170  H100  S    
C1    O1    A    
C88   C120  A    
C183  H141  S    
C101  O77   S    
C140  H11   S    
O74   C162  S    
C83   C99   A    
C196  H178  S    
C55   O29   A    
C41   O33   A    
C78   C114  A    
C157  H62   S    
C188  H154  S    
C163  H81   S    
C13   O101  S    
C158  H66   S    
C164  H83   S    
C45   O45   A    
C138  H6    S    
C127  O87   S    
C197  H183  S    
C17   O105  S    
Cu2   O24   S    
O71   C159  S    
C50   C58   S    
C178  H126  S    
C22   O110  S    
C90   C106  A    
C103  O79   S    
O79   C167  S    
O102  C190  S    
C163  H79   S    
C74   O50   S    
C162  H76   S    
C157  H63   S    
C187  H152  S    
C79   C95   A    
O105  C193  S    
C100  O76   S    
O67   C155  S    
C191  H165  S    
C198  H184  S    
C195  H176  S    
O58   C146  S    
C86   C118  A    
C179  H128  S    
C96   O72   S    
C199  H189  S    
Cu12  O46   S    
C4    O8    A    
C100  C112  A    
C180  H132  S    
C5    O9    A    
C102  C110  A    
C173  H110  S    
C65   C72   S    
C5    O15   A    
C168  H96   S    
C147  H31   S    
C7    O13   A    
C39   C133  A    
C198  H186  S    
C42   O40   A    
C24   O112  S    
C145  H25   S    
Cu4   O22   S    
C48   O46   A    
Cu10  O38   S    
C11   C123  A    
C57   C65   T    
O88   C176  S    
C20   O108  S    
Cu7   O11   S    
C101  C111  A    
C54   C62   S    
C28   C43   S    
C23   C135  A    
C103  C109  A    
C162  H78   S    
C173  H111  S    
C73   C89   A    
O75   C163  S    
C139  H8    S    
C12   O100  S    
C160  H70   S    
C5    C109  S    
C166  H89   S    
C54   O26   A    
C77   C93   A    
O56   C144  S    
C7    C111  S    
C47   O43   A    
C48   O44   A    
C15   C25   A    
C75   C115  A    
C38   C118  S    
C151  H43   S    
C60   C68   T    
C175  H116  S    
O106  C194  S    
C196  H180  S    
C4    C108  S    
C102  O78   S    
C44   O38   A    
Cu4   O20   S    
C150  H42   S    
C166  H88   S    
Cu5   O13   S    
C154  H53   S    
O69   C157  S    
O83   C171  S    
C125  O85   S    
O93   C181  S    
O111  C199  S    
Cu6   O26   S    
Cu2   O2    S    
C49   O17   A    
C176  H119  S    
C189  H158  S    
C22   C134  A    
O68   C156  S    
C49   O19   A    
C123  O83   S    
C14   O102  S    
C3    O5    A    
C21   O109  S    
C200  H190  S    
C1    O7    A    
C186  H150  S    
C95   C105  A    
C122  O82   S    
C58   C66   T    
C66   C71   S    
C146  H29   S    
C189  H159  S    
C73   O49   S    
O91   C179  S    
C137  H1    S    
C18   C30   A    
C43   O39   A    
C80   C96   A    
C92   C108  A    
C44   O36   A    
Cu1   O21   S    
C147  H33   S    
C84   C120  A    
C34   C126  A    
C10   C26   A    
C40   C132  A    
C158  H64   S    
O112  C200  S    
C33   C121  A    
C170  H101  S    
C177  H123  S    
Cu1   O1    S    
O73   C161  S    
C53   C61   S    
C46   O42   A    
C25   C44   S    
C79   O55   S    
C132  O92   S    
C183  H140  S    
C11   O99   S    
C19   C131  A    
C9    O97   S    
C29   C48   S    
C17   C129  A    
C6    O14   A    
C163  H80   S    
C182  H136  S    
C148  H35   S    
C160  H72   S    
C193  H171  S    
C3    C107  S    
C192  H166  S    
Cu9   O34   S    
C14   C26   A    
C55   C63   S    
C149  H38   S    
C174  H113  S    
C161  H73   S    
O103  C191  S    
C12   C124  A    
C151  H45   S    
Cu11  O44   S    
C137  H3    S    
C56   C64   S    
C152  H46   S    
C41   O37   A    
C193  H170  S    
C144  H23   S    
O85   C173  S    
C185  H147  S    
C76   C92   A    
C45   O41   A    
C191  H164  S    
C184  H142  S    
C128  O88   S    
C153  H50   S    
C149  H39   S    
C51   C59   S    
C40   C120  S    
C154  H52   S    
C85   C101  A    
C159  H67   S    
C199  H188  S    
C181  H133  S    
Cu2   O8    S    
C16   O104  S    
O70   C158  S    
C94   C106  A    
Cu8   O14   S    
C151  H44   S    
Cu8   O30   S    
O59   C147  S    
C34   C114  S    
C3    O3    A    
C193  H169  S    
C200  H192  S    
C155  H55   S    
C51   O23   A    
C186  H148  S    
C156  H59   S    
C172  H106  S    
C93   C107  A    
C24   C136  A    
C141  H13   S    
C81   C97   A    
C76   C116  A    
C172  H107  S    
C64   C72   T    
O54   C142  S    
C185  H146  S    
C129  O89   S    
C98   O74   S    
C2    O6    A    
C165  H85   S    
C166  H90   S    
C190  H161  S    
C177  H121  S    
C13   C27   A    
C88   O64   S    
O65   C153  S    
O87   C175  S    
C26   C41   S    
Cu4   O6    S    
C8    O12   A    
