data_mof_unit_16999.cif
_audit_creation_date              2013-03-05T15:47:56-0500
_audit_creation_method            fapswitch 2.2
_symmetry_space_group_name_H-M    P1
_symmetry_Int_Tables_number       1
_space_group_crystal_system       triclinic
_cell_length_a                    11.674468
_cell_length_b                    13.004001
_cell_length_c                    13.474236
_cell_angle_alpha                 92.012929
_cell_angle_beta                  76.295652
_cell_angle_gamma                 99.331826
_cell_volume                      1961.04021596

loop_
_atom_site_label
_atom_site_type_symbol
_atom_site_description
_atom_site_fract_x
_atom_site_fract_y
_atom_site_fract_z
_atom_type_partial_charge
O1    O     O_R   0.419710 0.645650 0.494620 -0.584186
O2    O     O_R   0.611450 0.658430 0.507430 -0.492990
C1    C     C_R   0.520227 0.700677 0.502484 0.875047
O3    O     O_R   0.357340 0.490460 0.641450 -0.479612
O4    O     O_R   0.549080 0.503250 0.654260 -0.570536
C2    C     C_R   0.435700 0.489925 0.695995 0.879626
Cu1   Cu    Cu3+1 0.386470 0.492430 0.492410 1.111145
Cu2   Cu    Cu3+1 0.613530 0.507570 0.507590 1.170098
O5    O     O_R   0.388550 0.341570 0.492570 -0.582399
O6    O     O_R   0.580290 0.354350 0.505380 -0.509586
O7    O     O_R   0.450920 0.496750 0.345740 -0.556259
O8    O     O_R   0.642660 0.509540 0.358550 -0.489542
C3    C     C_R   0.479380 0.299781 0.499407 0.930411
C4    C     C_R   0.563884 0.504380 0.303736 0.922339
C5    C     C_R   0.747186 0.480211 0.034630 0.624581
C6    C     C_R   0.601203 0.504618 0.191187 -0.374539
C7    C     C_R   0.288038 0.516421 0.856883 0.616385
C8    C     C_R   0.270995 0.559563 0.954773 -0.258138
C9    C     C_R   0.367218 0.574514 0.003588 -0.075241
C10   C     C_R   0.464071 0.517727 0.967654 0.136056
C11   C     C_R   0.479997 0.473253 0.868729 -0.160958
C12   C     C_R   0.546801 0.504942 0.026840 -0.125664
C13   C     C_R   0.658846 0.477055 0.978761 -0.290162
C14   C     C_R   0.674681 0.434956 0.880379 0.730441
C15   C     C_R   0.579160 0.419445 0.832177 -0.211593
C16   C     C_R   0.515383 0.507466 0.133951 0.517898
C17   C     C_R   0.719283 0.496986 0.139837 0.497449
C18   C     C_R   0.398246 0.486903 0.808835 -0.212316
C19   C     C_R   0.465458 0.188047 0.511752 -0.269409
C20   C     C_R   0.533127 0.814505 0.502790 -0.214311
C21   C     C_R   0.650361 0.978131 0.432484 -0.116209
C22   C     C_R   0.637200 0.870379 0.442368 0.546615
C23   C     C_R   0.443195 0.866725 0.561450 -0.116288
C24   C     C_R   0.455480 0.976911 0.554443 -0.121464
C25   C     C_R   0.555290 0.030820 0.481965 -0.107381
C26   C     C_R   0.556143 0.135613 0.459373 0.557404
C27   C     C_R   0.372533 0.138668 0.587960 0.544536
C28   C     C_R   0.370295 0.035588 0.614477 -0.118558
N1    N     N_R   0.215880 0.481050 0.481000 -0.263599
N2    N     N_R   0.784100 0.518950 0.519000 -0.333874
C29   C     C_R   0.940060 0.588692 0.603103 0.581403
C30   C     C_R   0.822952 0.582089 0.591318 0.623582
C31   C     C_R   0.859689 0.461706 0.455510 0.792397
C32   C     C_R   0.979362 0.467301 0.463218 -0.225194
C33   C     C_R   0.019844 0.531085 0.538584 -0.355658
C34   C     C_R   0.139279 0.535390 0.546695 0.954938
C35   C     C_R   0.177371 0.419078 0.407906 0.038639
C36   C     C_R   0.059278 0.410725 0.397902 -0.099008
H1    H     H_    0.238391 0.375556 0.357037 0.185722
H2    H     H_    0.031242 0.360779 0.339164 0.216688
F1    F     F_    0.805705 0.497070 0.191817 -0.528022
F2    F     F_    0.290632 0.194652 0.643588 -0.590843
C37   C     C_2   0.767482 0.033478 0.374966 1.067293
O9    O     O_2   0.813860 0.002931 0.290363 -0.499735
O10   O     O_R   0.826298 0.118779 0.419182 -0.669694
H3    H     H_    0.905453 0.149768 0.372984 0.350051
C38   C     C_2   0.288948 0.999107 0.713276 0.984582
O11   O     O_2   0.328439 0.963497 0.778764 -0.550315
O12   O     O_R   0.168195 0.009180 0.732848 -0.633001
H4    H     H_    0.122156 0.982308 0.803104 0.365920
F3    F     F_    0.726034 0.819021 0.390940 -0.609357
C39   C     C_2   0.335186 0.804118 0.625040 0.956544
O13   O     O_2   0.237375 0.805985 0.607611 -0.490775
O14   O     O_R   0.345983 0.744240 0.705530 -0.712708
H5    H     H_    0.265755 0.710871 0.748094 0.413763
F4    F     F_    0.178943 0.592808 0.620777 -0.558245
F5    F     F_    0.974564 0.651795 0.676692 -0.505360
F6    F     F_    0.747988 0.639449 0.653002 -0.574463
F7    F     F_    0.775310 0.394003 0.838464 -0.545866
F8    F     F_    0.818622 0.398635 0.384963 -0.543779
F9    F     F_    0.859081 0.462581 0.988831 -0.513885
F10   F     F_    0.398042 0.500539 0.182173 -0.642015
F11   F     F_    0.199448 0.509529 0.806083 -0.540613
C40   C     C_2   0.379958 0.664211 0.075089 0.969955
O15   O     O_2   0.293069 0.689425 0.135240 -0.522700
O16   O     O_R   0.493383 0.720727 0.072318 -0.734146
H6    H     H_    0.491597 0.779169 0.124223 0.353407
C41   C     C_2   0.154787 0.593789 0.000723 1.053663
O17   O     O_2   0.104294 0.571421 0.089424 -0.464325
O18   O     O_R   0.100752 0.648053 0.941480 -0.649182
H7    H     H_    0.021016 0.665668 0.980976 0.374283
C42   C     C_2   0.577654 0.335119 0.754322 0.928571
O19   O     O_2   0.669009 0.324900 0.690893 -0.467192
O20   O     O_R   0.473623 0.264872 0.753950 -0.734261
H8    H     H_    0.404878 0.273913 0.813790 0.327104
F12   F     F_    0.640420 0.186729 0.381913 -0.603381

loop_
_geom_bond_atom_site_label_1
_geom_bond_atom_site_label_2
_geom_bond_distance
_ccdc_geom_bond_type
C30   F6    1.355205 S    
O10   H3    1.013960 S    
C16   F10   1.359867 S    
C29   C30   1.401988 A    
C9    C10   1.429863 A    
Cu1   Cu2   2.681825 S    
C35   H1    1.081551 S    
C37   O9    1.223084 D    
Cu1   O7    1.940217 S    
C19   C26   1.389297 A    
C39   O13   1.223158 D    
C40   O16   1.399236 S    
C3    C19   1.446673 S    
C22   F3    1.361384 S    
C34   F4    1.350134 S    
O4    C2    1.295411 A    
O7    C4    1.295082 A    
C41   O18   1.398443 S    
C38   O12   1.398329 S    
C24   C25   1.430715 A    
O5    C3    1.290305 A    
C39   O14   1.397982 S    
O20   H8    1.012607 S    
N2    C31   1.369413 A    
C2    C18   1.479207 S    
C35   C36   1.403266 A    
C23   C39   1.480238 S    
C13   C14   1.398881 A    
C8    C41   1.483392 S    
C6    C17   1.405882 A    
N2    C30   1.364497 A    
O12   H4    1.014086 S    
C24   C28   1.430784 A    
C7    F11   1.359141 S    
O3    Cu1   1.956111 S    
C17   F1    1.357542 S    
C14   F7    1.360191 S    
C23   C24   1.420916 A    
O16   H6    1.013922 S    
C37   O10   1.399028 S    
C6    C16   1.407160 A    
C40   O15   1.221893 D    
C14   C15   1.402550 A    
C29   F5    1.357836 S    
O3    C2    1.303106 A    
C27   F2    1.361576 S    
C41   O17   1.222922 D    
C8    C9    1.415147 A    
C26   F12   1.359882 S    
C33   C34   1.416231 A    
O1    C1    1.296770 A    
C25   C26   1.404664 A    
C1    C20   1.463318 S    
C31   C32   1.415375 A    
C27   C28   1.393925 A    
C28   C38   1.482693 S    
C5    C17   1.394906 A    
C21   C22   1.392243 A    
Cu2   O8    1.956111 S    
C7    C8    1.397834 A    
C21   C37   1.485313 S    
C36   H2    1.083074 S    
N1    C34   1.366947 A    
C11   C18   1.422548 A    
C10   C12   1.422245 A    
C31   F8    1.356390 S    
C42   O20   1.397239 S    
C15   C42   1.491624 S    
C21   C25   1.417661 A    
C32   C33   1.408434 A    
N1    C35   1.363118 A    
Cu1   O5    1.965952 S    
C11   C15   1.428536 A    
Cu1   N1    2.014870 S    
C20   C23   1.410132 A    
O1    Cu1   1.967735 S    
C7    C18   1.403529 A    
C9    C40   1.497834 S    
O2    Cu2   1.965949 S    
O8    C4    1.301584 A    
O18   H7    1.013944 S    
O6    C3    1.291388 A    
O4    Cu2   1.940217 S    
C5    F9    1.358322 S    
O14   H5    1.012733 S    
O2    C1    1.290884 A    
C20   C22   1.397692 A    
C38   O11   1.223249 D    
C5    C13   1.408538 A    
C4    C6    1.475290 S    
C10   C11   1.417412 A    
Cu2   O6    1.967736 S    
C42   O19   1.221336 D    
C12   C16   1.402961 A    
C19   C27   1.391478 A    
C29   C33   1.407613 A    
C12   C13   1.413518 A    
Cu2   N2    2.014637 S    
C32   C36   1.405115 A    
