data_mof_unit_7470.cif
_audit_creation_date              2012-12-10T17:40:05-0500
_audit_creation_method            fapswitch 2.2
_symmetry_space_group_name_H-M    P1
_symmetry_Int_Tables_number       1
_space_group_crystal_system       triclinic
_cell_length_a                    11.974687
_cell_length_b                    12.734981
_cell_length_c                    27.584639
_cell_angle_alpha                 89.454394
_cell_angle_beta                  87.486569
_cell_angle_gamma                 94.19946
_cell_volume                      4190.91375193

loop_
_atom_site_label
_atom_site_type_symbol
_atom_type_description
_atom_site_fract_x
_atom_site_fract_y
_atom_site_fract_z
_atom_type_partial_charge
C1    C     C_R   0.522645 0.699907 0.495468 0.891274
C2    C     C_R   0.409185 0.559180 0.130542 -0.063306
C3    C     C_R   0.504442 0.510336 0.647487 -0.186127
C4    C     C_R   0.488072 0.485476 0.352837 -0.196648
C5    C     C_R   0.420317 0.571485 0.028884 0.004938
C6    C     C_R   0.468610 0.387734 0.975757 0.003030
C7    C     C_R   0.437211 0.380424 0.025961 0.003141
C8    C     C_R   0.452099 0.579205 0.978812 0.000157
C9    C     C_R   0.423912 0.472705 0.052708 0.069335
C10   C     C_R   0.467374 0.487202 0.951968 0.066705
C11   C     C_R   0.383152 0.657506 0.056657 0.138285
C12   C     C_R   0.477483 0.300102 0.504616 0.901841
C13   C     C_R   0.506581 0.301538 0.948244 0.138897
C14   C     C_R   0.391050 0.653578 0.106984 -0.143400
C15   C     C_R   0.504460 0.307088 0.897723 -0.144759
C16   C     C_R   0.502180 0.504376 0.594155 0.898859
C17   C     C_R   0.498042 0.497642 0.405730 0.906345
C18   C     C_R   0.482326 0.676952 0.956089 -0.224529
C19   C     C_R   0.408103 0.283321 0.049542 -0.229393
C20   C     C_R   0.463646 0.188325 0.511617 -0.092023
C21   C     C_R   0.537927 0.811745 0.489386 -0.089736
C22   C     C_R   0.572115 0.969870 0.439656 0.176468
C23   C     C_R   0.483925 0.495250 0.901030 -0.078503
C24   C     C_R   0.446075 0.033022 0.563999 0.173333
C25   C     C_R   0.579452 0.860001 0.445331 0.132448
C26   C     C_R   0.431734 0.141776 0.557295 0.113212
C27   C     C_R   0.494636 0.868060 0.527268 -0.282244
C28   C     C_R   0.507131 0.131952 0.473741 -0.280068
C29   C     C_R   0.488592 0.975743 0.523783 0.084252
C30   C     C_R   0.523001 0.026100 0.478779 0.072053
C31   C     C_R   0.948271 0.385924 0.463651 0.637571
C32   C     C_R   0.051692 0.613659 0.536495 0.636020
C33   C     C_R   0.833195 0.398316 0.466759 -0.251826
C34   C     C_R   0.414709 0.466097 0.103796 -0.071855
C35   C     C_R   0.166493 0.599890 0.534448 -0.238487
C36   C     C_R   0.861574 0.553128 0.513116 0.760964
C37   C     C_R   0.139069 0.448981 0.485305 0.768489
C38   C     C_R   0.978170 0.542723 0.512374 -0.345873
C39   C     C_R   0.022185 0.458190 0.486808 -0.336841
C40   C     C_R   0.491158 0.595986 0.825798 0.547980
C41   C     C_R   0.426936 0.368297 0.178851 0.531930
C42   C     C_R   0.498854 0.409242 0.823498 0.570314
C43   C     C_R   0.417788 0.555025 0.180645 0.578575
C44   C     C_R   0.597757 0.531323 0.723624 0.636426
C45   C     C_R   0.489833 0.594954 0.877140 -0.087886
C46   C     C_R   0.558400 0.483764 0.268899 0.624249
C47   C     C_R   0.603829 0.535035 0.672814 -0.051055
C48   C     C_R   0.579861 0.496651 0.318203 -0.012089
C49   C     C_R   0.401841 0.490090 0.673910 -0.287325
C50   C     C_R   0.379271 0.460167 0.336841 -0.246015
C51   C     C_R   0.396246 0.487841 0.724439 0.120642
C52   C     C_R   0.358501 0.449293 0.287901 0.115779
C53   C     C_R   0.495590 0.507641 0.749113 0.155104
C54   C     C_R   0.449086 0.461821 0.253920 0.155257
C55   C     C_3   0.386874 0.209103 0.598291 -0.437443
C56   C     C_R   0.414663 0.367390 0.128036 -0.085661
C57   C     C_3   0.476170 0.238461 0.634705 -0.830498
C58   C     C_3   0.622786 0.793237 0.403960 -0.448832
C59   C     C_3   0.530828 0.765539 0.368499 -0.852162
C60   C     C_3   0.616379 0.026945 0.392682 -0.452542
C61   C     C_3   0.729192 0.087921 0.399653 -0.783150
C62   C     C_3   0.419983 0.978681 0.613602 -0.419033
C63   C     C_3   0.526571 0.948945 0.637781 -0.811376
C64   C     C_3   0.283582 0.464632 0.750899 -0.367117
C65   C     C_3   0.240812 0.349642 0.745275 -0.828366
C66   C     C_3   0.239110 0.425131 0.273116 -0.364823
C67   C     C_R   0.497446 0.688059 0.905522 0.168014
C68   C     C_3   0.169908 0.520281 0.280222 -0.809617
C69   C     C_3   0.523372 0.797462 0.882419 -0.298430
C70   C     C_3   0.547077 0.889260 0.916925 -0.953527
C71   C     C_3   0.377162 0.165322 0.124743 -0.305561
C72   C     C_3   0.341753 0.073783 0.091751 -0.945817
C73   C     C_3   0.700022 0.523494 0.331519 -0.341858
C74   C     C_3   0.758789 0.423674 0.341609 -0.756849
C75   C     C_3   0.715670 0.570867 0.647981 -0.265712
C76   C     C_3   0.788187 0.478408 0.639331 -0.732190
C77   C     C_3   0.323216 0.747877 0.035427 -0.451294
C78   C     C_R   0.400709 0.273622 0.100417 0.168808
C79   C     C_3   0.207494 0.757982 0.060075 -0.828525
C80   C     C_3   0.563376 0.209579 0.970019 -0.449084
C81   C     C_3   0.679314 0.195993 0.946179 -0.822389
C82   C     C_R   0.493483 0.402875 0.874000 -0.068511
F1    F     F_    0.185073 0.371074 0.459865 -0.602062
F2    F     F_    0.816772 0.635063 0.535857 -0.618295
F3    F     F_    0.985953 0.303083 0.438807 -0.612663
F4    F     F_    0.013650 0.695440 0.562004 -0.610525
F5    F     F_    0.643772 0.494531 0.234662 -0.664036
F6    F     F_    0.691698 0.551248 0.748962 -0.662665
H1    H     H_    0.324982 0.473297 0.655184 0.196618
H2    H     H_    0.461172 0.823924 0.558925 0.160892
H3    H     H_    0.507605 0.168285 0.651713 0.274997
H4    H     H_    0.547877 0.285730 0.616501 0.255966
H5    H     H_    0.439398 0.284941 0.664287 0.268478
H6    H     H_    0.356595 0.283276 0.584576 0.226397
H7    H     H_    0.310715 0.169540 0.616631 0.204588
H8    H     H_    0.461552 0.715613 0.386989 0.259666
H9    H     H_    0.495716 0.837167 0.354132 0.268586
H10   H     H_    0.565700 0.721660 0.337480 0.259800
H11   H     H_    0.698068 0.832894 0.384952 0.217981
H12   H     H_    0.308394 0.448673 0.362626 0.226333
H13   H     H_    0.653640 0.719077 0.417307 0.224269
H14   H     H_    0.723366 0.145685 0.429328 0.261565
H15   H     H_    0.792934 0.032418 0.408493 0.273259
H16   H     H_    0.757319 0.131184 0.365627 0.256560
H17   H     H_    0.627871 0.973969 0.361749 0.228728
H18   H     H_    0.554459 0.079475 0.379139 0.207971
H19   H     H_    0.564100 0.881674 0.619838 0.258308
H20   H     H_    0.590850 0.016316 0.636872 0.263472
H21   H     H_    0.505844 0.925874 0.676237 0.261312
H22   H     H_    0.375280 0.027383 0.639749 0.223939
H23   H     H_    0.223232 0.654488 0.552841 0.192621
H24   H     H_    0.360773 0.908263 0.610050 0.205240
H25   H     H_    0.228362 0.331247 0.706523 0.250582
H26   H     H_    0.301240 0.296622 0.759819 0.291338
H27   H     H_    0.159224 0.334669 0.765771 0.253453
H28   H     H_    0.287392 0.481685 0.790194 0.205270
H29   H     H_    0.222161 0.516462 0.736102 0.216261
H30   H     H_    0.165297 0.542838 0.319012 0.259545
H31   H     H_    0.207648 0.588148 0.258061 0.284799
H32   H     H_    0.083373 0.500580 0.268551 0.252185
H33   H     H_    0.235554 0.401194 0.234628 0.205875
H34   H     H_    0.776144 0.341581 0.449883 0.183589
H35   H     H_    0.199934 0.357736 0.295258 0.228757
H36   H     H_    0.471556 0.902060 0.940353 0.255636
H37   H     H_    0.619008 0.874642 0.939535 0.271787
H38   H     H_    0.569071 0.962569 0.895380 0.269537
H39   H     H_    0.598942 0.795141 0.857683 0.249604
H40   H     H_    0.451074 0.817227 0.861066 0.245631
H41   H     H_    0.266399 0.091402 0.071934 0.269327
H42   H     H_    0.411486 0.057109 0.065720 0.255904
H43   H     H_    0.320447 0.001645 0.114212 0.269311
H44   H     H_    0.453719 0.143903 0.142682 0.253442
H45   H     H_    0.376086 0.723065 0.127959 0.191654
H46   H     H_    0.308086 0.170283 0.152704 0.233621
H47   H     H_    0.710486 0.373632 0.369519 0.255001
H48   H     H_    0.767245 0.377540 0.307843 0.273101
H49   H     H_    0.843786 0.445040 0.354660 0.244028
H50   H     H_    0.747536 0.567962 0.301446 0.242771
H51   H     H_    0.705130 0.577598 0.362614 0.207140
H52   H     H_    0.806057 0.441286 0.674480 0.267659
H53   H     H_    0.745752 0.418016 0.616379 0.249511
H54   H     H_    0.869037 0.507051 0.620828 0.253472
H55   H     H_    0.704447 0.614452 0.613880 0.256888
H56   H     H_    0.520476 0.237799 0.876802 0.193609
H57   H     H_    0.761987 0.629304 0.670777 0.243971
H58   H     H_    0.156847 0.681350 0.059647 0.270104
H59   H     H_    0.214593 0.784523 0.098087 0.254942
H60   H     H_    0.162981 0.817417 0.040223 0.251460
H61   H     H_    0.375150 0.823099 0.039188 0.206803
H62   H     H_    0.307079 0.735640 0.996579 0.229145
H63   H     H_    0.672772 0.167483 0.908458 0.255611
H64   H     H_    0.731635 0.271750 0.946043 0.272549
H65   H     H_    0.721824 0.136613 0.966978 0.249772
H66   H     H_    0.579289 0.221827 0.008855 0.233369
H67   H     H_    0.495708 0.744841 0.978575 0.168541
H68   H     H_    0.509498 0.135519 0.966240 0.204602
H69   H     H_    0.391738 0.214906 0.027634 0.165875
H70   H     H_    0.531891 0.175035 0.440618 0.161902
N1    N     N_R   0.494183 0.504090 0.800838 -0.320807
N2    N     N_R   0.430343 0.461318 0.203208 -0.318297
N3    N     N_R   0.207800 0.519340 0.508990 -0.190854
N4    N     N_R   0.792200 0.480660 0.491010 -0.183047
O1    O     O_R   0.421700 0.658820 0.502400 -0.626910
O2    O     O_2   0.438449 0.278743 0.203944 -0.586933
O3    O     O_2   0.415672 0.644055 0.206779 -0.574488
O4    O     O_2   0.508626 0.321530 0.796983 -0.577545
O5    O     O_R   0.578300 0.341180 0.497600 -0.629884
O6    O     O_R   0.609310 0.646410 0.496630 -0.568680
O7    O     O_R   0.390690 0.353590 0.503370 -0.564805
O8    O     O_R   0.406200 0.506190 0.574130 -0.632587
O9    O     O_R   0.593800 0.493810 0.425870 -0.625636
O10   O     O_R   0.593820 0.493770 0.568360 -0.601071
O11   O     O_R   0.406180 0.506230 0.431640 -0.592833
O12   O     O_2   0.486942 0.686562 0.800518 -0.590689
Zn1   Zn    Zn3+2 0.374730 0.508290 0.503850 0.992143
Zn2   Zn    Zn3+2 0.625270 0.491710 0.496150 0.976351

loop_
_geom_bond_atom_site_label_1
_geom_bond_atom_site_label_2
_ccdc_geom_bond_type
C66   C68   S    
C34   C56   A    
C64   H28   S    
C23   C82   A    
C27   C29   A    
C65   H26   S    
C40   N1    A    
C42   N1    A    
C42   C82   A    
O1    Zn1   S    
C26   C55   S    
C12   O5    A    
C3    C49   A    
C81   H65   S    
C72   H41   S    
C75   H57   S    
C1    C21   S    
C29   C30   A    
C23   C45   A    
C61   H15   S    
C24   C26   A    
C5    C11   A    
C68   H31   S    
C22   C60   S    
C38   C39   A    
N3    Zn1   S    
C11   C14   A    
O5    Zn2   S    
N4    Zn2   S    
C73   H50   S    
C56   C78   A    
C27   H2    S    
C7    C9    A    
C73   C74   S    
C3    C47   A    
C31   F3    S    
C24   C29   A    
C11   C77   S    
C68   H30   S    
C71   H44   S    
C44   C53   A    
C3    C16   S    
C69   H40   S    
C52   C54   A    
C49   C51   A    
C22   C25   A    
C74   H48   S    
C45   C67   A    
C50   C52   A    
C31   C33   A    
C32   C38   A    
C15   C82   A    
C57   H3    S    
C44   C47   A    
C76   H53   S    
C70   H38   S    
C76   H52   S    
C21   C27   A    
C13   C80   S    
C57   H5    S    
C35   H23   S    
C36   N4    A    
C65   H27   S    
C46   C54   A    
C71   H46   S    
C55   H6    S    
C17   O11   A    
C80   H68   S    
C79   H58   S    
O8    Zn1   S    
C77   C79   S    
C40   C45   A    
C74   H49   S    
C46   C48   A    
C53   N1    S    
C58   H11   S    
C19   H69   S    
C32   C35   A    
C61   H16   S    
C55   H7    S    
C43   N2    A    
C77   H61   S    
C16   O8    A    
C79   H59   S    
C73   H51   S    
C1    O6    A    
C58   C59   S    
C81   H63   S    
C8    C18   A    
C64   H29   S    
C4    C50   A    
C43   O3    S    
C67   C69   S    
C63   H21   S    
C19   C78   A    
C75   C76   S    
C41   C56   A    
C5    C9    A    
C62   C63   S    
C57   H4    S    
C41   N2    A    
C16   O10   A    
C62   H22   S    
C13   C15   A    
C2    C43   A    
C32   F4    S    
C74   H47   S    
C12   C20   S    
C28   H70   S    
O7    Zn1   S    
C66   H33   S    
C58   H13   S    
C35   N3    A    
C80   H66   S    
C1    O1    A    
C6    C7    A    
O11   Zn1   S    
C75   H55   S    
C4    C17   S    
C70   H37   S    
C7    C19   A    
C55   C57   S    
C9    C34   A    
C59   H9    S    
C25   C58   S    
C63   H19   S    
C60   H18   S    
C72   H43   S    
C37   N3    A    
C46   F5    S    
C4    C48   A    
O6    Zn2   S    
C21   C25   A    
C24   C62   S    
C22   C30   A    
C65   H25   S    
C48   C73   S    
C37   F1    S    
C51   C64   S    
C49   H1    S    
C80   C81   S    
C77   H62   S    
C6    C10   A    
C5    C8    A    
C17   O9    A    
C72   H42   S    
C12   O7    A    
C14   H45   S    
C10   C23   A    
C81   H64   S    
C20   C28   A    
O9    Zn2   S    
C50   H12   S    
C64   C65   S    
C28   C30   A    
C33   N4    A    
C18   C67   A    
C47   C75   S    
C71   C72   S    
C37   C39   A    
C68   H32   S    
C6    C13   A    
C40   O12   S    
C2    C34   A    
C33   H34   S    
C20   C26   A    
C36   F2    S    
C36   C38   A    
C31   C39   A    
C61   H14   S    
C79   H60   S    
C69   C70   S    
C2    C14   A    
C60   H17   S    
C54   N2    S    
C15   H56   S    
C70   H36   S    
C52   C66   S    
C62   H24   S    
C69   H39   S    
C8    C10   A    
C59   H8    S    
C41   O2    S    
C59   H10   S    
C66   H35   S    
C60   C61   S    
C51   C53   A    
C63   H20   S    
C44   F6    S    
C71   C78   S    
C18   H67   S    
O10   Zn2   S    
C42   O4    S    
C76   H54   S    
