data_mof_unit_40786.cif
_audit_creation_date              2012-12-10T17:14:40-0500
_audit_creation_method            fapswitch 2.2
_symmetry_space_group_name_H-M    P1
_symmetry_Int_Tables_number       1
_space_group_crystal_system       triclinic
_cell_length_a                    10.609139
_cell_length_b                    13.049463
_cell_length_c                    11.74468
_cell_angle_alpha                 100.86605
_cell_angle_beta                  93.024658
_cell_angle_gamma                 91.869567
_cell_volume                      1593.09500693

loop_
_atom_site_label
_atom_site_type_symbol
_atom_type_description
_atom_site_fract_x
_atom_site_fract_y
_atom_site_fract_z
_atom_type_partial_charge
C1    C     C_R   0.507156 0.299262 0.477225 0.801754
C2    C     C_R   0.492844 0.700737 0.522775 0.801754
C3    C     C_R   0.545689 0.139279 0.560158 -0.072256
C4    C     C_R   0.454311 0.860721 0.439842 -0.072256
C5    C     C_R   0.520432 0.031902 0.553626 0.093204
C6    C     C_R   0.479568 0.968098 0.446374 0.093204
C7    C     C_R   0.359748 0.418895 0.028266 -0.124089
C8    C     C_R   0.640252 0.581104 0.971734 -0.124089
C9    C     C_R   0.379145 0.423105 0.147833 0.078950
C10   C     C_R   0.620854 0.576895 0.852167 0.078950
C11   C     C_R   0.559381 0.537048 0.156722 0.103229
C12   C     C_R   0.440619 0.462952 0.843278 0.103229
C13   C     C_R   0.551309 0.530159 0.032919 -0.044159
C14   C     C_R   0.448691 0.469841 0.967081 -0.044159
C15   C     C_R   0.259377 0.499882 0.500812 0.790788
C16   C     C_R   0.740623 0.500118 0.499188 0.790789
C17   C     C_3   0.046287 0.507522 0.610255 -0.119830
C18   C     C_3   0.953713 0.492478 0.389745 -0.119830
C19   C     C_3   0.956531 0.418191 0.543054 -0.151367
C20   C     C_3   0.043469 0.581809 0.456946 -0.151367
C21   C     C_3   0.877435 0.499954 0.497992 0.012196
C22   C     C_3   0.122565 0.500046 0.502008 0.012196
C23   C     C_3   0.964873 0.589279 0.565148 -0.178477
C24   C     C_3   0.035127 0.410721 0.434852 -0.178477
C25   C     C_R   0.482590 0.815225 0.538054 -0.156401
C26   C     C_R   0.517410 0.184775 0.461946 -0.156401
C27   C     C_R   0.470247 0.011885 0.346318 -0.237307
C28   C     C_R   0.529753 0.988115 0.653682 -0.237307
C29   C     C_R   0.490991 0.118594 0.351909 -0.021000
C30   C     C_R   0.509009 0.881405 0.648091 -0.021001
Cu1   Cu    Cu3+1 0.509400 0.507730 0.615930 0.960637
Cu2   Cu    Cu3+1 0.490600 0.492270 0.384070 0.960637
H1    H     H_    0.917568 0.351210 0.578002 0.148405
H2    H     H_    0.082432 0.648790 0.421998 0.148405
H3    H     H_    0.086923 0.513690 0.700492 0.152204
H4    H     H_    0.913077 0.486310 0.299508 0.152204
H5    H     H_    0.932753 0.662330 0.618197 0.135327
H6    H     H_    0.067247 0.337670 0.381803 0.135327
H7    H     H_    0.450170 0.962531 0.261712 0.150457
H8    H     H_    0.549830 0.037468 0.738288 0.150458
H9    H     H_    0.686690 0.617614 0.806935 0.135927
H10   H     H_    0.313310 0.382385 0.193065 0.135927
N1    N     N_R   0.523540 0.519360 0.790140 -0.209039
N2    N     N_R   0.476460 0.480640 0.209860 -0.209039
O1    O     O_R   0.506670 0.354460 0.582000 -0.565065
O2    O     O_R   0.493330 0.645540 0.418000 -0.565065
O3    O     O_R   0.490800 0.341410 0.386200 -0.584516
O4    O     O_R   0.509200 0.658590 0.613800 -0.584516
O5    O     O_R   0.324790 0.506500 0.597880 -0.591338
O6    O     O_R   0.675210 0.493500 0.402120 -0.591338
O7    O     O_R   0.308910 0.493440 0.402080 -0.589557
O8    O     O_R   0.691090 0.506560 0.597920 -0.589557
C31   C     C_1   0.390860 0.799255 0.334966 0.242965
N3    N     N_1   0.339769 0.750406 0.251845 -0.302898
C32   C     C_1   0.609140 0.200745 0.665034 0.242965
N4    N     N_1   0.660231 0.249594 0.748155 -0.302898
C33   C     C_R   0.505109 0.845830 0.760868 0.149721
C34   C     C_R   0.607163 0.869962 0.844153 -0.170404
C35   C     C_R   0.597676 0.847392 0.955167 -0.142130
C36   C     C_R   0.486816 0.800051 0.983818 -0.112153
C37   C     C_R   0.385221 0.774943 0.901459 -0.132277
C38   C     C_R   0.393598 0.798686 0.790774 -0.093737
H11   H     H_    0.693181 0.907755 0.823604 0.134169
H12   H     H_    0.676236 0.866762 0.019120 0.151902
H13   H     H_    0.480202 0.782155 0.069580 0.151382
H14   H     H_    0.299496 0.738089 0.923793 0.140322
H15   H     H_    0.312886 0.781486 0.728792 0.111831
C39   C     C_R   0.494892 0.154169 0.239132 0.149721
C40   C     C_R   0.606403 0.201314 0.209227 -0.093737
C41   C     C_R   0.614780 0.225058 0.098541 -0.132277
C42   C     C_R   0.513186 0.199950 0.016183 -0.112154
C43   C     C_R   0.402325 0.152608 0.044832 -0.142130
C44   C     C_R   0.392839 0.130038 0.155846 -0.170404
H16   H     H_    0.687115 0.218515 0.271209 0.111830
H17   H     H_    0.700505 0.261913 0.076209 0.140321
H18   H     H_    0.519800 0.217846 0.930421 0.151383
H19   H     H_    0.323766 0.133238 0.980879 0.151902
H20   H     H_    0.306820 0.092244 0.176395 0.134169
C45   C     C_1   0.351552 0.390421 0.769851 0.326009
N5    N     N_1   0.280551 0.331645 0.710910 -0.289857
C46   C     C_1   0.648448 0.609579 0.230149 0.326009
N6    N     N_1   0.719449 0.668355 0.289090 -0.289858
C47   C     C_1   0.243705 0.365072 0.975851 0.190081
N7    N     N_1   0.150182 0.321938 0.935365 -0.273600
C48   C     C_1   0.756295 0.634928 0.024148 0.190081
N8    N     N_1   0.849818 0.678061 0.064635 -0.273601

loop_
_geom_bond_atom_site_label_1
_geom_bond_atom_site_label_2
_ccdc_geom_bond_type
C7    C47   S    
C32   N4    T    
C30   C33   S    
C16   C21   S    
C4    C31   S    
C27   C29   A    
C18   C21   S    
Cu1   O8    S    
C4    C25   A    
C33   C38   A    
C48   N8    T    
C2    O2    A    
C9    H10   S    
C17   C23   S    
Cu1   N1    S    
C38   H15   S    
C18   C24   S    
C19   C21   S    
C16   O6    A    
C12   N1    A    
C5    C6    A    
C28   H8    S    
C5    C28   A    
C12   C45   S    
C25   C30   A    
C8    C48   S    
C3    C32   S    
C37   H14   S    
C15   C22   S    
C47   N7    T    
C27   H7    S    
C39   C40   A    
C24   H6    S    
C44   H20   S    
C41   C42   A    
C15   O7    A    
C6    C27   A    
C20   H2    S    
C35   C36   A    
C13   C14   A    
C10   H9    S    
C37   C38   A    
Cu1   O5    S    
C46   N6    T    
C7    C14   A    
Cu2   N2    S    
C11   N2    A    
C4    C6    A    
C19   H1    S    
C1    O3    A    
C2    O4    A    
C39   C44   A    
C23   H5    S    
C11   C46   S    
C36   C37   A    
Cu2   O7    S    
C43   H19   S    
C29   C39   S    
Cu1   Cu2   S    
C20   C23   S    
C35   H12   S    
C40   H16   S    
Cu2   O6    S    
C12   C14   A    
C36   H13   S    
Cu1   O4    S    
C21   C23   S    
C1    C26   S    
Cu2   O3    S    
C22   C24   S    
C34   H11   S    
C7    C9    A    
C9    N2    A    
C10   N1    A    
Cu2   O2    S    
C3    C26   A    
C16   O8    A    
C20   C22   S    
C43   C44   A    
C3    C5    A    
C31   N3    T    
C17   C22   S    
C28   C30   A    
C19   C24   S    
C34   C35   A    
C42   C43   A    
C11   C13   A    
C1    O1    A    
C33   C34   A    
C42   H18   S    
C17   C19   S    
C2    C25   S    
C18   C20   S    
C15   O5    A    
C40   C41   A    
C45   N5    T    
C8    C13   A    
C26   C29   A    
C8    C10   A    
Cu1   O1    S    
C41   H17   S    
C17   H3    S    
C18   H4    S    
