data_mof_unit_36306.cif
_audit_creation_date              2013-03-05T16:13:49-0500
_audit_creation_method            fapswitch 2.2
_symmetry_space_group_name_H-M    P1
_symmetry_Int_Tables_number       1
_space_group_crystal_system       triclinic
_cell_length_a                    10.672782
_cell_length_b                    9.853185
_cell_length_c                    15.828525
_cell_angle_alpha                 89.9606
_cell_angle_beta                  90.283584
_cell_angle_gamma                 89.811317
_cell_volume                      1664.51203715

loop_
_atom_site_label
_atom_site_type_symbol
_atom_site_description
_atom_site_fract_x
_atom_site_fract_y
_atom_site_fract_z
_atom_type_partial_charge
O1    O     O_R   0.316770 0.614620 0.499990 -0.598213
O2    O     O_R   0.683230 0.385380 0.500010 -0.598119
O3    O     O_R   0.683230 0.614620 0.500010 -0.605634
O4    O     O_R   0.316770 0.385380 0.499990 -0.605661
C1    C     C_R   0.872135 0.498824 0.501077 -0.358139
C2    C     C_R   0.127865 0.501170 0.498917 -0.358156
C3    C     C_R   0.260318 0.500275 0.499509 1.022702
C4    C     C_R   0.739682 0.499724 0.500485 1.022324
O5    O     O_R   0.499980 0.614630 0.378020 -0.637682
O6    O     O_R   0.500020 0.385370 0.621980 -0.637693
O7    O     O_R   0.500020 0.614630 0.621980 -0.589356
O8    O     O_R   0.499980 0.385370 0.378020 -0.589347
C5    C     C_R   0.500256 0.500046 0.339284 0.973100
C6    C     C_R   0.499756 0.499953 0.660716 0.973287
Zn1   Zn    Zn3+2 0.500000 0.653120 0.500000 1.039351
Zn2   Zn    Zn3+2 0.500000 0.346880 0.500000 1.039384
H1    H     H_    0.642535 0.125699 0.593251 0.151475
H2    H     H_    0.357463 0.874301 0.406750 0.151466
H3    H     H_    0.357699 0.126936 0.406632 0.181637
H4    H     H_    0.642291 0.873065 0.593373 0.181747
N1    N     N_R   0.500000 0.857200 0.500000 -0.099918
N2    N     N_R   0.500000 0.142800 0.500000 -0.099889
C7    C     C_R   0.495596 0.623445 0.956100 -0.131608
C8    C     C_R   0.504500 0.376556 0.043901 -0.131595
C9    C     C_R   0.495792 0.623503 0.043708 -0.156976
C10   C     C_R   0.504304 0.376498 0.956292 -0.156977
C11   C     C_R   0.499847 0.499943 0.913032 0.153021
C12   C     C_R   0.500245 0.500058 0.086968 0.153025
C13   C     C_1   0.499728 0.499893 0.824137 -0.019395
C14   C     C_1   0.500338 0.500107 0.175863 -0.019371
C15   C     C_1   0.500343 0.500120 0.250790 -0.056639
C16   C     C_1   0.499697 0.499879 0.749210 -0.056590
C17   C     C_R   0.579184 0.071563 0.551809 -0.020327
C18   C     C_R   0.420815 0.928438 0.448192 -0.020485
C19   C     C_R   0.420869 0.072246 0.448161 -0.019307
C20   C     C_R   0.579127 0.927755 0.551841 -0.019273
C21   C     C_R   0.064188 0.422461 0.438636 0.205918
C22   C     C_R   0.935811 0.577542 0.561350 0.206091
C23   C     C_R   0.934646 0.420970 0.440098 0.210866
C24   C     C_R   0.065353 0.579023 0.559898 0.210705
H5    H     H_    0.492488 0.718988 0.077593 0.155639
H6    H     H_    0.507604 0.281012 0.922407 0.155637
H7    H     H_    0.492165 0.718885 0.922064 0.160283
H8    H     H_    0.507927 0.281116 0.077936 0.160287
N3    N     N_R   0.130493 0.351546 0.373161 0.233246
O9    O     O_R   0.111774 0.222696 0.360695 -0.326906
O10   O     O_R   0.207765 0.416522 0.324503 -0.414437
N4    N     N_R   0.869502 0.648433 0.626828 0.233328
O11   O     O_R   0.887850 0.777407 0.639085 -0.327059
O12   O     O_R   0.792390 0.583400 0.675572 -0.414399
N5    N     N_R   0.866441 0.349294 0.375913 0.249589
O13   O     O_R   0.807480 0.416444 0.317054 -0.394367
O14   O     O_R   0.850776 0.218796 0.382198 -0.307794
N6    N     N_R   0.133552 0.650682 0.624096 0.249480
O15   O     O_R   0.192964 0.583502 0.682743 -0.394706
O16   O     O_R   0.148677 0.781298 0.618047 -0.307568

loop_
_geom_bond_atom_site_label_1
_geom_bond_atom_site_label_2
_geom_bond_distance
_ccdc_geom_bond_type
O4    Zn2   1.990801 S    
C1    C4    1.413625 S    
C23   N5    1.434525 S    
C2    C3    1.413624 S    
O1    Zn1   1.993254 S    
C7    C11   1.395950 A    
C11   C13   1.407071 S    
O2    Zn2   1.993252 S    
C22   N4    1.438024 S    
C1    C23   1.403281 A    
N4    O12   1.300879 A    
O5    Zn1   1.967914 S    
C2    C21   1.404213 A    
O3    Zn1   1.990799 S    
C21   C23   1.383012 A    
N1    C20   1.366597 A    
H3    C19   1.081555 S    
N3    O9    1.300891 A    
C9    C12   1.395974 A    
C22   C24   1.383005 A    
N2    C19   1.366602 A    
H2    C18   1.081870 S    
C10   C11   1.395975 A    
H1    C17   1.081871 S    
O4    C3    1.280670 A    
C12   C14   1.407073 S    
N4    O11   1.300979 A    
C8    C10   1.386700 A    
O3    C4    1.280682 A    
C13   C16   1.185987 T    
N6    O16   1.301116 A    
C7    C9    1.386700 A    
C14   C15   1.185987 T    
C8    H8    1.083872 S    
O7    C6    1.285210 A    
C2    C24   1.403315 A    
C21   N3    1.438080 S    
N5    O13   1.300904 A    
H4    C20   1.081544 S    
C8    C12   1.395949 A    
Zn1   N1    2.010838 S    
C17   C20   1.416969 A    
C7    H7    1.083872 S    
O8    C5    1.285210 A    
C10   H6    1.083862 S    
C18   C19   1.416973 A    
O6    C6    1.285127 A    
N3    O10   1.300884 A    
C9    H5    1.083861 S    
O6    Zn2   1.967911 S    
N2    C17   1.366684 A    
O5    C5    1.285128 A    
N6    O15   1.300968 A    
Zn2   N2    2.010838 S    
N1    C18   1.366688 A    
O1    C3    1.279405 A    
C1    C22   1.404170 A    
O7    Zn1   1.967399 S    
C5    C15   1.400731 S    
O2    C4    1.279395 A    
O8    Zn2   1.967402 S    
C24   N6    1.434563 S    
C6    C16   1.400732 S    
N5    O14   1.300995 A    
