data_mof_unit_15007.cif
_audit_creation_date              2012-12-10T17:01:34-0500
_audit_creation_method            fapswitch 2.2
_symmetry_space_group_name_H-M    P1
_symmetry_Int_Tables_number       1
_space_group_crystal_system       triclinic
_cell_length_a                    12.887212
_cell_length_b                    10.694024
_cell_length_c                    10.088567
_cell_angle_alpha                 89.103521
_cell_angle_beta                  96.78596
_cell_angle_gamma                 89.74826
_cell_volume                      1380.43099869

loop_
_atom_site_label
_atom_site_type_symbol
_atom_type_description
_atom_site_fract_x
_atom_site_fract_y
_atom_site_fract_z
_atom_type_partial_charge
C1    C     C_R   0.505427 0.262646 0.501778 0.964981
C2    C     C_2   0.529149 0.132105 0.508648 -0.344137
C3    C     C_2   0.574926 0.544164 0.940317 0.055616
C4    C     C_R   0.298915 0.499442 0.474071 0.871568
C5    C     C_2   0.582588 0.514239 0.087184 -0.208930
C6    C     C_R   0.503237 0.737282 0.499046 0.927484
C7    C     C_R   0.701492 0.496409 0.525696 0.911225
C8    C     C_R   0.813977 0.492430 0.539905 -0.130653
C9    C     C_R   0.188002 0.489392 0.458631 -0.036199
C10   C     C_R   0.032737 0.392520 0.354483 -0.168881
C11   C     C_R   0.138479 0.414530 0.358816 -0.211981
C12   C     C_R   0.027251 0.524534 0.548934 0.169055
C13   C     C_R   0.133193 0.544365 0.553032 -0.265513
C14   C     C_2   0.809134 0.351669 0.340893 0.893814
C15   C     C_2   0.659171 0.623273 0.898378 0.909700
C16   C     C_3   0.444560 0.387655 0.883587 -0.199729
C17   C     C_3   0.517965 0.274084 0.917773 -0.329726
C18   C     C_3   0.457942 0.151207 0.907685 -0.919166
C19   C     C_3   0.622789 0.870533 0.308495 -0.349751
C20   C     C_3   0.701606 0.956168 0.249718 -0.408924
C21   C     C_3   0.770374 0.882336 0.165153 -0.804311
C22   C     C_R   0.974949 0.448961 0.447794 0.095250
C23   C     C_R   0.867032 0.431536 0.443968 -0.090165
C24   C     C_R   0.867629 0.562509 0.641416 -0.191129
C25   C     C_R   0.973915 0.578520 0.646058 -0.201405
C26   C     C_2   0.557573 0.934214 0.405629 0.120458
C27   C     C_2   0.506426 0.870178 0.494248 -0.351576
C28   C     C_2   0.540504 0.068767 0.398205 -0.153363
H1    H     H_    0.542338 0.088652 0.607346 0.160107
H2    H     H_    0.533074 0.114638 0.300746 0.166727
H3    H     H_    0.700712 0.219911 0.299866 0.329218
H4    H     H_    0.699951 0.774975 0.795805 0.320976
H5    H     H_    0.396986 0.150880 0.976888 0.263312
H6    H     H_    0.420494 0.137798 0.803984 0.266163
H7    H     H_    0.512664 0.071980 0.935314 0.262254
H8    H     H_    0.579495 0.271669 0.849521 0.249777
H9    H     H_    0.557571 0.280528 0.021164 0.224466
H10   H     H_    0.391432 0.400587 0.960215 0.131234
H11   H     H_    0.390014 0.364986 0.794264 0.228220
H12   H     H_    0.658648 0.511663 0.145460 0.234224
H13   H     H_    0.815211 0.808787 0.226737 0.268324
H14   H     H_    0.721518 0.837970 0.080902 0.273796
H15   H     H_    0.826448 0.946453 0.123814 0.254177
H16   H     H_    0.659645 0.029402 0.184636 0.219159
H17   H     H_    0.752425 0.001013 0.332011 0.260132
H18   H     H_    0.668315 0.792697 0.362341 0.210394
H19   H     H_    0.569375 0.831168 0.225062 0.217067
H20   H     H_    0.432996 0.537278 0.098210 0.177776
H21   H     H_    0.826475 0.610344 0.713305 0.197190
H22   H     H_    0.998503 0.329508 0.279194 0.181435
H23   H     H_    0.014056 0.635478 0.723812 0.152329
H24   H     H_    0.182359 0.368870 0.287849 0.157695
H25   H     H_    0.173589 0.601447 0.630733 0.149775
H26   H     H_    0.459413 0.916000 0.561897 0.138376
N1    N     N_2   0.501130 0.501330 0.852280 -0.136745
N2    N     N_2   0.501160 0.501360 0.147950 -0.215095
O1    O     O_R   0.499980 0.319060 0.613040 -0.640946
O2    O     O_R   0.741909 0.259742 0.379670 -0.810454
O3    O     O_2   0.749767 0.602112 0.944322 -0.647494
O4    O     O_R   0.635508 0.726744 0.814303 -0.788704
O5    O     O_R   0.500020 0.319100 0.386900 -0.599030
O6    O     O_R   0.346340 0.499960 0.594380 -0.640787
O7    O     O_R   0.346380 0.500000 0.368250 -0.621174
O8    O     O_R   0.499980 0.680900 0.613100 -0.554046
O9    O     O_R   0.500020 0.680940 0.386960 -0.630551
O10   O     O_R   0.653620 0.500000 0.631750 -0.609970
O11   O     O_R   0.653660 0.500040 0.405620 -0.616275
O12   O     O_2   0.816559 0.370080 0.222423 -0.640855
Zn1   Zn    Zn3+2 0.499980 0.499970 0.650990 0.963021
Zn2   Zn    Zn3+2 0.500020 0.500030 0.349010 0.941191

loop_
_geom_bond_atom_site_label_1
_geom_bond_atom_site_label_2
_ccdc_geom_bond_type
O5    Zn2   S    
C14   C23   S    
C2    C28   D    
C25   H23   S    
C15   O3    D    
C17   H8    S    
C12   C22   A    
C1    O1    A    
C18   H6    S    
C15   O4    S    
C5    N2    D    
C26   C28   S    
C20   H17   S    
O7    Zn2   S    
C12   C25   A    
O11   Zn2   S    
O1    Zn1   S    
C8    C23   A    
C19   C20   S    
C28   H2    S    
C17   C18   S    
C4    C9    S    
C16   N1    S    
C7    C8    S    
C17   H9    S    
O8    Zn1   S    
C20   C21   S    
C7    O10   A    
C12   C13   A    
C9    C11   A    
C4    O7    A    
C26   C27   D    
N1    Zn1   S    
C27   H26   S    
C2    H1    S    
C21   H13   S    
H3    O2    S    
C8    C24   A    
C13   H25   S    
C14   O2    S    
C18   H5    S    
C19   H19   S    
C19   H18   S    
O10   Zn1   S    
C10   C11   A    
H4    O4    S    
C16   H11   S    
C7    O11   A    
C21   H14   S    
C10   H22   S    
C4    O6    A    
N2    Zn2   S    
C3    C15   S    
C24   C25   A    
C1    C2    S    
C18   H7    S    
C5    H12   S    
C6    O8    A    
C24   H21   S    
H20   N2    S    
C19   C26   S    
C9    C13   A    
C22   C23   A    
C14   O12   D    
C11   H24   S    
C20   H16   S    
O9    Zn2   S    
C21   H15   S    
C3    N1    D    
C6    O9    A    
C10   C22   A    
C6    C27   S    
O6    Zn1   S    
C16   H10   S    
C16   C17   S    
C3    C5    S    
C1    O5    A    
