data_mof_unit_24097.cif
_audit_creation_date              2013-03-05T16:12:12-0500
_audit_creation_method            fapswitch 2.2
_symmetry_space_group_name_H-M    P1
_symmetry_Int_Tables_number       1
_space_group_crystal_system       triclinic
_cell_length_a                    11.043426
_cell_length_b                    9.938364
_cell_length_c                    27.611239
_cell_angle_alpha                 90.442648
_cell_angle_beta                  87.504776
_cell_angle_gamma                 91.618741
_cell_volume                      3026.28700703

loop_
_atom_site_label
_atom_site_type_symbol
_atom_site_description
_atom_site_fract_x
_atom_site_fract_y
_atom_site_fract_z
_atom_type_partial_charge
O1    O     O_R   0.317570 0.620260 0.500030 -0.582167
O2    O     O_R   0.317570 0.379740 0.500030 -0.515875
C1    C     C_R   0.261373 0.498040 0.502991 0.846239
O3    O     O_R   0.499900 0.620250 0.430280 -0.557798
O4    O     O_R   0.499900 0.379750 0.430280 -0.549854
C2    C     C_R   0.496347 0.499385 0.408306 0.816011
Cu1   Cu    Cu3+1 0.499860 0.642410 0.500020 0.994834
Cu2   Cu    Cu3+1 0.499860 0.357590 0.500020 1.042123
O5    O     O_R   0.682190 0.620260 0.500010 -0.584275
O6    O     O_R   0.682190 0.379740 0.500010 -0.562667
O7    O     O_R   0.499860 0.620280 0.569750 -0.580498
O8    O     O_R   0.499860 0.379720 0.569750 -0.540357
C3    C     C_R   0.739524 0.500970 0.498513 0.781880
C4    C     C_R   0.498310 0.500600 0.592037 0.853413
C5    C     C_R   0.310810 0.504049 0.182946 0.598113
O9    O     O_2   0.215606 0.449731 0.208763 -0.514708
N1    N     N_R   0.414765 0.537358 0.206299 -0.441930
C6    C     C_R   0.513229 0.594218 0.181628 0.614060
C7    C     C_R   0.525700 0.435746 0.272417 0.314665
C8    C     C_R   0.553887 0.439053 0.321738 0.271313
C9    C     C_R   0.366220 0.553005 0.341024 -0.156482
C10   C     C_R   0.344676 0.562785 0.291857 -0.098580
C11   C     C_R   0.425223 0.507250 0.257081 0.172820
C12   C     C_R   0.414239 0.559974 0.105919 -0.073900
C13   C     C_R   0.305354 0.522533 0.131993 -0.039634
C14   C     C_R   0.198083 0.501309 0.105803 0.142882
C15   C     C_R   0.518519 0.596063 0.131123 -0.012557
C16   C     C_R   0.473384 0.497626 0.356199 -0.123681
H1    H     H_    0.301233 0.593767 0.367335 0.176803
H2    H     H_    0.266914 0.616989 0.280823 0.196931
C17   C     C_R   0.492950 0.503383 0.645831 -0.121519
C18   C     C_R   0.320397 0.552136 0.977319 0.061628
C19   C     C_R   0.542374 0.551996 0.978721 0.006483
C20   C     C_R   0.435528 0.546739 0.952539 0.081660
C21   C     C_R   0.217041 0.566641 0.949687 -0.196782
C22   C     C_R   0.227002 0.570606 0.899273 -0.105842
C23   C     C_R   0.339154 0.552701 0.874706 -0.025634
C24   C     C_R   0.443687 0.536314 0.901309 -0.076211
C25   C     C_R   0.555775 0.509579 0.876763 -0.037254
C26   C     C_R   0.555727 0.488388 0.826011 0.645896
N2    N     N_R   0.456130 0.517892 0.800502 -0.435919
C27   C     C_R   0.349601 0.552607 0.823929 0.657249
C28   C     C_R   0.388570 0.429888 0.721230 0.346981
C29   C     C_R   0.397806 0.433553 0.670629 -0.256841
C30   C     C_R   0.576921 0.579871 0.672779 -0.055862
C31   C     C_R   0.556837 0.594444 0.723425 0.352765
C32   C     C_R   0.465947 0.514688 0.748078 0.103783
O10   O     O_2   0.253966 0.586198 0.798187 -0.470398
C33   C     C_R   0.313240 0.542896 0.028759 0.004539
C34   C     C_R   0.420176 0.560276 0.054565 0.079440
C35   C     C_R   0.534099 0.576362 0.029289 0.062485
C36   C     C_R   0.203416 0.514392 0.055093 -0.178897
H3    H     H_    0.330007 0.380352 0.650720 0.240513
H4    H     H_    0.145592 0.584376 0.879560 0.193150
H5    H     H_    0.127980 0.580849 0.966292 0.138352
H6    H     H_    0.121005 0.494398 0.036359 0.140291
O11   O     O_2   0.607630 0.645125 0.206067 -0.480083
C37   C     C_R   0.627220 0.629530 0.105536 -0.104371
H7    H     H_    0.707869 0.659947 0.124249 0.193936
C38   C     C_R   0.654049 0.529347 0.953909 -0.175698
C39   C     C_R   0.662288 0.505428 0.903859 0.150023
O12   O     O_2   0.653317 0.437945 0.801973 -0.488921
C40   C     C_R   0.635890 0.616515 0.055473 -0.202158
H8    H     H_    0.736044 0.523231 0.973608 0.139553
H9    H     H_    0.722512 0.642352 0.037804 0.143271
C41   C     C_3   0.066742 0.606800 0.540759 0.481961
C42   C     C_3   0.061036 0.350651 0.521923 0.500357
C43   C     C_3   0.928301 0.611653 0.532089 -0.400369
C44   C     C_3   0.920288 0.367596 0.521407 -0.416959
H10   H     H_    0.873025 0.610521 0.566228 0.222989
H11   H     H_    0.877444 0.363335 0.558492 0.257173
H12   H     H_    0.913088 0.707734 0.515591 0.240432
H13   H     H_    0.881320 0.283772 0.501105 0.232981
H14   H     H_    0.124032 0.618958 0.438647 0.219573
H15   H     H_    0.131678 0.456176 0.424580 0.213934
C45   C     C_3   0.085105 0.521649 0.451528 -0.394553
C46   C     C_3   0.122813 0.493608 0.504763 -0.231561
C47   C     C_3   0.880201 0.499974 0.498245 -0.108435
C48   C     C_3   0.944879 0.513437 0.445866 0.238528
C49   C     C_3   0.628075 0.086238 0.499727 0.406045
C50   C     C_3   0.625477 0.921163 0.506154 0.441883
C51   C     C_3   0.427014 0.079539 0.544670 -0.012343
C52   C     C_3   0.413229 0.918216 0.539926 -0.045722
C53   C     C_3   0.432113 0.076492 0.458598 0.100242
C54   C     C_3   0.445792 0.915614 0.455398 0.079192
N3    N     N_3   0.500250 0.143650 0.501060 -0.267443
N4    N     N_3   0.500250 0.856350 0.501060 -0.279762
H16   H     H_    0.333447 0.085063 0.468069 0.155862
H17   H     H_    0.350142 0.876074 0.456082 0.167927
H18   H     H_    0.332584 0.115056 0.541729 0.196181
H19   H     H_    0.319351 0.907763 0.527076 0.187616
N5    N     N_R   0.600764 0.364673 0.237408 0.162273
O13   O     O_R   0.718281 0.379399 0.236598 -0.232891
O14   O     O_R   0.550949 0.291590 0.203979 -0.326692
C55   C     C_3   0.689542 0.642247 0.648869 -0.527596
H20   H     H_    0.689177 0.753200 0.653349 0.290272
H21   H     H_    0.770837 0.602275 0.665348 0.276228
H22   H     H_    0.698305 0.615722 0.610131 0.212990
C56   C     C_3   0.787034 0.482338 0.881020 -0.660793
H23   H     H_    0.808549 0.557970 0.852298 0.279907
H24   H     H_    0.859343 0.492579 0.907662 0.185669
H25   H     H_    0.791399 0.378808 0.865807 0.270635
N6    N     N_R   0.626115 0.692474 0.750079 0.137468
O15   O     O_R   0.743801 0.688706 0.749801 -0.284911
O16   O     O_R   0.570562 0.778481 0.778328 -0.319235
N7    N     N_R   0.116628 0.745410 0.532963 0.108601
O17   O     O_R   0.129623 0.796067 0.489742 -0.396165
O18   O     O_R   0.104726 0.830830 0.568743 -0.269506
N8    N     N_R   0.092267 0.233578 0.490829 0.104218
O19   O     O_R   0.154219 0.244379 0.450156 -0.354774
O20   O     O_R   0.057223 0.113259 0.504728 -0.245669
N9    N     N_R   0.087900 0.572714 0.591975 0.152071
O21   O     O_R   0.197636 0.575793 0.607171 -0.364496
O22   O     O_R   0.999649 0.545884 0.623566 -0.297555
N10   N     N_R   0.093979 0.313698 0.571361 0.163875
O23   O     O_R   0.018325 0.244121 0.599481 -0.205062
O24   O     O_R   0.207201 0.313149 0.581624 -0.387351
C57   C     C_3   0.907829 0.639517 0.418240 -0.719053
H26   H     H_    0.952409 0.641956 0.381351 0.261951
H27   H     H_    0.808892 0.637794 0.413531 0.245199
H28   H     H_    0.937937 0.733809 0.436026 0.241820
C58   C     C_3   0.912237 0.391999 0.412856 -0.641678
H29   H     H_    0.947454 0.296057 0.425072 0.243900
H30   H     H_    0.812833 0.380264 0.411328 0.238775
H31   H     H_    0.951284 0.406541 0.375418 0.276426
N11   N     N_R   0.708304 0.139443 0.537950 0.165106
O25   O     O_R   0.815324 0.088872 0.541220 -0.268596
O26   O     O_R   0.679504 0.232614 0.568931 -0.326419
N12   N     N_R   0.665776 0.885396 0.555727 0.196416
O27   O     O_R   0.759129 0.812824 0.561990 -0.358208
O28   O     O_R   0.624322 0.945836 0.594409 -0.367014
C59   C     C_3   0.693782 0.137138 0.451525 -0.735360
H32   H     H_    0.675288 0.076813 0.420086 0.277509
H33   H     H_    0.664410 0.234779 0.439541 0.273870
H34   H     H_    0.793695 0.139507 0.453186 0.217922
C60   C     C_3   0.718535 0.860270 0.467533 -0.647550
H35   H     H_    0.677523 0.778076 0.446973 0.271597
H36   H     H_    0.767194 0.918043 0.439126 0.198676
H37   H     H_    0.800658 0.830972 0.483450 0.238600
C61   C     C_3   0.441632 0.129359 0.598199 -0.456921
H38   H     H_    0.398003 0.062475 0.625528 0.184334
H39   H     H_    0.530803 0.145247 0.612568 0.290643
H40   H     H_    0.387815 0.217420 0.605824 0.221473
C62   C     C_3   0.378786 0.838920 0.586690 -0.519283
H41   H     H_    0.451827 0.823414 0.611809 0.263416
H42   H     H_    0.303814 0.887072 0.607784 0.225056
H43   H     H_    0.334650 0.742941 0.577175 0.275860
N13   N     N_R   0.437417 0.145191 0.410843 0.188951
O29   O     O_R   0.341067 0.203437 0.396847 -0.273326
O30   O     O_R   0.519389 0.122913 0.376963 -0.262660
N14   N     N_R   0.485264 0.865096 0.406588 0.193749
O31   O     O_R   0.400752 0.828857 0.377321 -0.316494
O32   O     O_R   0.592771 0.885259 0.386735 -0.325354
C63   C     C_3   0.075779 0.468110 0.130167 -0.668225
H44   H     H_    0.001799 0.466052 0.104141 0.197021
H45   H     H_    0.076315 0.366934 0.146877 0.275045
H46   H     H_    0.053012 0.545716 0.157982 0.258960
N15   N     N_R   0.301493 0.338631 0.744685 0.163228
O33   O     O_R   0.201742 0.304632 0.723721 -0.237909
O34   O     O_R   0.328261 0.275755 0.783809 -0.321340
N16   N     N_R   0.671357 0.401765 0.335341 0.109191
O35   O     O_R   0.700963 0.276084 0.333323 -0.264758
O36   O     O_R   0.756770 0.494520 0.334370 -0.358525

loop_
_geom_bond_atom_site_label_1
_geom_bond_atom_site_label_2
_geom_bond_distance
_ccdc_geom_bond_type
C52   N4    1.544866 S    
C12   C13   1.416399 A    
C40   H9    1.080026 S    
N11   O25   1.304265 A    
C49   C59   1.568235 S    
N2    C27   1.369212 A    
C41   C43   1.559889 S    
C55   H20   1.108758 S    
C42   C46   1.623581 S    
C61   H40   1.085879 S    
C4    C17   1.483990 S    
H15   C45   1.104390 S    
C28   N15   1.439517 S    
N9    O22   1.302568 A    
N16   O35   1.300223 A    
C55   H22   1.100428 S    
Cu1   Cu2   2.830644 S    
C30   C31   1.413286 A    
Cu1   O7    1.939540 S    
N1    C11   1.446175 S    
H14   C45   1.102304 S    
O4    C2    1.341328 A    
C22   C23   1.401146 A    
C53   N3    1.556483 S    
N8    O20   1.301897 A    
C52   C62   1.545639 S    
O7    C4    1.342746 A    
C5    C13   1.424299 A    
N7    O17   1.299429 A    
N10   O23   1.303146 A    
C48   C57   1.546053 S    
C26   O12   1.347744 S    
C5    N1    1.372233 A    
C23   C27   1.401716 A    
C44   H11   1.109739 S    
O5    C3    1.359226 A    
C57   H26   1.111958 S    
C49   N3    1.536313 S    
C7    N5    1.439875 S    
C31   C32   1.415277 A    
C29   H3    1.072988 S    
C42   N8    1.480311 S    
Cu1   N4    2.126071 S    
C7    C8    1.410005 A    
C59   H32   1.074787 S    
N10   O24   1.294221 A    
C51   C61   1.568652 S    
N14   O31   1.302303 A    
C12   C15   1.407729 A    
C44   H13   1.089469 S    
C63   H45   1.109828 S    
Cu2   O8    1.936164 S    
N7    O18   1.302327 A    
C54   N4    1.547798 S    
O1    Cu1   2.018904 S    
C9    C10   1.393014 A    
C12   C34   1.416636 A    
C44   C47   1.551255 S    
C39   C56   1.512668 S    
C41   N7    1.482857 S    
C62   H43   1.094291 S    
N9    O21   1.299076 A    
N16   O36   1.299727 A    
N1    C6    1.368385 A    
C57   H27   1.105555 S    
C53   N13   1.487661 S    
C43   C47   1.543100 S    
C25   C39   1.422984 A    
C48   C58   1.550592 S    
C2    C16   1.471643 S    
C17   C29   1.399258 A    
C21   H5    1.079373 S    
C18   C21   1.411554 A    
C35   C40   1.409456 A    
C53   C54   1.611603 S    
C63   H46   1.110356 S    
C60   H36   1.089253 S    
C25   C26   1.415468 A    
C54   H17   1.116010 S    
C47   C48   1.589770 S    
C62   H41   1.101265 S    
C8    C16   1.407711 A    
O3    Cu1   1.936452 S    
C13   C14   1.424414 A    
C51   N3    1.551758 S    
C9    H1    1.083265 S    
O6    C3    1.345222 A    
C38   C39   1.399930 A    
O1    C1    1.349732 A    
C21   C22   1.392349 A    
C18   C20   1.419548 A    
C7    C11   1.416211 A    
C28   C29   1.397148 A    
C54   N14   1.486319 S    
C23   C24   1.408921 A    
C14   C36   1.405717 A    
C6    O11   1.350660 S    
C50   N12   1.505786 S    
C56   H23   1.110457 S    
C43   H12   1.081668 S    
C33   C36   1.409571 A    
C56   H25   1.109866 S    
N5    O14   1.301322 A    
C34   C35   1.417508 A    
N2    C32   1.446981 S    
N6    O16   1.301170 A    
C27   O10   1.349459 S    
C45   C46   1.574094 S    
C63   H44   1.110973 S    
C50   N4    1.520664 S    
C62   H42   1.108977 S    
C26   N2    1.371391 A    
C56   H24   1.111101 S    
C9    C16   1.400924 A    
O8    C4    1.345753 A    
C51   C52   1.611068 S    
C19   C38   1.407376 A    
N15   O33   1.301616 A    
C14   C63   1.511566 S    
O3    C2    1.341899 A    
C58   H30   1.103263 S    
C1    C46   1.528233 S    
C50   C60   1.577743 S    
N12   O27   1.293210 A    
C42   C44   1.568844 S    
C37   C40   1.386745 A    
Cu1   O5    2.031705 S    
C41   C46   1.614079 S    
C3    C47   1.553562 S    
N11   O26   1.292680 A    
C10   H2    1.082561 S    
C20   C24   1.416655 A    
Cu2   O6    2.019342 S    
O2    Cu2   2.031267 S    
C6    C15   1.393440 A    
C53   H16   1.114897 S    
N13   O30   1.295375 A    
C49   C50   1.650821 S    
C15   C37   1.399286 A    
O4    Cu2   1.939830 S    
C55   H21   1.108773 S    
C61   H39   1.084600 S    
C19   C35   1.414705 A    
C52   H19   1.112149 S    
C31   N6    1.439423 S    
C51   H18   1.116825 S    
C38   H8    1.079805 S    
C58   H31   1.111460 S    
O2    C1    1.345153 A    
C37   H7    1.083530 S    
N8    O19   1.292900 A    
C60   H37   1.073327 S    
N15   O34   1.301358 A    
C24   C25   1.415954 A    
C49   N11   1.491586 S    
C59   H34   1.105910 S    
C61   H38   1.096084 S    
C8    N16   1.425849 S    
N5    O13   1.301142 A    
C19   C20   1.409894 A    
Cu2   N3    2.126758 S    
N13   O29   1.300247 A    
N14   O32   1.296839 A    
C42   N10   1.479562 S    
C18   C33   1.422604 A    
C22   H4    1.083502 S    
C36   H6    1.079119 S    
C45   C48   1.562986 S    
C59   H33   1.090156 S    
C33   C34   1.411394 A    
C17   C30   1.415257 A    
N6    O15   1.300937 A    
C43   H10   1.100426 S    
C10   C11   1.401076 A    
C60   H35   1.090422 S    
C41   N9    1.486526 S    
C58   H29   1.100700 S    
C28   C32   1.412377 A    
C57   H28   1.104268 S    
C5    O9    1.346701 S    
N12   O28   1.293903 A    
C30   C55   1.502751 S    
