data_mof_unit_20432.cif
_audit_creation_date              2012-12-10T18:46:19-0500
_audit_creation_method            fapswitch 2.2
_symmetry_space_group_name_H-M    P1
_symmetry_Int_Tables_number       1
_space_group_crystal_system       triclinic
_cell_length_a                    9.899132
_cell_length_b                    10.692298
_cell_length_c                    13.038298
_cell_angle_alpha                 90.962506
_cell_angle_beta                  69.504107
_cell_angle_gamma                 89.871159
_cell_volume                      1292.44088731

loop_
_atom_site_label
_atom_site_type_symbol
_atom_type_description
_atom_site_fract_x
_atom_site_fract_y
_atom_site_fract_z
_atom_type_partial_charge
Br1   Br    Br    0.904247 0.287647 0.353393 -0.513742
Br2   Br    Br    0.225768 0.628952 0.195803 -0.600805
C1    C     C_R   0.499821 0.739903 0.500340 0.858292
C2    C     C_R   0.365439 0.510020 0.823544 -0.101393
C3    C     C_R   0.598803 0.936504 0.535747 -0.166338
C4    C     C_R   0.419250 0.499893 0.704593 0.850542
C5    C     C_R   0.599065 0.064683 0.535429 -0.164353
C6    C     C_R   0.500467 0.127551 0.499608 -0.021064
C7    C     C_R   0.401771 0.063361 0.464041 -0.181946
C8    C     C_R   0.401329 0.935255 0.464506 -0.192062
C9    C     C_R   0.499852 0.872391 0.500339 -0.031123
C10   C     C_R   0.956990 0.412400 0.439671 0.151182
C11   C     C_R   0.100753 0.411040 0.441034 0.571488
C12   C     C_R   0.426032 0.502277 0.988972 0.035238
C13   C     C_R   0.044539 0.587780 0.558829 -0.299797
C14   C     C_R   0.898902 0.585768 0.562011 0.557168
C15   C     C_R   0.500192 0.260076 0.499722 0.862229
C16   C     C_R   0.580586 0.500115 0.295445 0.901062
C17   C     C_R   0.723966 0.319399 0.035853 0.524110
C18   C     C_R   0.630419 0.476637 0.178539 -0.150853
C19   C     C_R   0.251913 0.592886 0.874894 -0.250995
C20   C     C_R   0.219074 0.625553 0.984144 -0.135778
C21   C     C_R   0.304533 0.583401 0.042239 0.231619
C22   C     C_3   0.244702 0.306591 0.282736 -0.190572
C23   C     C_R   0.442750 0.454733 0.883147 0.059856
C24   C     C_3   0.777176 0.661078 0.734979 -0.302086
C25   C     C_3   0.760420 0.111003 0.045937 -0.317035
C26   C     C_R   0.531571 0.464998 0.033886 0.012882
C27   C     C_R   0.627810 0.363270 0.985854 0.032450
C28   C     C_R   0.626093 0.306675 0.889339 -0.213053
C29   C     C_R   0.537187 0.353336 0.837529 -0.209756
C30   C     C_R   0.549292 0.528677 0.122210 -0.240958
C31   C     C_R   0.722926 0.375822 0.133461 -0.274989
H1    H     H_    0.787184 0.335935 0.177037 0.212303
H2    H     H_    0.541482 0.307960 0.761539 0.152965
H3    H     H_    0.674499 0.887938 0.564531 0.200296
H4    H     H_    0.362949 0.319964 0.252463 0.178864
H5    H     H_    0.225501 0.212289 0.254041 0.186452
H6    H     H_    0.195152 0.376075 0.244019 0.197469
H7    H     H_    0.677257 0.712926 0.783250 0.191782
H8    H     H_    0.867426 0.702731 0.755593 0.149498
H9    H     H_    0.761532 0.561671 0.760728 0.174573
H10   H     H_    0.651171 0.091367 0.043365 0.153157
H11   H     H_    0.756694 0.115748 0.132200 0.184016
H12   H     H_    0.674802 0.114299 0.564105 0.173926
H13   H     H_    0.831650 0.031173 0.004810 0.202236
H14   H     H_    0.326225 0.111685 0.435131 0.209020
H15   H     H_    0.325462 0.885685 0.435933 0.181904
H16   H     H_    0.078431 0.658837 0.604460 0.176526
H17   H     H_    0.696605 0.228379 0.851540 0.193825
H18   H     H_    0.497232 0.616983 0.151950 0.203282
H19   H     H_    0.190744 0.634975 0.829671 0.163015
H20   H     H_    0.127516 0.686772 0.023433 0.181482
N1    N     N_R   0.142790 0.500030 0.500030 -0.137753
N2    N     N_R   0.857180 0.499940 0.500010 -0.154215
O1    O     O_R   0.385370 0.683250 0.500010 -0.624028
O2    O     O_3   0.799609 0.674182 0.622683 -0.582021
O3    O     O_3   0.818157 0.221211 0.989797 -0.603782
O4    O     O_R   0.614700 0.683220 0.500010 -0.568046
O5    O     O_R   0.328400 0.499990 0.653620 -0.612395
O6    O     O_R   0.557730 0.499960 0.653620 -0.588142
O7    O     O_R   0.385300 0.316780 0.499990 -0.573469
O8    O     O_R   0.614630 0.316750 0.499990 -0.591198
O9    O     O_R   0.442270 0.500040 0.346380 -0.575963
O10   O     O_R   0.671600 0.500010 0.346380 -0.574021
O11   O     O_3   0.191411 0.309430 0.398516 -0.599118
Zn1   Zn    Zn3+2 0.346870 0.500020 0.500000 0.999248
Zn2   Zn    Zn3+2 0.653130 0.499980 0.500000 1.028896

loop_
_geom_bond_atom_site_label_1
_geom_bond_atom_site_label_2
_ccdc_geom_bond_type
C12   C21   A    
C23   C29   A    
C22   H5    S    
O9    Zn1   S    
C30   H18   S    
C3    C9    A    
C27   C28   A    
C25   H10   S    
O4    Zn2   S    
O1    Zn1   S    
C3    C5    A    
C7    C8    A    
C6    C15   S    
C22   O11   S    
C11   O11   S    
O10   Zn2   S    
C16   O9    A    
C2    C23   A    
C28   H17   S    
C14   N2    A    
C5    C6    A    
C12   C23   A    
C19   C20   A    
C15   O8    A    
C16   O10   A    
C2    C19   A    
O6    Zn2   S    
C24   H7    S    
O5    Zn1   S    
Br1   C10   S    
O7    Zn1   S    
C18   C30   A    
C18   C31   A    
C5    H12   S    
C4    O6    A    
C2    C4    S    
C26   C27   A    
C31   H1    S    
C7    H14   S    
C20   H20   S    
C16   C18   S    
C14   O2    S    
C13   H16   S    
C17   O3    S    
C8    H15   S    
C28   C29   A    
C15   O7    A    
C24   O2    S    
C29   H2    S    
C10   N2    A    
C1    C9    S    
C8    C9    A    
C13   C14   A    
C17   C27   A    
C3    H3    S    
C4    O5    A    
C26   C30   A    
C22   H6    S    
C10   C11   A    
C25   H13   S    
C22   H4    S    
C11   N1    A    
C1    O1    A    
Br2   C21   S    
C24   H9    S    
N2    Zn2   S    
C20   C21   A    
N1    Zn1   S    
C12   C26   A    
O8    Zn2   S    
C13   N1    A    
C25   H11   S    
C19   H19   S    
C24   H8    S    
C17   C31   A    
C6    C7    A    
C25   O3    S    
C1    O4    A    
