data_mof_unit_40579.cif
_audit_creation_date              2012-10-26T20:19:32-0400
_audit_creation_method            fapswitch 2.2
_symmetry_space_group_name_H-M    P1
_symmetry_Int_Tables_number       1
_space_group_crystal_system       triclinic
_cell_length_a                    10.735123
_cell_length_b                    10.859867
_cell_length_c                    9.594693
_cell_angle_alpha                 91.217472
_cell_angle_beta                  89.80684
_cell_angle_gamma                 93.290265
_cell_volume                      1116.4700142

loop_
_atom_site_label
_atom_site_type_symbol
_atom_type_description
_atom_site_fract_x
_atom_site_fract_y
_atom_site_fract_z
_atom_type_partial_charge
C1    C     C_R   0.510058 0.263622 0.498723 0.539568
C2    C     C_R   0.564013 0.071518 0.617319 0.025746
C3    C     C_R   0.524756 0.130891 0.496950 -0.011007
C4    C     C_R   0.259922 0.499675 0.499901 0.547920
C5    C     C_R   0.483536 0.061109 0.380270 -0.157701
C6    C     C_R   0.475351 0.933779 0.384662 -0.157117
C7    C     C_R   0.497078 0.873580 0.509396 0.005864
C8    C     C_R   0.673210 0.658307 0.146913 -0.157830
C9    C     C_R   0.761132 0.732062 0.076090 -0.155632
C10   C     C_R   0.761899 0.731087 0.932399 0.333418
C11   C     C_R   0.673884 0.657095 0.858923 -0.086534
C12   C     C_3   0.878140 0.501087 0.498787 0.049198
C13   C     C_R   0.586135 0.576567 0.926679 0.050996
C14   C     C_R   0.585893 0.576864 0.076176 0.121881
C15   C     C_R   0.416767 0.428585 0.073280 0.004119
C16   C     C_R   0.497149 0.738153 0.502629 0.556374
C17   C     C_R   0.416398 0.427762 0.924875 0.246173
C18   C     C_R   0.740063 0.500714 0.499652 0.572821
C19   C     C_3   0.064176 0.380530 0.564253 -0.255514
C20   C     C_3   0.920379 0.380623 0.563275 -0.295499
C21   C     C_3   0.078703 0.613334 0.583843 -0.174691
C22   C     C_3   0.072327 0.507695 0.347582 -0.238369
C23   C     C_3   0.934789 0.612877 0.585633 0.259286
C24   C     C_3   0.121854 0.500252 0.499092 -0.008721
C25   C     C_3   0.318928 0.225414 0.871240 -0.301968
C26   C     C_3   0.929770 0.508802 0.347450 -0.216439
C27   C     C_R   0.632391 0.135350 0.725078 -0.092446
C28   C     C_R   0.644667 0.082443 0.854747 -0.096449
C29   C     C_R   0.587538 0.966949 0.878847 -0.092327
C30   C     C_R   0.531327 0.898349 0.769038 -0.089677
C31   C     C_R   0.530740 0.945028 0.632036 0.044300
Cu1   Cu    Cu3+1 0.499990 0.499990 0.640660 0.945426
Cu2   Cu    Cu3+1 0.500010 0.500010 0.359340 0.921812
F1    F     F_    0.896253 0.722605 0.533513 -0.627685
F2    F     F_    0.844738 0.806786 0.863386 -0.612221
H1    H     H_    0.096771 0.372937 0.673326 0.133512
H2    H     H_    0.347909 0.371881 0.128948 0.111523
H3    H     H_    0.094685 0.298385 0.504817 0.135376
H4    H     H_    0.677099 0.670405 0.256876 0.211479
H5    H     H_    0.827302 0.792510 0.133536 0.159130
H6    H     H_    0.675383 0.670278 0.749596 0.222583
H7    H     H_    0.881222 0.299091 0.502344 0.131987
H8    H     H_    0.884657 0.372022 0.671897 0.114998
H9    H     H_    0.113444 0.611277 0.692916 0.102791
H10   H     H_    0.902133 0.606232 0.695455 0.159789
H11   H     H_    0.112282 0.592818 0.297602 0.142457
H12   H     H_    0.901685 0.594756 0.298231 0.168562
H13   H     H_    0.101248 0.427249 0.283860 0.126639
H14   H     H_    0.890788 0.429409 0.282853 0.122828
H15   H     H_    0.234870 0.391506 0.867738 0.221449
H16   H     H_    0.412879 0.190829 0.854500 0.175847
H17   H     H_    0.254160 0.178495 0.794463 0.154923
H18   H     H_    0.285992 0.202048 0.977833 0.106573
H19   H     H_    0.118767 0.699971 0.537352 0.165033
H20   H     H_    0.455991 0.104923 0.285658 0.132224
H21   H     H_    0.675440 0.226707 0.710530 0.132723
H22   H     H_    0.693081 0.133559 0.938303 0.117750
H23   H     H_    0.588110 0.929562 0.982532 0.116363
H24   H     H_    0.483445 0.812751 0.796985 0.138893
H25   H     H_    0.447799 0.882403 0.290631 0.136585
N1    N     N_R   0.501200 0.501210 0.147910 -0.253389
N2    N     N_R   0.501250 0.501290 0.852040 -0.227497
N3    N     N_2   0.321440 0.357208 0.851603 -0.462129
O1    O     O_R   0.499990 0.319640 0.618810 -0.482633
O2    O     O_R   0.500000 0.319660 0.381240 -0.508082
O3    O     O_R   0.317680 0.499970 0.618790 -0.477136
O4    O     O_R   0.317700 0.499990 0.381210 -0.511737
O5    O     O_R   0.500000 0.680340 0.618760 -0.535079
O6    O     O_R   0.500010 0.680360 0.381190 -0.518167
O7    O     O_R   0.682300 0.500010 0.618790 -0.541923
O8    O     O_R   0.682320 0.500030 0.381210 -0.521323

loop_
_geom_bond_atom_site_label_1
_geom_bond_atom_site_label_2
_ccdc_geom_bond_type
C18   O7    A    
C4    O4    A    
C20   H7    S    
C25   H16   S    
C11   H6    S    
C6    C7    A    
C16   O5    A    
C19   H3    S    
C17   N2    A    
C21   H9    S    
C9    C10   A    
Cu2   O2    S    
C22   H13   S    
C19   C20   S    
Cu2   O6    S    
C21   H19   S    
Cu1   O5    S    
C23   F1    S    
C17   N3    S    
C30   H24   S    
C12   C20   S    
C2    C3    A    
C15   N1    A    
C25   H17   S    
Cu1   N2    S    
C28   H22   S    
Cu1   Cu2   S    
C4    O3    A    
H15   N3    S    
C11   C13   A    
C12   C23   S    
Cu1   O1    S    
C10   F2    S    
C26   H12   S    
C23   H10   S    
C5    C6    A    
C13   N2    A    
Cu1   O3    S    
C7    C16   S    
C8    H4    S    
C25   H18   S    
C19   C24   S    
C3    C5    A    
C19   H1    S    
C21   C23   S    
C2    C27   A    
C22   C26   S    
C30   C31   A    
C4    C24   S    
C22   C24   S    
C21   C24   S    
C7    C31   A    
C10   C11   A    
Cu2   O8    S    
C29   C30   A    
C1    O1    A    
C6    H25   S    
C27   C28   A    
C20   H8    S    
C29   H23   S    
Cu2   O4    S    
C8    C9    A    
Cu2   N1    S    
C25   N3    S    
C26   H14   S    
C12   C18   S    
C18   O8    A    
C15   C17   A    
C27   H21   S    
C28   C29   A    
Cu1   O7    S    
C8    C14   A    
C22   H11   S    
C13   C14   A    
C14   N1    A    
C1    O2    A    
C5    H20   S    
C9    H5    S    
C15   H2    S    
C16   O6    A    
C12   C26   S    
C2    C31   A    
C1    C3    S    
