data_mof_unit_5787.cif
_audit_creation_date              2012-12-10T20:47:09-0500
_audit_creation_method            fapswitch 2.2
_symmetry_space_group_name_H-M    P1
_symmetry_Int_Tables_number       1
_space_group_crystal_system       triclinic
_cell_length_a                    10.687771
_cell_length_b                    8.935815
_cell_length_c                    8.098697
_cell_angle_alpha                 89.984235
_cell_angle_beta                  91.90118
_cell_angle_gamma                 89.896406
_cell_volume                      773.030438234

loop_
_atom_site_label
_atom_site_type_symbol
_atom_type_description
_atom_site_fract_x
_atom_site_fract_y
_atom_site_fract_z
_atom_type_partial_charge
C1    C     C_R   0.499798 0.217962 0.499984 0.936707
C2    C     C_R   0.065712 0.583526 0.632639 -0.025114
C3    C     C_R   0.126945 0.530913 0.492275 -0.066221
C4    C     C_R   0.875611 0.477549 0.516528 -0.059794
C5    C     C_R   0.061232 0.463022 0.361091 -0.230979
C6    C     C_R   0.935010 0.442137 0.370808 -0.229527
C7    C     C_1   0.499847 0.065170 0.500012 -0.180546
C8    C     C_1   0.499987 0.934811 0.499977 -0.170274
C9    C     C_R   0.500211 0.782034 0.499971 0.968922
C10   C     C_R   0.259901 0.514451 0.497330 0.951592
C11   C     C_R   0.741246 0.489052 0.504544 0.887884
C12   C     C_R   0.121926 0.683551 0.749351 0.467561
C13   C     C_R   0.902785 0.528182 0.823423 0.480540
C14   C     C_R   0.067450 0.702711 0.903270 -0.286738
C15   C     C_R   0.962661 0.620069 0.942659 -0.322853
C16   C     C_R   0.945480 0.528633 0.658647 -0.017909
H1    H     H_    0.107565 0.423757 0.252161 0.182033
H2    H     H_    0.883774 0.396744 0.264692 0.165694
H3    H     H_    0.109323 0.776648 0.995408 0.166679
H4    H     H_    0.928898 0.626462 0.066982 0.173899
H5    H     H_    0.251680 0.830523 0.802231 0.333767
H6    H     H_    0.796137 0.440468 0.988439 0.324002
N1    N     N_1   0.500000 0.500000 0.073640 -0.036868
N2    N     N_1   0.500000 0.500000 0.926360 -0.017711
O1    O     O_R   0.500000 0.285350 0.636850 -0.607288
O2    O     O_3   0.816100 0.423549 0.871235 -0.740194
O3    O     O_R   0.500000 0.714650 0.636850 -0.599469
O4    O     O_R   0.500000 0.285360 0.363100 -0.620052
O5    O     O_R   0.500000 0.714640 0.363100 -0.625055
O6    O     O_R   0.316770 0.500000 0.636900 -0.593574
O7    O     O_R   0.683230 0.500000 0.636900 -0.566259
O8    O     O_R   0.316780 0.500000 0.363150 -0.642610
O9    O     O_R   0.683220 0.500000 0.363150 -0.643719
O10   O     O_3   0.225084 0.766641 0.707334 -0.773649
Zn1   Zn    Zn3+2 0.500000 0.500000 0.682780 1.033885
Zn2   Zn    Zn3+2 0.500000 0.500000 0.317220 0.983241

loop_
_geom_bond_atom_site_label_1
_geom_bond_atom_site_label_2
_ccdc_geom_bond_type
C4    C16   A    
C1    O4    A    
N1    N2    T    
C2    C16   A    
C10   O6    A    
C9    O5    A    
C2    C12   A    
C2    C3    A    
C11   O7    A    
C7    C8    T    
C3    C10   S    
C4    C11   S    
C1    O1    A    
O5    Zn2   S    
O4    Zn2   S    
C5    C6    A    
O6    Zn1   S    
O1    Zn1   S    
O8    Zn2   S    
C12   C14   A    
C13   C15   A    
C15   H4    S    
C6    H2    S    
O7    Zn1   S    
C13   O2    S    
N2    Zn1   S    
C5    H1    S    
C12   O10   S    
C10   O8    A    
C11   O9    A    
O9    Zn2   S    
C9    O3    A    
C4    C6    A    
N1    Zn2   S    
H6    O2    S    
C13   C16   A    
C14   C15   A    
H5    O10   S    
O3    Zn1   S    
C1    C7    S    
C14   H3    S    
C8    C9    S    
C3    C5    A    
