data_mof_unit_25859.cif
_audit_creation_date              2013-03-05T16:36:12-0500
_audit_creation_method            fapswitch 2.2
_symmetry_space_group_name_H-M    P1
_symmetry_Int_Tables_number       1
_space_group_crystal_system       triclinic
_cell_length_a                    27.780603
_cell_length_b                    9.239784
_cell_length_c                    7.79895
_cell_angle_alpha                 88.677042
_cell_angle_beta                  91.825882
_cell_angle_gamma                 91.054534
_cell_volume                      2000.02478455

loop_
_atom_site_label
_atom_site_type_symbol
_atom_site_description
_atom_site_fract_x
_atom_site_fract_y
_atom_site_fract_z
_atom_type_partial_charge
O1    O     O_R   0.500000 0.288390 0.642760 -0.605569
O2    O     O_R   0.500000 0.711610 0.357240 -0.566916
O3    O     O_R   0.500000 0.711610 0.642760 -0.607527
O4    O     O_R   0.500000 0.288390 0.357240 -0.572674
C1    C     C_R   0.499925 0.219810 0.501202 0.839117
C2    C     C_R   0.499839 0.780180 0.498765 0.837916
O5    O     O_R   0.430260 0.500000 0.642770 -0.620846
O6    O     O_R   0.569740 0.500000 0.357230 -0.559747
O7    O     O_R   0.569740 0.500000 0.642770 -0.607829
O8    O     O_R   0.430260 0.500000 0.357230 -0.569464
C3    C     C_R   0.407517 0.508892 0.497806 0.954310
C4    C     C_R   0.592646 0.494254 0.502890 0.941739
Cu1   Cu    Cu3+1 0.500000 0.500000 0.669080 0.960218
Cu2   Cu    Cu3+1 0.500000 0.500000 0.330920 1.005356
C5    C     C_R   0.182308 0.460247 0.575313 0.566945
C6    C     C_R   0.821408 0.648852 0.562594 0.658135
C7    C     C_R   0.173344 0.674548 0.405423 0.639543
C8    C     C_R   0.825078 0.414699 0.677981 0.573849
O9    O     O_2   0.211385 0.367665 0.663234 -0.582827
O10   O     O_2   0.795868 0.770916 0.572133 -0.491314
O11   O     O_2   0.192755 0.779467 0.309636 -0.535486
O12   O     O_2   0.802907 0.327049 0.791674 -0.510268
N1    N     N_R   0.202513 0.572906 0.482607 -0.396057
N2    N     N_R   0.798957 0.516528 0.585119 -0.425270
C9    C     C_R   0.286168 0.691016 0.496890 0.329269
C10   C     C_R   0.720631 0.367331 0.575734 0.386687
C11   C     C_R   0.275380 0.445644 0.401587 0.373648
C12   C     C_R   0.722591 0.596858 0.425611 0.359901
C13   C     C_R   0.335879 0.666838 0.527044 0.237632
C14   C     C_R   0.670151 0.370457 0.578188 0.270652
C15   C     C_R   0.324256 0.417588 0.439304 0.262174
C16   C     C_R   0.671767 0.604180 0.430983 0.258053
C17   C     C_R   0.254589 0.572791 0.457868 0.027960
C18   C     C_R   0.747553 0.495600 0.534709 -0.065145
C19   C     C_R   0.102080 0.554330 0.518164 -0.040085
C20   C     C_R   0.899443 0.536815 0.599369 -0.063662
C21   C     C_R   0.131626 0.441859 0.583179 -0.126152
C22   C     C_R   0.871794 0.658658 0.547255 -0.138006
C23   C     C_R   0.122918 0.669906 0.422457 -0.111976
C24   C     C_R   0.876013 0.413529 0.671384 -0.116412
C25   C     C_R   0.109463 0.315402 0.653734 -0.113496
C26   C     C_R   0.895548 0.786795 0.488826 -0.004715
C27   C     C_R   0.092377 0.775671 0.344261 0.004026
C28   C     C_R   0.904424 0.298266 0.740627 0.018732
C29   C     C_R   0.355135 0.530392 0.492897 -0.363269
C30   C     C_R   0.645632 0.491593 0.510005 -0.357644
C31   C     C_R   0.978695 0.424147 0.649596 0.026455
C32   C     C_R   0.022861 0.666130 0.484706 0.037364
C33   C     C_R   0.973190 0.667092 0.519237 0.033442
C34   C     C_R   0.029843 0.428555 0.628945 0.038664
C35   C     C_R   0.950520 0.542155 0.588823 0.091636
C36   C     C_R   0.051537 0.549744 0.544878 0.091057
C37   C     C_R   0.954667 0.306564 0.730682 -0.213967
C38   C     C_R   0.043770 0.773857 0.379234 -0.238846
C39   C     C_R   0.945530 0.790827 0.484962 -0.254145
C40   C     C_R   0.059758 0.311976 0.679020 -0.201917
H1    H     H_    0.974095 0.216549 0.786399 0.166087
H2    H     H_    0.022065 0.853147 0.310441 0.157612
H3    H     H_    0.962312 0.893159 0.450354 0.177178
H4    H     H_    0.045254 0.212190 0.731109 0.162767
C41   C     C_1   0.499868 0.065038 0.501655 -0.185824
C42   C     C_1   0.499823 0.934944 0.498411 -0.175231
N3    N     N_1   0.500000 0.500000 0.076820 -0.070853
N4    N     N_1   0.500000 0.500000 0.923180 -0.071026
O13   O     O_3   0.341776 0.279013 0.427136 -0.607545
C43   C     C_3   0.329616 0.197496 0.577037 0.062184
H5    H     H_    0.332280 0.081248 0.547833 0.204299
H6    H     H_    0.291680 0.213502 0.614153 0.208733
C44   C     C_3   0.364843 0.228542 0.728542 -0.362090
H7    H     H_    0.401634 0.196349 0.694763 0.235330
H8    H     H_    0.365158 0.345108 0.757529 0.230785
C45   C     C_3   0.350442 0.149280 0.892731 -0.921387
H9    H     H_    0.319852 0.204559 0.948146 0.251423
H10   H     H_    0.381028 0.150255 0.987901 0.273957
H11   H     H_    0.339406 0.036314 0.867457 0.258895
O14   O     O_3   0.646636 0.712611 0.343753 -0.599595
C46   C     C_3   0.655515 0.847630 0.421463 0.114913
H12   H     H_    0.639320 0.930184 0.332736 0.128686
H13   H     H_    0.694568 0.875875 0.432444 0.206919
C47   C     C_3   0.630833 0.858994 0.594775 -0.374796
H14   H     H_    0.614968 0.967807 0.602434 0.208097
H15   H     H_    0.600621 0.779568 0.603869 0.229112
C48   C     C_3   0.665960 0.837070 0.747842 -0.828853
H16   H     H_    0.681809 0.727685 0.747820 0.240086
H17   H     H_    0.646571 0.848018 0.869085 0.237965
H18   H     H_    0.695378 0.920166 0.744210 0.288739
O15   O     O_3   0.365142 0.784776 0.569691 -0.617563
C49   C     C_3   0.383170 0.778481 0.742475 0.099129
H19   H     H_    0.393795 0.890139 0.777468 0.162077
H20   H     H_    0.417525 0.722064 0.751691 0.194953
C50   C     C_3   0.348616 0.715770 0.878012 -0.441775
H21   H     H_    0.315282 0.780324 0.878318 0.225817
H22   H     H_    0.338466 0.601780 0.849523 0.212100
C51   C     C_3   0.373110 0.715739 0.055844 -0.866541
H23   H     H_    0.407784 0.657973 0.054684 0.281768
H24   H     H_    0.349747 0.658263 0.148700 0.233832
H25   H     H_    0.380039 0.828432 0.097819 0.251486
O16   O     O_3   0.645766 0.242460 0.617138 -0.613064
C52   C     C_3   0.624760 0.240129 0.781121 0.098222
H26   H     H_    0.628539 0.128570 0.834968 0.160519
H27   H     H_    0.585553 0.256356 0.764329 0.180041
C53   C     C_3   0.646106 0.344578 0.916406 -0.442459
H28   H     H_    0.685261 0.326016 0.936308 0.237670
H29   H     H_    0.641116 0.459095 0.874241 0.225872
C54   C     C_3   0.620742 0.321439 0.085044 -0.832544
H30   H     H_    0.581872 0.344558 0.067420 0.280555
H31   H     H_    0.636887 0.396010 0.180359 0.259166
H32   H     H_    0.624610 0.208241 0.133450 0.241256
O17   O     O_3   0.247764 0.351730 0.302502 -0.579631
C55   C     C_3   0.255967 0.385090 0.126577 0.035410
H33   H     H_    0.248857 0.286897 0.051557 0.185030
H34   H     H_    0.294113 0.417252 0.101892 0.107930
C56   C     C_3   0.222310 0.501791 0.052457 -0.368498
H35   H     H_    0.228417 0.603742 0.121054 0.226158
H36   H     H_    0.231544 0.525706 0.917300 0.212594
C57   C     C_3   0.169440 0.454156 0.058609 -0.672857
H37   H     H_    0.163114 0.355500 0.982338 0.250491
H38   H     H_    0.146304 0.541646 0.004174 0.250609
H39   H     H_    0.159041 0.429827 0.192450 0.245251
O18   O     O_3   0.747744 0.685728 0.312295 -0.524811
C58   C     C_3   0.735764 0.651500 0.139458 0.078159
H40   H     H_    0.736383 0.753060 0.060848 0.175024
H41   H     H_    0.698936 0.604155 0.119023 0.117662
C59   C     C_3   0.771971 0.547854 0.068045 -0.391729
H42   H     H_    0.772497 0.445579 0.145037 0.214583
H43   H     H_    0.759748 0.522951 0.935080 0.212369
C60   C     C_3   0.822904 0.612240 0.064978 -0.644316
H44   H     H_    0.823326 0.717050 0.992275 0.254941
H45   H     H_    0.847060 0.536598 0.002635 0.219913
H46   H     H_    0.837148 0.627642 0.197570 0.276159
O19   O     O_3   0.271106 0.832263 0.472523 -0.531835
C61   C     C_3   0.287392 0.882899 0.309352 0.134045
H47   H     H_    0.284463 0.796926 0.211339 0.123827
H48   H     H_    0.325999 0.915981 0.319909 0.146615
C62   C     C_3   0.258552 0.014092 0.243462 -0.296537
H49   H     H_    0.229793 0.038115 0.333539 0.303881
H50   H     H_    0.283272 0.109278 0.239272 0.218241
C63   C     C_3   0.235836 0.993551 0.062973 -0.744832
H51   H     H_    0.263114 0.009193 0.964120 0.222115
H52   H     H_    0.206857 0.073051 0.038678 0.277639
H53   H     H_    0.219836 0.884121 0.045688 0.304779
O20   O     O_3   0.741199 0.231821 0.591228 -0.516030
C64   C     C_3   0.759624 0.189664 0.432558 0.157333
H54   H     H_    0.774934 0.080472 0.454357 0.235888
H55   H     H_    0.789746 0.262238 0.391916 0.134523
C65   C     C_3   0.720301 0.181274 0.289463 -0.493210
H56   H     H_    0.687075 0.133093 0.342433 0.253643
H57   H     H_    0.712120 0.292245 0.242344 0.204693
C66   C     C_3   0.735204 0.092650 0.138421 -0.863736
H58   H     H_    0.767635 0.141947 0.079327 0.295414
H59   H     H_    0.705522 0.088517 0.040078 0.266158
H60   H     H_    0.742372 0.980165 0.182201 0.280023
C67   C     C_2   0.135539 0.177510 0.686239 0.963170
O21   O     O_2   0.129242 0.108141 0.818893 -0.576384
O22   O     O_R   0.165293 0.121143 0.563839 -0.675551
H61   H     H_    0.165212 0.180469 0.452967 0.323449
C68   C     C_2   0.870733 0.912786 0.406971 0.921568
O23   O     O_2   0.886239 0.035639 0.431305 -0.594685
O24   O     O_R   0.833055 0.890743 0.287727 -0.747683
H62   H     H_    0.824582 0.983191 0.222724 0.322488
C69   C     C_2   0.107912 0.887409 0.217568 0.951396
O25   O     O_2   0.124064 0.851332 0.081249 -0.557658
O26   O     O_R   0.100958 0.033537 0.250079 -0.766744
H63   H     H_    0.112756 0.100172 0.154728 0.347987
C70   C     C_2   0.884289 0.162835 0.819458 0.917936
O27   O     O_2   0.850725 0.097416 0.749492 -0.525532
O28   O     O_R   0.905917 0.105631 0.969944 -0.770231
H64   H     H_    0.890474 0.010457 0.007972 0.333068

loop_
_geom_bond_atom_site_label_1
_geom_bond_atom_site_label_2
_geom_bond_distance
_ccdc_geom_bond_type
C64   C65   1.538830 S    
C43   H6    1.115130 S    
O15   C49   1.422855 S    
C70   O27   1.222522 D    
C39   H3    1.078988 S    
C62   C63   1.538497 S    
O26   H63   1.013139 S    
O3    C2    1.276524 A    
O5    Cu1   1.941742 S    
C69   O25   1.222702 D    
C62   H49   1.109311 S    
C46   H12   1.109718 S    
C11   C17   1.404069 A    
O5    C3    1.279153 A    
C54   H31   1.104323 S    
C68   O23   1.223454 D    
O1    C1    1.285483 A    
C19   C21   1.411139 A    
C56   H35   1.101796 S    
C66   H59   1.108851 S    
C53   H29   1.110574 S    
C43   C44   1.538754 S    
C64   H54   1.109484 S    
C57   H37   1.108209 S    
C53   C54   1.520689 S    
C15   O13   1.384488 S    
C7    C23   1.411149 A    
C44   H8    1.105429 S    
O7    Cu1   1.954743 S    
C55   H33   1.102293 S    
C5    C21   1.418185 A    
C58   C59   1.528029 S    
C8    C24   1.417835 A    
C5    O9    1.348150 S    
C28   C37   1.400991 A    
C10   C18   1.425311 A    
O24   H62   1.010875 S    
C61   H47   1.115190 S    
C33   C35   1.410628 A    
N2    C18   1.479464 S    
C34   C36   1.418938 A    
C67   O22   1.398154 S    
C25   C67   1.489871 S    
C41   C42   1.202860 T    
O3    Cu1   1.961257 S    
C6    O10   1.348217 S    
C31   C37   1.412204 A    
C56   C57   1.527433 S    
C5    N1    1.375113 A    
C43   H5    1.107411 S    
C12   C18   1.424669 A    
C6    N2    1.372488 A    
C62   H50   1.106363 S    
Cu1   Cu2   2.637294 S    
O4    Cu2   1.961258 S    
O2    C2    1.285455 A    
C45   H11   1.102807 S    
C69   O26   1.397558 S    
C31   C34   1.434830 A    
C65   H57   1.106298 S    
C46   H13   1.112297 S    
C9    C13   1.414449 A    
C54   H32   1.109662 S    
C58   H41   1.113502 S    
C11   C15   1.407601 A    
C53   H28   1.109771 S    
C12   C16   1.416776 A    
O14   C46   1.413711 S    
C4    C30   1.471908 S    
O8    Cu2   1.954745 S    
C66   H60   1.106054 S    
O28   H64   1.013657 S    
C32   C38   1.405765 A    
C37   H1    1.075525 S    
C47   H14   1.108793 S    
C31   C35   1.417794 A    
C51   H25   1.110308 S    
N1    C17   1.465635 S    
C33   C39   1.405045 A    
C34   C40   1.412911 A    
C40   H4    1.075606 S    
C13   C29   1.412776 A    
C68   O24   1.393144 S    
C44   C45   1.521407 S    
C19   C23   1.414431 A    
C60   H45   1.108588 S    
C25   C40   1.400716 A    
C26   C39   1.389623 A    
C50   H22   1.110888 S    
C65   C66   1.522378 S    
C27   C38   1.385820 A    
C48   H16   1.109835 S    
C49   C50   1.546127 S    
C32   C36   1.412686 A    
O6    C4    1.284770 A    
C52   C53   1.543486 S    
C1    C41   1.429956 S    
C51   H23   1.110215 S    
C7    N1    1.368136 A    
C51   H24   1.107798 S    
O4    C1    1.276463 A    
C55   C56   1.531326 S    
C58   H40   1.109170 S    
C20   C35   1.423837 A    
C63   H52   1.108693 S    
C59   C60   1.525463 S    
C27   C69   1.480589 S    
C45   H10   1.110314 S    
C32   C33   1.414545 A    
C48   H17   1.110573 S    
C49   H20   1.095439 S    
C10   C14   1.403920 A    
O8    C3    1.287686 A    
C12   O18   1.388619 S    
C8    N2    1.377137 A    
C3    C29   1.471484 S    
C26   C68   1.484966 S    
O1    Cu1   1.970685 S    
O19   C61   1.429830 S    
C9    O19   1.384925 S    
C50   H21   1.110797 S    
C20   C24   1.415336 A    
O18   C58   1.419493 S    
C59   H43   1.108737 S    
C65   H56   1.105237 S    
C38   H2    1.079650 S    
C46   C47   1.541558 S    
C64   H55   1.112112 S    
O6    Cu2   1.941740 S    
C52   H27   1.105449 S    
C8    O12   1.343404 S    
C16   C30   1.400091 A    
C14   C30   1.406056 A    
C45   H9    1.104258 S    
C63   H53   1.106360 S    
C16   O14   1.384916 S    
C23   C27   1.420142 A    
C57   H39   1.108838 S    
C22   C26   1.417869 A    
C54   H30   1.108238 S    
C14   O16   1.384533 S    
C52   H26   1.109536 S    
C2    C42   1.429939 S    
C20   C22   1.418945 A    
C60   H46   1.106716 S    
C10   O20   1.386996 S    
O17   C55   1.423800 S    
C50   C51   1.525242 S    
C19   C36   1.425762 A    
Cu1   N4    1.981712 S    
C61   C62   1.534971 S    
C61   H48   1.110847 S    
Cu2   N3    1.981712 S    
C47   C48   1.529800 S    
C47   H15   1.107586 S    
C57   H38   1.110271 S    
C28   C70   1.489097 S    
O13   C43   1.422425 S    
C21   C25   1.418641 A    
C44   H7    1.111071 S    
O2    Cu2   1.970684 S    
O7    C4    1.282966 A    
C55   H34   1.116753 S    
C13   O15   1.387760 S    
C63   H51   1.103419 S    
N3    N4    1.198231 T    
C24   C28   1.423397 A    
C48   H18   1.111550 S    
C49   H19   1.105730 S    
C11   O17   1.381083 S    
C70   O28   1.398534 S    
O16   C52   1.422108 S    
C15   C29   1.400461 A    
C6    C22   1.409723 A    
O22   H61   1.013014 S    
O20   C64   1.419516 S    
C67   O21   1.220052 D    
C66   H58   1.110519 S    
C60   H44   1.110908 S    
C9    C17   1.420757 A    
C59   H42   1.107945 S    
C56   H36   1.109106 S    
C7    O11   1.327262 S    
