data_mof_unit_55664.cif
_audit_creation_date              2013-03-05T15:58:18-0500
_audit_creation_method            fapswitch 2.2
_symmetry_space_group_name_H-M    P1
_symmetry_Int_Tables_number       1
_space_group_crystal_system       triclinic
_cell_length_a                    14.778377
_cell_length_b                    15.120787
_cell_length_c                    15.188092
_cell_angle_alpha                 111.317704
_cell_angle_beta                  107.973165
_cell_angle_gamma                 108.580491
_cell_volume                      2628.071966

loop_
_atom_site_label
_atom_site_type_symbol
_atom_site_description
_atom_site_fract_x
_atom_site_fract_y
_atom_site_fract_z
_atom_type_partial_charge
C1    C     C_R   0.950862 0.222460 0.033201 0.354316
C2    C     C_R   0.087459 0.802405 0.003930 0.336539
N1    N     N_R   0.947560 0.293820 0.002910 -0.093783
N2    N     N_R   0.052440 0.706180 0.997090 -0.090825
C3    C     C_R   0.314887 0.761055 0.222259 -0.099027
C4    C     C_R   0.701811 0.198919 0.792812 -0.131020
H1    H     H_    0.380304 0.782300 0.202971 0.119297
H2    H     H_    0.647905 0.171392 0.823026 0.150714
N3    N     N_R   0.208960 0.706170 0.152110 -0.038057
N4    N     N_R   0.791040 0.293830 0.847890 -0.045600
C5    C     C_R   0.213569 0.409069 0.906885 -0.133346
C6    C     C_R   0.775175 0.590975 0.024022 -0.140349
H3    H     H_    0.187476 0.325651 0.850978 0.099751
H4    H     H_    0.792657 0.674608 0.057786 0.118141
N5    N     N_R   0.154330 0.443160 0.946140 -0.040772
N6    N     N_R   0.845670 0.556840 0.053860 -0.042517
C7    C     C_R   0.995788 0.591961 0.299152 -0.147793
C8    C     C_R   0.994833 0.408362 0.696297 -0.137177
H5    H     H_    0.022347 0.675973 0.353709 0.098782
H6    H     H_    0.963767 0.324121 0.638381 0.095194
N7    N     N_R   0.002190 0.556820 0.208880 -0.045400
N8    N     N_R   0.997810 0.443180 0.791120 -0.045212
C9    C     C_R   0.302393 0.590644 0.998243 -0.118921
C10   C     C_R   0.685543 0.408471 0.934017 -0.113590
H7    H     H_    0.355789 0.673831 0.024863 0.137621
H8    H     H_    0.621689 0.324815 0.885574 0.095644
N9    N     N_R   0.210550 0.556810 0.002910 -0.039616
N10   N     N_R   0.789450 0.443190 0.997090 -0.040191
C11   C     C_R   0.909381 0.411736 0.210942 -0.077704
C12   C     C_R   0.079230 0.590258 0.785334 -0.082770
H9    H     H_    0.855180 0.329872 0.183571 0.181061
H10   H     H_    0.120316 0.673704 0.807523 0.181587
N11   N     N_R   0.945970 0.443180 0.152110 -0.055128
N12   N     N_R   0.054030 0.556820 0.847890 -0.047609
C13   C     C_R   0.219411 0.752676 0.312135 -0.107279
C14   C     C_R   0.790894 0.199501 0.697970 -0.119195
H11   H     H_    0.196660 0.763391 0.374781 0.109609
H12   H     H_    0.817766 0.173777 0.639238 0.104781
N13   N     N_R   0.151530 0.706170 0.208880 -0.047587
N14   N     N_R   0.848470 0.293830 0.791120 -0.044963
C15   C     C_R   0.042081 0.224161 0.939732 -0.196366
C16   C     C_R   0.997816 0.800547 0.097240 -0.204023
H13   H     H_    0.080189 0.202882 0.891212 0.126637
H14   H     H_    0.973687 0.825753 0.158168 0.131946
N15   N     N_R   0.004980 0.293810 0.946140 -0.061145
N16   N     N_R   0.995020 0.706190 0.053860 -0.061761
C17   C     C_R   0.010095 0.178007 0.994559 -0.073979
C18   C     C_R   0.054712 0.863565 0.067734 -0.083068
C19   C     C_R   0.322479 0.791809 0.323175 0.020618
C20   C     C_R   0.699039 0.139109 0.698473 0.042245
C21   C     C_R   0.304911 0.499981 0.937768 0.014233
C22   C     C_R   0.675160 0.499339 0.948413 0.017885
C23   C     C_R   0.941838 0.502827 0.304777 0.029873
C24   C     C_R   0.042554 0.499073 0.689622 0.024278
H15   H     H_    0.432170 0.213665 0.922056 0.107668
H16   H     H_    0.667956 0.873721 0.190742 0.114286
C25   C     C_R   0.144241 0.036913 0.083500 -0.144929
C26   C     C_R   0.936684 0.013000 0.993804 -0.155648
C27   C     C_R   0.263345 0.110964 0.866337 -0.128241
C28   C     C_R   0.837581 0.953339 0.235632 -0.152389
H17   H     H_    0.244669 0.065872 0.783309 0.089212
H18   H     H_    0.864680 0.991330 0.321282 0.106971
Ni1   Ni    Ni4+2 0.869690 0.369690 0.000000 0.263382
Ni2   Ni    Ni4+2 0.130310 0.630310 0.000000 0.285224
Ni3   Ni    Ni4+2 0.001390 0.369680 0.869810 0.204262
Ni4   Ni    Ni4+2 0.998610 0.630320 0.130190 0.206142
C29   C     C_R   0.182508 0.084162 0.895911 -0.058171
C30   C     C_R   0.912983 0.974813 0.198642 -0.079206
H19   H     H_    0.473985 0.318977 0.111195 0.105471
H20   H     H_    0.605951 0.796878 0.994749 0.129737
C31   C     C_R   0.590552 0.232937 0.221389 -0.257264
C32   C     C_R   0.390986 0.743917 0.786889 -0.220924
H21   H     H_    0.517431 0.238708 0.210122 0.156585
H22   H     H_    0.456106 0.725640 0.812542 0.141079
C33   C     C_R   0.691349 0.327509 0.291097 -0.194243
C34   C     C_R   0.284072 0.658111 0.718182 -0.182624
H23   H     H_    0.694369 0.404951 0.330753 0.135050
H24   H     H_    0.268791 0.575361 0.690866 0.130500
C35   C     C_R   0.787307 0.320651 0.315748 0.078183
C36   C     C_R   0.198665 0.678931 0.679504 0.096355
C37   C     C_R   0.781220 0.218507 0.269615 -0.175752
C38   C     C_R   0.220743 0.786996 0.715735 -0.175021
H25   H     H_    0.854393 0.211430 0.292717 0.185823
H26   H     H_    0.155829 0.804811 0.687134 0.136776
C39   C     C_R   0.680945 0.125005 0.195597 -0.108676
C40   C     C_R   0.327056 0.872471 0.784902 -0.124919
H27   H     H_    0.678699 0.047767 0.159074 0.184294
H28   H     H_    0.341974 0.954529 0.808659 0.154279
C41   C     C_R   0.584396 0.131094 0.171358 0.423566
C42   C     C_R   0.413745 0.851728 0.818454 0.458553
C43   C     C_R   0.928286 0.412869 0.499684 -0.231003
C44   C     C_R   0.051495 0.592470 0.497020 -0.234159
H29   H     H_    0.876187 0.344979 0.501386 0.131695
H30   H     H_    0.103895 0.660327 0.495624 0.125948
C45   C     C_R   0.025755 0.498083 0.591154 0.066571
C46   C     C_R   0.955019 0.505772 0.404111 0.077463
C47   C     C_R   0.089544 0.588939 0.590045 0.033939
C48   C     C_R   0.891731 0.415261 0.406183 0.040417
H31   H     H_    0.102589 0.015845 0.835528 0.107686
H32   H     H_    0.997545 0.032598 0.256388 0.107007
H33   H     H_    0.407436 0.392247 0.994478 0.129192
H34   H     H_    0.561839 0.613212 0.857286 0.109040
H35   H     H_    0.332390 0.269514 0.165476 0.107850
H36   H     H_    0.738368 0.823188 0.928370 0.122774
C49   C     C_R   0.206270 0.141250 0.003843 0.140942
C50   C     C_R   0.878651 0.925818 0.087539 0.125109
C51   C     C_R   0.392690 0.252526 0.051586 -0.111398
C52   C     C_R   0.691728 0.841979 0.051669 -0.021424
H37   H     H_    0.073207 0.034151 0.427113 0.094535
H38   H     H_    0.981481 0.932185 0.626035 0.093282
C53   C     C_R   0.191912 0.020592 0.376702 -0.120636
C54   C     C_R   0.869708 0.953429 0.684043 -0.118191
H39   H     H_    0.164188 0.038856 0.314264 0.113819
H40   H     H_    0.915020 0.961425 0.760133 0.116137
C55   C     C_R   0.279674 0.000265 0.394036 -0.117251
C56   C     C_R   0.773489 0.959357 0.661501 -0.127471
H41   H     H_    0.318497 0.002595 0.344346 0.121705
H42   H     H_    0.745820 0.972182 0.721046 0.133754
C57   C     C_R   0.317713 0.978038 0.475942 0.118488
C58   C     C_R   0.712930 0.947800 0.562328 0.116898
C59   C     C_R   0.267541 0.977428 0.540884 -0.192602
C60   C     C_R   0.750097 0.929669 0.486014 -0.175335
H43   H     H_    0.296673 0.961405 0.605083 0.114298
H44   H     H_    0.704884 0.920801 0.409202 0.108959
C61   C     C_R   0.178946 0.996699 0.522462 -0.117907
C62   C     C_R   0.846969 0.924592 0.509319 -0.114235
H45   H     H_    0.139961 0.995463 0.572079 0.097995
H46   H     H_    0.875657 0.911285 0.450630 0.102937
C63   C     C_R   0.141191 0.018357 0.440484 -0.095930
C64   C     C_R   0.906755 0.936515 0.608280 -0.095669
C65   C     C_R   0.506872 0.040585 0.591059 -0.224282
C66   C     C_R   0.515351 0.871036 0.444081 -0.241405
H47   H     H_    0.504200 0.109159 0.645273 0.128199
H48   H     H_    0.516458 0.803309 0.386868 0.130350
C67   C     C_R   0.604999 0.040002 0.610148 0.075472
C68   C     C_R   0.418123 0.875112 0.423268 0.076874
C69   C     C_R   0.610659 0.953945 0.538596 0.022858
C70   C     C_R   0.413588 0.960751 0.497340 0.014478
C71   C     C_R   0.368972 0.193758 0.944528 -0.025935
C72   C     C_R   0.726762 0.887031 0.162061 -0.143968
C73   C     C_R   0.956977 0.962375 0.050206 0.054286
C74   C     C_R   0.126447 0.096885 0.036202 0.032088
H49   H     H_    0.221318 0.036890 0.108322 0.182174
H50   H     H_    0.856541 0.005480 0.960437 0.178370
C75   C     C_R   0.311938 0.226168 0.081605 -0.141804
C76   C     C_R   0.767138 0.858483 0.014221 -0.115697
C77   C     C_R   0.057889 0.964189 0.083267 0.004713
C78   C     C_R   0.022965 0.089274 0.998190 0.026831
C79   C     C_3   0.460164 0.397178 0.861436 -0.159999
C80   C     C_3   0.508817 0.602168 0.988082 -0.164770
C81   C     C_3   0.410980 0.461040 0.822867 -0.137263
C82   C     C_3   0.556577 0.538539 0.026012 -0.138529
H51   H     H_    0.348141 0.429876 0.740211 0.111468
H52   H     H_    0.617378 0.570063 0.109802 0.116946
H53   H     H_    0.441170 0.312877 0.809219 0.108136
H54   H     H_    0.524335 0.683758 0.042840 0.108635
C83   C     C_3   0.397054 0.500890 0.923430 0.184128
C84   C     C_3   0.572609 0.498847 0.926489 0.191581
C85   C     C_3   0.444562 0.437728 0.961438 -0.167765
C86   C     C_3   0.526000 0.563041 0.888137 -0.159485
N17   N     N_R   0.890288 0.187600 0.082148 0.199282
O1    O     O_R   0.785478 0.149517 0.035398 -0.376986
O2    O     O_R   0.937642 0.183102 0.166935 -0.460179
N18   N     N_R   0.169993 0.842798 0.977427 0.221514
O3    O     O_R   0.152511 0.877186 0.910152 -0.428236
O4    O     O_R   0.250416 0.822216 0.000508 -0.376531
N19   N     N_R   0.480820 0.034205 0.098580 0.245443
O5    O     O_R   0.392596 0.040468 0.061359 -0.364639
O6    O     O_R   0.474187 0.938939 0.067372 -0.406435
N20   N     N_R   0.524124 0.939196 0.880732 0.240669
O7    O     O_R   0.544420 0.039450 0.916354 -0.401094
O8    O     O_R   0.604893 0.918854 0.894125 -0.425091

loop_
_geom_bond_atom_site_label_1
_geom_bond_atom_site_label_2
_geom_bond_distance
_ccdc_geom_bond_type
C10   C22   1.376887 A    
C31   C33   1.397564 A    
C32   H22   1.081998 S    
N6    N10   1.399136 A    
C80   C83   1.526855 S    
N7    Ni4   1.905398 S    
N3    Ni2   1.889561 S    
C35   C48   1.473418 S    
C2    N2    1.331424 A    
N4    Ni1   1.889562 S    
N3    N13   1.383974 A    
C32   C34   1.400146 A    
C54   H40   1.080649 S    
N17   O1    1.300191 A    
H19   C51   1.081979 S    
C14   C20   1.377738 A    
N19   O6    1.301623 A    
N2    N16   1.383851 A    
C3    N3    1.332048 A    
C12   C24   1.374125 A    
C33   C35   1.398656 A    
C80   C86   1.549003 S    
C25   C74   1.384399 A    
C81   C83   1.530408 S    
C28   H18   1.082205 S    
N18   O3    1.300060 A    
C13   H11   1.079178 S    
C36   C47   1.484384 S    
C34   H24   1.083233 S    
N16   Ni4   1.905449 S    
C65   C67   1.391986 A    
C20   C67   1.427342 S    
C79   C81   1.549107 S    
C51   C75   1.398470 A    
C26   C78   1.383836 A    
C66   C68   1.399510 A    
N7    N11   1.399012 A    
N20   O7    1.301720 A    
C62   C64   1.397911 A    
N5    Ni3   1.879638 S    
C18   C77   1.435099 S    
C11   N11   1.326689 A    
C44   C46   1.401722 A    
H15   C71   1.082428 S    
N4    N14   1.383975 A    
C16   N16   1.316656 A    
C41   N19   1.435422 S    
C27   C29   1.395752 A    
C5    N5    1.331858 A    
N9    Ni2   1.867219 S    
C53   C63   1.398998 A    
C49   C74   1.475259 S    
C9    C21   1.364740 A    
C6    N6    1.333617 A    
C56   H42   1.083492 S    
C55   H41   1.083360 S    
C46   C48   1.408022 A    
C13   C19   1.376300 A    
C62   H46   1.082563 S    
C9    N9    1.323709 A    
C10   N10   1.328185 A    
C79   C84   1.534714 S    
C8    H6    1.081898 S    
C29   H31   1.080886 S    
C39   H27   1.079669 S    
C82   C85   1.526037 S    
C1    N17   1.423645 S    
C83   C85   1.521959 S    
C80   H54   1.105562 S    
C23   C46   1.442356 S    
C84   C86   1.531503 S    
C15   H13   1.078407 S    
C3    C19   1.385810 A    
C16   H14   1.078231 S    
C30   C50   1.406017 A    
C81   H51   1.109959 S    
C44   H30   1.082818 S    
N17   O2    1.300206 A    
C58   C60   1.406460 A    
C44   C47   1.378024 A    
C52   C76   1.394590 A    
C57   C59   1.405821 A    
C22   C84   1.444763 S    
N8    N12   1.399011 A    
C82   C84   1.534010 S    
C27   H17   1.082328 S    
C12   N12   1.320860 A    
C73   C77   1.406667 A    
H36   C76   1.083092 S    
C14   N14   1.332837 A    
C36   C38   1.405328 A    
C40   C42   1.403106 A    
C2    N18   1.424714 S    
N19   O5    1.300476 A    
C52   C72   1.397260 A    
C25   H49   1.083941 S    
C1    C17   1.402745 A    
C4    H2    1.082429 S    
C2    C18   1.396982 A    
C66   C69   1.390910 A    
C38   C40   1.393784 A    
C21   C83   1.440524 S    
C7    N7    1.324200 A    
C56   C58   1.406157 A    
C1    N1    1.326262 A    
C60   C62   1.399205 A    
C13   N13   1.318323 A    
C30   H32   1.079328 S    
N8    Ni3   1.905399 S    
C59   C61   1.397762 A    
C74   C78   1.407103 A    
C43   H29   1.084043 S    
C32   C42   1.408307 A    
N5    N9    1.399137 A    
C31   C41   1.405117 A    
C27   C71   1.394240 A    
N11   Ni1   1.889656 S    
C49   C75   1.401267 A    
C42   N20   1.438107 S    
N12   Ni2   1.889657 S    
C15   C17   1.363500 A    
C53   H39   1.079891 S    
C16   C18   1.359493 A    
C4    C20   1.367692 A    
C33   H23   1.083179 S    
C28   C30   1.396841 A    
C24   C45   1.432041 S    
C28   C72   1.394857 A    
C68   C70   1.410535 A    
C19   C68   1.429191 S    
C6    H4    1.080475 S    
C55   C57   1.403304 A    
N14   Ni3   1.880353 S    
C25   C77   1.392066 A    
N15   Ni3   1.905449 S    
N13   Ni4   1.880355 S    
C80   C82   1.529893 S    
N6    Ni4   1.879636 S    
H34   C86   1.109579 S    
C7    C23   1.378543 A    
C54   C56   1.396543 A    
C79   C85   1.537892 S    
H35   C75   1.082916 S    
C50   C73   1.480577 S    
C3    H1    1.081164 S    
C82   H52   1.111045 S    
C67   C69   1.406601 A    
N2    Ni2   1.867936 S    
C17   C78   1.431562 S    
C39   C41   1.401463 A    
C8    N8    1.322143 A    
C57   C70   1.481590 S    
C29   C49   1.406552 A    
C34   C36   1.402648 A    
C10   H8    1.079836 S    
C65   H47   1.086323 S    
C37   H25   1.082043 S    
C45   C47   1.406265 A    
N1    Ni1   1.867937 S    
C6    C22   1.383383 A    
C38   H26   1.083582 S    
C50   C76   1.402263 A    
C81   C86   1.558380 S    
N18   O4    1.300091 A    
C79   H53   1.110037 S    
C11   H9    1.065453 S    
C65   C70   1.364900 A    
H20   C52   1.078652 S    
C12   H10   1.072676 S    
C5    H3    1.081640 S    
C26   C73   1.369046 A    
C11   C23   1.374108 A    
H16   C72   1.082326 S    
C14   H12   1.081433 S    
C7    H5    1.081950 S    
N1    N15   1.383850 A    
H38   C64   1.082443 S    
C40   H28   1.081380 S    
C26   H50   1.083681 S    
C9    H7    1.081260 S    
C43   C48   1.373395 A    
C35   C37   1.403654 A    
C59   H43   1.083499 S    
C5    C21   1.374696 A    
C4    N4    1.318552 A    
C8    C24   1.384838 A    
C43   C45   1.394935 A    
N10   Ni1   1.867217 S    
C61   C63   1.397495 A    
H33   C85   1.098258 S    
C66   H48   1.084689 S    
C31   H21   1.077705 S    
C61   H45   1.082363 S    
C15   N15   1.321213 A    
C53   C55   1.395749 A    
C58   C69   1.483406 S    
N20   O8    1.300142 A    
C54   C64   1.397613 A    
H37   C63   1.081642 S    
C60   H44   1.083305 S    
C51   C71   1.398433 A    
C37   C39   1.392769 A    
