data_mof_unit_8610.cif
_audit_creation_date              2012-10-26T19:21:29-0400
_audit_creation_method            fapswitch 2.2
_symmetry_space_group_name_H-M    P1
_symmetry_Int_Tables_number       1
_space_group_crystal_system       triclinic
_cell_length_a                    9.944763
_cell_length_b                    11.006153
_cell_length_c                    15.790619
_cell_angle_alpha                 97.092288
_cell_angle_beta                  78.338232
_cell_angle_gamma                 110.94473
_cell_volume                      1578.34187534

loop_
_atom_site_label
_atom_site_type_symbol
_atom_type_description
_atom_site_fract_x
_atom_site_fract_y
_atom_site_fract_z
_atom_type_partial_charge
C1    C     C_R   0.554712 0.745096 0.507991 0.554674
C2    C     C_2   0.499085 0.067415 0.520442 -0.165095
C3    C     C_2   0.919317 0.479795 0.495815 0.109454
C4    C     C_2   0.065966 0.495992 0.515887 0.100563
C5    C     C_R   0.412206 0.489023 0.662852 0.529626
C6    C     C_R   0.588756 0.515310 0.337359 0.574041
C7    C     C_R   0.360177 0.478335 0.756841 -0.011469
C8    C     C_R   0.640718 0.523148 0.243145 0.038383
C9    C     C_R   0.167936 0.387549 0.876617 -0.150864
C10   C     C_R   0.824194 0.520055 0.116442 -0.144718
C11   C     C_R   0.213405 0.409622 0.788799 -0.174659
C12   C     C_R   0.443160 0.254818 0.495085 0.551549
C13   C     C_R   0.779010 0.517218 0.206028 -0.185302
C14   C     C_R   0.461879 0.525097 0.814678 0.220285
C15   C     C_R   0.548786 0.533979 0.189411 0.221338
C16   C     C_R   0.421541 0.481029 0.899331 0.076769
C17   C     C_R   0.582990 0.512065 0.098742 0.023982
C18   C     C_R   0.270866 0.422026 0.932082 0.012317
C19   C     C_R   0.726947 0.517052 0.062415 0.021453
C20   C     C_R   0.525761 0.496509 0.953259 0.056351
C21   C     C_R   0.477902 0.483465 0.043509 0.005855
C22   C     C_3   0.093372 0.548293 0.606156 -0.307935
C23   C     C_R   0.326523 0.429479 0.074911 -0.145695
C24   C     C_3   0.851824 0.359354 0.439907 -0.295780
C25   C     C_R   0.673120 0.510920 0.918921 -0.090973
C26   C     C_R   0.225048 0.396349 0.019530 -0.144036
C27   C     C_R   0.770685 0.516625 0.972652 -0.145052
C28   C     C_2   0.580633 0.884462 0.517960 -0.128122
C29   C     C_2   0.410360 0.114798 0.493026 -0.126404
C30   C     C_2   0.475495 0.928936 0.509842 -0.158002
Cu1   Cu    Cu3+1 0.362980 0.479380 0.485080 0.950466
Cu2   Cu    Cu3+1 0.637020 0.520620 0.514920 0.929487
H1    H     H_    0.110146 0.351062 0.045394 0.111102
H2    H     H_    0.371980 0.863289 0.493045 0.161819
H3    H     H_    0.314731 0.050038 0.466997 0.107402
H4    H     H_    0.684954 0.950836 0.533088 0.102890
H5    H     H_    0.145025 0.430543 0.398759 0.221880
H6    H     H_    0.897528 0.639799 0.566093 0.206491
H7    H     H_    0.418339 0.627267 0.183590 0.322342
H8    H     H_    0.586289 0.676597 0.750573 0.333017
H9    H     H_    0.012436 0.589535 0.644553 0.076703
H10   H     H_    0.080731 0.465829 0.643918 0.145350
H11   H     H_    0.200676 0.627195 0.604330 0.167854
H12   H     H_    0.880745 0.520757 0.943813 0.110247
H13   H     H_    0.930479 0.323952 0.393749 0.057374
H14   H     H_    0.790524 0.277661 0.482130 0.135014
H15   H     H_    0.784725 0.374879 0.397928 0.180674
H16   H     H_    0.852882 0.512124 0.246246 0.130282
H17   H     H_    0.133843 0.371181 0.746060 0.126331
H18   H     H_    0.053023 0.338358 0.900488 0.116619
H19   H     H_    0.933366 0.520034 0.089206 0.119617
H20   H     H_    0.285307 0.404072 0.141518 0.163556
H21   H     H_    0.711870 0.506521 0.849965 0.177888
H22   H     H_    0.591766 0.131037 0.549231 0.149415
N1    N     N_2   0.842890 0.551600 0.537350 -0.338889
N2    N     N_2   0.157110 0.448400 0.462650 -0.343344
O1    O     O_R   0.426810 0.668300 0.492040 -0.496371
O2    O     O_3   0.595738 0.621302 0.792487 -0.716880
O3    O     O_R   0.573190 0.331700 0.507960 -0.510729
O4    O     O_R   0.658240 0.703130 0.517240 -0.494885
O5    O     O_R   0.341760 0.296870 0.482760 -0.485593
O6    O     O_R   0.319390 0.472820 0.610170 -0.522337
O7    O     O_R   0.680610 0.527180 0.389830 -0.527765
O8    O     O_R   0.550820 0.507640 0.635370 -0.460028
O9    O     O_R   0.449180 0.492360 0.364630 -0.427602
O10   O     O_3   0.434443 0.577347 0.226413 -0.701932

loop_
_geom_bond_atom_site_label_1
_geom_bond_atom_site_label_2
_ccdc_geom_bond_type
C6    O7    A    
C13   H16   S    
C8    C13   A    
C11   H17   S    
C1    O1    A    
C12   C29   S    
C1    C28   S    
C19   C27   A    
C29   H3    S    
Cu1   O5    S    
C26   H1    S    
C6    O9    A    
C22   H11   S    
C18   C26   A    
C2    C30   S    
C10   C19   A    
C16   C20   A    
C24   H14   S    
Cu1   O1    S    
C28   C30   D    
C4    C22   S    
C3    C24   S    
C4    N2    D    
C7    C11   A    
C12   O5    A    
C12   O3    A    
Cu1   O6    S    
Cu2   O8    S    
C23   H20   S    
C22   H10   S    
C9    C18   A    
C2    C29   D    
C24   H13   S    
C16   C18   A    
C17   C19   A    
Cu2   O7    S    
C25   H21   S    
C5    O6    A    
C8    C15   A    
C9    C11   A    
C21   C23   A    
C14   O2    S    
H7    O10   S    
C14   C16   A    
Cu1   O9    S    
C23   C26   A    
C22   H9    S    
C25   C27   A    
C20   C25   A    
C30   H2    S    
C24   H15   S    
C3    C4    S    
C10   H19   S    
H8    O2    S    
C20   C21   A    
C28   H4    S    
C5    C7    S    
C15   O10   S    
C2    H22   S    
C1    O4    A    
C15   C17   A    
Cu2   O4    S    
C6    C8    S    
Cu2   N1    S    
Cu2   O3    S    
H5    N2    S    
C3    N1    D    
C27   H12   S    
Cu1   N2    S    
C7    C14   A    
C17   C21   A    
H6    N1    S    
Cu1   Cu2   S    
C5    O8    A    
C9    H18   S    
C10   C13   A    
