data_mof_unit_49097.cif
_audit_creation_date              2012-12-10T18:59:14-0500
_audit_creation_method            fapswitch 2.2
_symmetry_space_group_name_H-M    P1
_symmetry_Int_Tables_number       1
_space_group_crystal_system       triclinic
_cell_length_a                    10.837819
_cell_length_b                    10.824856
_cell_length_c                    9.552465
_cell_angle_alpha                 89.906757
_cell_angle_beta                  88.534624
_cell_angle_gamma                 90.999686
_cell_volume                      1120.13502964

loop_
_atom_site_label
_atom_site_type_symbol
_atom_type_description
_atom_site_fract_x
_atom_site_fract_y
_atom_site_fract_z
_atom_type_partial_charge
C1    C     C_R   0.497255 0.262349 0.500067 0.791899
C2    C     C_R   0.056783 0.489114 0.635548 0.028012
C3    C     C_R   0.126999 0.515304 0.510114 -0.083322
C4    C     C_R   0.066293 0.530726 0.383674 -0.183134
C5    C     C_R   0.939361 0.519131 0.379465 -0.177491
C6    C     C_R   0.871551 0.479968 0.498193 -0.089122
C7    C     C_R   0.485829 0.063443 0.625833 0.162620
C8    C     C_R   0.484693 0.129113 0.500191 -0.103535
C9    C     C_R   0.466818 0.064117 0.374724 -0.209010
C10   C     C_R   0.467483 0.935276 0.374642 -0.216745
C11   C     C_R   0.485988 0.870698 0.500016 -0.104092
C12   C     C_R   0.262072 0.507783 0.502799 0.826481
C13   C     C_R   0.486671 0.936259 0.625724 0.148116
C14   C     C_3   0.575708 0.932192 0.742327 -0.495721
C15   C     C_3   0.574218 0.072267 0.742900 -0.445147
C16   C     C_R   0.552779 0.596043 0.071895 0.227215
C17   C     C_R   0.439630 0.410703 0.077831 -0.087781
C18   C     C_R   0.437594 0.410587 0.930012 0.441016
C19   C     C_R   0.553032 0.596024 0.924466 0.207039
C20   C     C_3   0.685254 0.636612 0.915849 -0.483038
C21   C     C_3   0.684625 0.636712 0.074435 -0.482739
C22   C     C_R   0.498094 0.737693 0.499919 0.810980
C23   C     C_R   0.737285 0.490283 0.498799 0.794344
C24   C     C_R   0.101182 0.503813 0.773717 0.306479
C25   C     C_R   0.041318 0.438091 0.886068 0.362277
C26   C     C_R   0.931137 0.374426 0.862253 -0.195413
C27   C     C_R   0.875650 0.382474 0.733022 -0.290796
C28   C     C_R   0.933468 0.449243 0.621873 0.037474
Cu1   Cu    Cu3+1 0.499990 0.499980 0.640670 0.969723
Cu2   Cu    Cu3+1 0.500010 0.500020 0.359330 0.940646
H1    H     H_    0.116888 0.554233 0.287747 0.188053
H2    H     H_    0.666511 0.894661 0.708436 0.195390
H3    H     H_    0.530880 0.110939 0.839608 0.234017
H4    H     H_    0.664201 0.115764 0.710391 0.187071
H5    H     H_    0.391656 0.337982 0.136231 0.170935
H6    H     H_    0.746403 0.565731 0.869628 0.233126
H7    H     H_    0.698148 0.730211 0.870142 0.193132
H8    H     H_    0.744827 0.564970 0.117723 0.215726
H9    H     H_    0.696061 0.730465 0.120119 0.195582
H10   H     H_    0.885335 0.322791 0.946378 0.178666
H11   H     H_    0.788060 0.334798 0.720510 0.181293
H12   H     H_    0.894626 0.541095 0.282992 0.167022
H13   H     H_    0.458350 0.112240 0.276023 0.169609
H14   H     H_    0.459366 0.887088 0.275923 0.167641
H15   H     H_    0.533642 0.890244 0.838958 0.206147
N1    N     N_R   0.500790 0.500930 0.147930 -0.221948
N2    N     N_R   0.500790 0.500890 0.852020 -0.224179
O1    O     O_R   0.500000 0.319640 0.618810 -0.580629
O2    O     O_R   0.500010 0.319680 0.381230 -0.590403
O3    O     O_R   0.319640 0.499980 0.618820 -0.552135
O4    O     O_R   0.319650 0.500020 0.381230 -0.592775
O5    O     O_R   0.499990 0.680320 0.618770 -0.561489
O6    O     O_R   0.500000 0.680360 0.381190 -0.586951
O7    O     O_R   0.680350 0.499980 0.618770 -0.587588
O8    O     O_R   0.680360 0.500020 0.381180 -0.582637
O9    O     O_3   0.372551 0.315572 0.869630 -0.753185
H16   H     H_    0.337571 0.346945 0.783086 0.370599
O10   O     O_3   0.187502 0.596235 0.798658 -0.722079
H17   H     H_    0.180050 0.623024 0.897536 0.317669
O11   O     O_3   0.087397 0.433553 0.019231 -0.748568
H18   H     H_    0.176900 0.453233 0.014046 0.325651

loop_
_geom_bond_atom_site_label_1
_geom_bond_atom_site_label_2
_ccdc_geom_bond_type
C12   O3    A    
C5    H12   S    
C1    O1    A    
C23   O8    A    
Cu1   Cu2   S    
C25   O11   S    
C22   O6    A    
C1    C8    S    
C9    C10   A    
C27   H11   S    
C11   C22   S    
C19   C20   S    
C21   H9    S    
C18   O9    S    
Cu2   O4    S    
C18   N2    A    
C20   C21   S    
C7    C15   S    
C17   C18   A    
O10   H17   S    
C7    C8    A    
C13   C14   S    
C24   C25   A    
C20   H7    S    
C11   C13   A    
C26   H10   S    
C26   C27   A    
C16   C21   S    
Cu1   N2    S    
C16   C19   A    
C6    C23   S    
C24   O10   S    
Cu2   O2    S    
Cu2   N1    S    
C2    C3    A    
C14   H15   S    
Cu1   O3    S    
C2    C24   A    
C5    C6    A    
Cu2   O6    S    
C19   N2    A    
C9    H13   S    
C4    H1    S    
C10   C11   A    
Cu1   O1    S    
C10   H14   S    
C3    C4    A    
C20   H6    S    
C15   H4    S    
C7    C13   A    
C12   O4    A    
C17   N1    A    
C23   O7    A    
C22   O5    A    
Cu1   O7    S    
C16   N1    A    
C27   C28   A    
O9    H16   S    
C14   C15   S    
O11   H18   S    
C2    C28   A    
C3    C12   S    
C17   H5    S    
C25   C26   A    
C4    C5    A    
C1    O2    A    
Cu2   O8    S    
C15   H3    S    
C6    C28   A    
C21   H8    S    
C14   H2    S    
C8    C9    A    
Cu1   O5    S    
