data_mof_unit_66031.cif
_audit_creation_date              2012-12-10T20:21:25-0500
_audit_creation_method            fapswitch 2.2
_symmetry_space_group_name_H-M    P1
_symmetry_Int_Tables_number       1
_space_group_crystal_system       triclinic
_cell_length_a                    36.235682
_cell_length_b                    25.695062
_cell_length_c                    25.679178
_cell_angle_alpha                 89.999477
_cell_angle_beta                  90.000368
_cell_angle_gamma                 89.999488
_cell_volume                      23909.3201464

loop_
_atom_site_label
_atom_site_type_symbol
_atom_type_description
_atom_site_fract_x
_atom_site_fract_y
_atom_site_fract_z
_atom_type_partial_charge
C1    C     C_R   0.749998 0.349062 0.599076 0.512740
C2    C     C_R   0.769084 0.509342 0.702533 0.108659
C3    C     C_R   0.480743 0.797244 0.000076 -0.097957
C4    C     C_R   0.038497 0.250005 0.500000 0.035343
C5    C     C_R   0.961503 0.250005 0.500000 0.035351
C6    C     C_R   0.538497 0.750005 0.000001 0.035348
C7    C     C_R   0.461503 0.750005 0.000000 0.035351
C8    C     C_R   0.019256 0.202767 0.499972 -0.102337
C9    C     C_R   0.980744 0.202767 0.499973 -0.102348
C10   C     C_R   0.519257 0.702767 0.999925 -0.102296
C11   C     C_R   0.480744 0.702767 0.999925 -0.102284
C12   C     C_1   0.077982 0.250003 0.500000 -0.048395
C13   C     C_R   0.767678 0.510240 0.298365 0.108571
C14   C     C_1   0.922018 0.250002 0.500000 -0.048296
C15   C     C_1   0.577982 0.750003 0.000001 -0.048230
C16   C     C_1   0.422018 0.750002 0.000000 -0.048206
C17   C     C_1   0.888888 0.249995 0.500000 0.014660
C18   C     C_1   0.111112 0.249996 0.500000 0.014525
C19   C     C_1   0.388888 0.749995 0.000000 0.014754
C20   C     C_1   0.611112 0.749996 0.000000 0.014723
C21   C     C_R   0.849541 0.249984 0.500000 0.511376
C22   C     C_R   0.150459 0.249985 0.500000 0.511287
C23   C     C_R   0.349541 0.749984 1.000000 0.511422
C24   C     C_R   0.231529 0.509746 0.297872 0.108645
C25   C     C_R   0.650459 0.749985 0.000000 0.511401
C26   C     C_R   0.650298 0.249994 0.500000 0.510146
C27   C     C_R   0.349702 0.249994 0.500000 0.510218
C28   C     C_R   0.150298 0.749994 1.000000 0.510110
C29   C     C_R   0.849702 0.749994 0.000000 0.510124
C30   C     C_3   0.521433 0.221896 0.549029 -0.212876
C31   C     C_3   0.478567 0.221896 0.549029 -0.212871
C32   C     C_3   0.478567 0.221622 0.451129 -0.212886
C33   C     C_3   0.521433 0.221622 0.451129 -0.212870
C34   C     C_3   0.021433 0.720020 0.047904 -0.212891
C35   C     C_R   0.730939 0.009358 0.202517 0.108657
C36   C     C_3   0.978567 0.720020 0.047904 -0.212898
C37   C     C_3   0.978567 0.723534 0.950066 -0.212852
C38   C     C_3   0.021433 0.723534 0.950067 -0.212864
C39   C     C_1   0.389399 0.249999 0.500000 0.001536
C40   C     C_1   0.610601 0.249999 0.500000 0.001475
C41   C     C_1   0.889399 0.749999 0.000000 0.001427
C42   C     C_1   0.110601 0.749999 1.000000 0.001414
C43   C     C_3   0.536499 0.250003 0.500000 0.059496
C44   C     C_3   0.463501 0.250003 0.500000 0.059481
C45   C     C_3   0.036499 0.750003 1.000000 0.059551
C46   C     C_R   0.267750 0.010197 0.201676 0.108568
C47   C     C_3   0.963501 0.750003 1.000000 0.059547
C48   C     C_3   0.478566 0.306490 0.499841 -0.213501
C49   C     C_3   0.521433 0.306490 0.499841 -0.213525
C50   C     C_3   0.978566 0.806454 0.002029 -0.213520
C51   C     C_3   0.021433 0.806454 0.002029 -0.213518
C52   C     C_1   0.422736 0.250001 0.500000 -0.068276
C53   C     C_1   0.577263 0.250002 0.500000 -0.068314
C54   C     C_1   0.922736 0.750001 1.000000 -0.068350
C55   C     C_1   0.077263 0.750002 1.000000 -0.068359
C56   C     C_R   0.269067 0.009355 0.797481 0.108652
C57   C     C_R   0.732257 0.010200 0.798326 0.108575
C58   C     C_R   0.249755 0.462123 0.710669 0.041130
C59   C     C_R   0.750315 0.462079 0.710713 0.041186
C60   C     C_R   0.750276 0.462104 0.289311 0.041158
C61   C     C_R   0.250001 0.349061 0.599077 0.512762
C62   C     C_R   0.249705 0.462094 0.289302 0.041152
C63   C     C_R   0.749686 0.962080 0.210712 0.041182
C64   C     C_R   0.250278 0.962102 0.210690 0.041160
C65   C     C_R   0.250314 0.962080 0.789288 0.041186
C66   C     C_R   0.749722 0.962103 0.789311 0.041157
C67   C     C_R   0.266162 0.452242 0.759100 -0.127457
C68   C     C_R   0.731552 0.453647 0.757694 -0.127466
C69   C     C_R   0.732881 0.452798 0.241456 -0.127459
C70   C     C_R   0.267877 0.453272 0.241931 -0.127471
C71   C     C_R   0.768428 0.953633 0.257708 -0.127471
C72   C     C_R   0.250002 0.349062 0.400924 0.512833
C73   C     C_R   0.232813 0.952837 0.258505 -0.127446
C74   C     C_R   0.231567 0.953635 0.742294 -0.127453
C75   C     C_R   0.767181 0.952836 0.741495 -0.127464
C76   C     C_R   0.768541 0.991927 0.296368 -0.109461
C77   C     C_R   0.232709 0.991125 0.297171 -0.109441
C78   C     C_R   0.231454 0.991929 0.703633 -0.109442
C79   C     C_R   0.767286 0.991124 0.702829 -0.109461
C80   C     C_R   0.266259 0.490526 0.797770 -0.109463
C81   C     C_R   0.731439 0.491941 0.796354 -0.109456
C82   C     C_R   0.732777 0.491085 0.202789 -0.109457
C83   C     C_R   0.749999 0.349061 0.400923 0.512680
C84   C     C_R   0.267986 0.491564 0.203269 -0.109468
C85   C     C_R   0.749902 0.038956 0.288299 0.012832
C86   C     C_R   0.250080 0.038967 0.288287 0.012842
C87   C     C_R   0.250098 0.038956 0.711701 0.012835
C88   C     C_R   0.749922 0.038969 0.711714 0.012839
C89   C     C_R   0.249939 0.538980 0.788273 0.012844
C90   C     C_R   0.750099 0.538955 0.788300 0.012832
C91   C     C_R   0.750079 0.538968 0.211713 0.012840
C92   C     C_R   0.249913 0.538965 0.211710 0.012830
C93   C     C_R   0.731148 0.047572 0.241398 -0.080010
C94   C     C_R   0.249998 0.849062 0.099077 0.512682
C95   C     C_R   0.267556 0.048402 0.240566 -0.080010
C96   C     C_R   0.268858 0.047570 0.758600 -0.080028
C97   C     C_R   0.732451 0.048406 0.759436 -0.079996
C98   C     C_R   0.233523 0.549031 0.739935 -0.080002
C99   C     C_R   0.768875 0.547557 0.741414 -0.080015
C100  C     C_R   0.767485 0.548445 0.259474 -0.080000
C101  C     C_R   0.231731 0.547957 0.258986 -0.080020
C102  C     C_1   0.249956 0.422044 0.671432 -0.013224
C103  C     C_1   0.750078 0.422022 0.671456 -0.013136
C104  C     C_1   0.750060 0.422034 0.328557 -0.013212
C105  C     C_R   0.750002 0.849063 0.099076 0.512739
C106  C     C_1   0.249932 0.422030 0.328553 -0.013139
C107  C     C_1   0.749923 0.922022 0.171455 -0.013145
C108  C     C_1   0.250060 0.922032 0.171444 -0.013206
C109  C     C_1   0.250077 0.922021 0.828545 -0.013137
C110  C     C_1   0.749939 0.922033 0.828557 -0.013215
C111  C     C_1   0.749993 0.078388 0.328113 -0.047603
C112  C     C_1   0.249998 0.078394 0.328107 -0.047582
C113  C     C_1   0.250008 0.078388 0.671886 -0.047616
C114  C     C_1   0.750003 0.078395 0.671894 -0.047576
C115  C     C_1   0.250011 0.578402 0.828099 -0.047575
C116  C     C_R   0.750001 0.849062 0.900923 0.512681
C117  C     C_1   0.750008 0.578387 0.828114 -0.047602
C118  C     C_1   0.749998 0.578394 0.171894 -0.047577
C119  C     C_1   0.249999 0.578393 0.171893 -0.047605
C120  C     C_1   0.750026 0.111473 0.361403 0.010783
C121  C     C_1   0.249970 0.111476 0.361401 0.010813
C122  C     C_1   0.249974 0.111473 0.638596 0.010769
C123  C     C_1   0.750030 0.111477 0.638600 0.010824
C124  C     C_1   0.250034 0.611480 0.861396 0.010816
C125  C     C_1   0.749974 0.611473 0.861403 0.010784
C126  C     C_1   0.749970 0.611476 0.138600 0.010824
C127  C     C_R   0.249998 0.849062 0.900924 0.512741
C128  C     C_1   0.250029 0.611476 0.138599 0.010779
C129  C     C_1   0.250040 0.388619 0.638483 0.033147
C130  C     C_1   0.749972 0.388611 0.638492 0.033222
C131  C     C_1   0.749966 0.388615 0.361513 0.033135
C132  C     C_1   0.250032 0.388614 0.361512 0.033257
C133  C     C_1   0.750028 0.888611 0.138492 0.033215
C134  C     C_1   0.249965 0.888614 0.138488 0.033141
C135  C     C_1   0.249971 0.888610 0.861508 0.033225
C136  C     C_1   0.750033 0.888615 0.861513 0.033136
C137  C     C_R   0.750020 0.150912 0.400944 0.509470
C138  C     C_R   0.233342 0.510834 0.701038 0.108539
C139  C     C_R   0.249980 0.150912 0.400945 0.509489
C140  C     C_R   0.249980 0.150913 0.599055 0.509432
C141  C     C_R   0.750020 0.150912 0.599055 0.509512
C142  C     C_R   0.250020 0.650912 0.900945 0.509493
C143  C     C_R   0.749980 0.650912 0.900944 0.509469
C144  C     C_R   0.749980 0.650912 0.099055 0.509510
C145  C     C_R   0.250020 0.650913 0.099055 0.509451
C146  C     C_R   0.019256 0.297243 0.500028 -0.098095
C147  C     C_R   0.980743 0.297243 0.500028 -0.098035
C148  C     C_R   0.519256 0.797244 0.000077 -0.097958
H1    H     H_    0.468324 0.181072 0.550067 0.123122
H2    H     H_    0.468323 0.241137 0.415235 0.124856
H3    H     H_    0.468323 0.241611 0.584813 0.124883
H4    H     H_    0.531677 0.241611 0.584814 0.124840
H5    H     H_    0.031677 0.744422 0.914955 0.124734
H6    H     H_    0.968322 0.744422 0.914955 0.124762
H7    H     H_    0.968323 0.738336 0.084425 0.124842
H8    H     H_    0.031678 0.738336 0.084425 0.124862
H9    H     H_    0.531676 0.327799 0.534699 0.122707
H10   H     H_    0.468322 0.327798 0.534699 0.122785
H11   H     H_    0.468322 0.327604 0.464865 0.122754
H12   H     H_    0.531678 0.181073 0.550067 0.123115
H13   H     H_    0.531676 0.327604 0.464865 0.122741
H14   H     H_    0.031676 0.826398 0.037686 0.122745
H15   H     H_    0.968322 0.826398 0.037685 0.122718
H16   H     H_    0.968322 0.828905 0.967897 0.122610
H17   H     H_    0.031676 0.828905 0.967897 0.122583
H18   H     H_    0.716693 0.083927 0.235011 0.140386
H19   H     H_    0.281027 0.085388 0.233548 0.140373
H20   H     H_    0.283317 0.083923 0.764984 0.140366
H21   H     H_    0.718984 0.085394 0.766454 0.140391
H22   H     H_    0.220867 0.586493 0.732442 0.140364
H23   H     H_    0.531677 0.180794 0.450322 0.123106
H24   H     H_    0.783347 0.583900 0.735039 0.140377
H25   H     H_    0.780903 0.585462 0.266522 0.140382
H26   H     H_    0.217715 0.584601 0.265661 0.140371
H27   H     H_    0.278884 0.414897 0.766972 0.121870
H28   H     H_    0.717004 0.417426 0.764440 0.121818
H29   H     H_    0.719393 0.415899 0.234033 0.121860
H30   H     H_    0.281966 0.416749 0.234884 0.121829
H31   H     H_    0.782960 0.917401 0.264465 0.121806
H32   H     H_    0.219271 0.915970 0.265899 0.121867
H33   H     H_    0.217031 0.917404 0.735538 0.121820
H34   H     H_    0.468324 0.180794 0.450321 0.123100
H35   H     H_    0.780719 0.915967 0.734101 0.121847
H36   H     H_    0.783138 0.984870 0.332508 0.125010
H37   H     H_    0.219107 0.983429 0.333950 0.125034
H38   H     H_    0.216853 0.984874 0.667494 0.125022
H39   H     H_    0.780884 0.983428 0.666049 0.125020
H40   H     H_    0.279037 0.482350 0.835030 0.124999
H41   H     H_    0.716825 0.484895 0.832483 0.125024
H42   H     H_    0.719230 0.483359 0.165979 0.125032
H43   H     H_    0.282138 0.484215 0.166836 0.125002
H44   H     H_    0.966000 0.333932 0.500050 0.127540
H45   H     H_    0.968324 0.679187 0.047360 0.122957
H46   H     H_    0.033999 0.333932 0.500050 0.127416
H47   H     H_    0.466000 0.833932 0.000135 0.127640
H48   H     H_    0.533999 0.833932 0.000135 0.127638
H49   H     H_    0.033999 0.166078 0.499951 0.117959
H50   H     H_    0.966002 0.166078 0.499951 0.117956
H51   H     H_    0.533999 0.666078 0.999866 0.118005
H52   H     H_    0.466002 0.666078 0.999866 0.118028
H53   H     H_    0.031678 0.679187 0.047360 0.122951
H54   H     H_    0.031677 0.682768 0.947678 0.123135
H55   H     H_    0.968323 0.682767 0.947678 0.123158
H56   H     H_    0.531677 0.241137 0.415235 0.124868
I1    I     I_    0.207984 0.528771 0.628778 -0.321474
I2    I     I_    0.798080 0.525046 0.632512 -0.321800
I3    I     I_    0.794563 0.527291 0.369736 -0.322035
I4    I     I_    0.203449 0.526050 0.368496 -0.321074
I5    I     I_    0.701975 0.025083 0.132474 -0.321693
I6    I     I_    0.294743 0.027183 0.130369 -0.321998
I7    I     I_    0.298040 0.025076 0.867521 -0.321743
I8    I     I_    0.705272 0.027190 0.869635 -0.321929
O1    O     O_3   0.750020 0.249980 0.500000 -0.444527
O2    O     O_R   0.771480 0.810110 0.102800 -0.541541
O3    O     O_R   0.771480 0.810110 0.897200 -0.541465
O4    O     O_R   0.228520 0.810110 0.897200 -0.541542
O5    O     O_R   0.728520 0.189860 0.397190 -0.534251
O6    O     O_R   0.271480 0.189860 0.397190 -0.534249
O7    O     O_R   0.271480 0.189860 0.602810 -0.534294
O8    O     O_R   0.728520 0.189860 0.602810 -0.534214
O9    O     O_R   0.228520 0.689860 0.897190 -0.534219
O10   O     O_R   0.771480 0.689860 0.897190 -0.534260
O11   O     O_R   0.771480 0.689860 0.102810 -0.534225
O12   O     O_3   0.249980 0.249980 0.500000 -0.444510
O13   O     O_R   0.228520 0.689860 0.102810 -0.534253
O14   O     O_R   0.771490 0.352810 0.439870 -0.516776
O15   O     O_R   0.228510 0.352810 0.439870 -0.516542
O16   O     O_R   0.228510 0.352810 0.560130 -0.516859
O17   O     O_R   0.771490 0.352810 0.560130 -0.516533
O18   O     O_R   0.271490 0.852810 0.939870 -0.516526
O19   O     O_R   0.728510 0.852810 0.939870 -0.516758
O20   O     O_R   0.728510 0.852810 0.060130 -0.516529
O21   O     O_R   0.271490 0.852810 0.060130 -0.516757
O22   O     O_R   0.771530 0.147160 0.560090 -0.535274
O23   O     O_3   0.250020 0.749980 0.000000 -0.444534
O24   O     O_R   0.228470 0.147160 0.560090 -0.535321
O25   O     O_R   0.228470 0.147160 0.439910 -0.535266
O26   O     O_R   0.771530 0.147160 0.439910 -0.535322
O27   O     O_R   0.271530 0.647160 0.060090 -0.535320
O28   O     O_R   0.728470 0.647160 0.060090 -0.535261
O29   O     O_R   0.728470 0.647160 0.939910 -0.535313
O30   O     O_R   0.271530 0.647160 0.939910 -0.535255
O31   O     O_R   0.832000 0.292700 0.500000 -0.528609
O32   O     O_R   0.168000 0.292700 0.500000 -0.528836
O33   O     O_R   0.332000 0.792700 0.000000 -0.528581
O34   O     O_3   0.749980 0.749980 0.000000 -0.444528
O35   O     O_R   0.668000 0.792700 0.000000 -0.528583
O36   O     O_R   0.668030 0.249990 0.542720 -0.534751
O37   O     O_R   0.331970 0.249990 0.542720 -0.534643
O38   O     O_R   0.331970 0.249990 0.457280 -0.534716
O39   O     O_R   0.668030 0.249990 0.457280 -0.534698
O40   O     O_R   0.168030 0.749990 0.042720 -0.534716
O41   O     O_R   0.831970 0.749990 0.042720 -0.534765
O42   O     O_R   0.831970 0.749990 0.957280 -0.534717
O43   O     O_R   0.168030 0.749990 0.957280 -0.534775
O44   O     O_R   0.832010 0.207260 0.500000 -0.537823
O45   O     O_R   0.728520 0.310110 0.602800 -0.541533
O46   O     O_R   0.167990 0.207260 0.500000 -0.537790
O47   O     O_R   0.332010 0.707260 0.000000 -0.537774
O48   O     O_R   0.667990 0.707260 0.000000 -0.537808
O49   O     O_R   0.271480 0.310110 0.602800 -0.541380
O50   O     O_R   0.271480 0.310110 0.397200 -0.541492
O51   O     O_R   0.728520 0.310110 0.397200 -0.541453
O52   O     O_R   0.228520 0.810110 0.102800 -0.541459
Zn1   Zn    Zn3+2 0.719300 0.249980 0.438970 0.952608
Zn2   Zn    Zn3+2 0.219280 0.311020 0.500000 0.982379
Zn3   Zn    Zn3+2 0.280720 0.811020 0.000000 0.982608
Zn4   Zn    Zn3+2 0.719280 0.811020 0.000000 0.982594
Zn5   Zn    Zn3+2 0.780730 0.188950 0.500000 0.951664
Zn6   Zn    Zn3+2 0.219270 0.188950 0.500000 0.951604
Zn7   Zn    Zn3+2 0.280730 0.688950 0.000000 0.951721
Zn8   Zn    Zn3+2 0.719270 0.688950 0.000000 0.951699
Zn9   Zn    Zn3+2 0.280700 0.249980 0.438970 0.952711
Zn10  Zn    Zn3+2 0.280700 0.249980 0.561030 0.952703
Zn11  Zn    Zn3+2 0.719300 0.249980 0.561030 0.952623
Zn12  Zn    Zn3+2 0.219300 0.749980 0.938970 0.952577
Zn13  Zn    Zn3+2 0.780700 0.749980 0.938970 0.952572
Zn14  Zn    Zn3+2 0.780700 0.749980 0.061030 0.952591
Zn15  Zn    Zn3+2 0.219300 0.749980 0.061030 0.952569
Zn16  Zn    Zn3+2 0.780720 0.311020 0.500000 0.982549

loop_
_geom_bond_atom_site_label_1
_geom_bond_atom_site_label_2
_ccdc_geom_bond_type
C78   C87   A    
C94   O52   A    
C89   C115  S    
O48   Zn8   S    
C5    C147  A    
C109  C135  T    
C77   H37   S    
C110  C136  T    
C143  O29   A    
C28   O43   A    
C57   C66   A    
C4    C8    A    
C75   H35   S    
C10   H51   S    
C143  O10   A    
C22   O32   A    
C114  C123  T    
C68   H28   S    
C116  C136  S    
O47   Zn7   S    
O11   Zn14  S    
C105  O2    A    
C22   O46   A    
C30   H12   S    
O12   Zn9   S    
C144  O28   A    
C5    C9    A    
C27   O37   A    
C79   H39   S    
C98   C138  A    
C68   C81   A    
C32   H34   S    
O40   Zn15  S    
C127  C135  S    
C6    C148  A    
O46   Zn6   S    
C3    C7    A    
C141  O8    A    
O12   Zn2   S    
C71   C76   A    
C31   H1    S    
O42   Zn13  S    
C128  C145  S    
C139  O25   A    
C20   C25   S    
C45   C51   S    
C34   H53   S    
O23   Zn7   S    
C56   C65   A    
O1    Zn1   S    
C80   C89   A    
O52   Zn15  S    
C97   H21   S    
C62   C70   A    
O9    Zn12  S    
C56   C96   A    
C24   C101  A    
O38   Zn9   S    
C71   H31   S    
C137  O26   A    
O34   Zn14  S    
C11   H52   S    
C144  O11   A    
C69   C82   A    
C69   H29   S    
C6    C15   S    
C36   H45   S    
C25   O48   A    
C85   C93   A    
C43   C53   S    
C46   C95   A    
O1    Zn11  S    
C67   H27   S    
C8    C9    A    
C38   C45   S    
C72   O15   A    
C76   H36   S    
C66   C75   A    
C64   C73   A    
C96   H20   S    
C72   C132  S    
O25   Zn6   S    
C2    I2    S    
C102  C129  T    
C29   O41   A    
C91   C100  A    
C4    C12   S    
C70   C84   A    
O39   Zn1   S    
C142  O9    A    
C49   H13   S    
C88   C97   A    
C61   C129  S    
C21   O31   A    
C30   C43   S    
C119  C128  T    
C44   C52   S    
C39   C52   T    
O1    Zn16  S    
C23   O47   A    
C3    C148  A    
O19   Zn4   S    
C82   H42   S    
O8    Zn11  S    
O23   Zn3   S    
O23   Zn12  S    
C73   H32   S    
C14   C17   T    
C124  C142  S    
C8    H49   S    
O33   Zn3   S    
O1    Zn5   S    
C116  O3    A    
O34   Zn4   S    
C63   C107  S    
C74   H33   S    
C79   C88   A    
C138  I1    S    
C26   O36   A    
C64   C108  S    
C47   C50   S    
C1    O45   A    
O18   Zn3   S    
C35   C93   A    
O4    Zn12  S    
C15   C20   T    
C48   H11   S    
C26   C40   S    
O45   Zn11  S    
C61   O16   A    
C87   C113  S    
C31   C44   S    
C113  C122  T    
C50   H16   S    
C33   C43   S    
C105  O20   A    
C51   H14   S    
C49   H9    S    
C56   I7    S    
C1    C130  S    
C10   C11   A    
C27   C39   S    
C13   C60   A    
O37   Zn10  S    
C2    C59   A    
C70   H30   S    
C99   H24   S    
C46   I6    S    
C145  O13   A    
C104  C131  T    
C127  O18   A    
C3    H47   S    
C82   C91   A    
O20   Zn4   S    
C46   C64   A    
C111  C120  T    
C23   O33   A    
O34   Zn13  S    
C86   C112  S    
C28   O40   A    
C90   C117  S    
C6    C10   A    
C108  C134  T    
C37   C38   S    
C59   C68   A    
O21   Zn3   S    
O32   Zn2   S    
C31   H3    S    
C81   H41   S    
C140  O7    A    
C30   H4    S    
C147  H44   S    
C57   C97   A    
C87   C96   A    
C123  C141  S    
O24   Zn6   S    
C50   C51   S    
C37   H55   S    
C91   C118  S    
O28   Zn8   S    
C94   O21   A    
C34   C45   S    
O14   Zn16  S    
C29   O42   A    
C66   C110  S    
O10   Zn13  S    
C84   C92   A    
C65   C109  S    
C5    C14   S    
C13   I3    S    
O16   Zn2   S    
C92   C101  A    
O36   Zn11  S    
C47   C54   S    
C78   H38   S    
O35   Zn4   S    
C25   O35   A    
C7    C16   S    
C63   C71   A    
C77   C86   A    
C141  O22   A    
O6    Zn9   S    
O5    Zn1   S    
O2    Zn14  S    
C116  O19   A    
O3    Zn13  S    
C36   C47   S    
C51   H17   S    
C37   C47   S    
C146  H46   S    
C81   C90   A    
C137  O5    A    
C33   H23   S    
C90   C99   A    
C115  C124  T    
C101  H26   S    
C9    H50   S    
C19   C23   S    
O22   Zn5   S    
C105  C133  S    
C146  C147  A    
C32   C44   S    
O51   Zn1   S    
O50   Zn9   S    
C48   C49   S    
C24   C62   A    
C84   H43   S    
O17   Zn16  S    
C29   C41   S    
C50   H15   S    
C18   C22   S    
C72   O50   A    
C37   H6    S    
C92   C119  S    
C43   C49   S    
C67   C80   A    
C85   C111  S    
C95   H19   S    
O31   Zn16  S    
C93   H18   S    
O49   Zn10  S    
O15   Zn2   S    
C62   C106  S    
C61   O49   A    
C34   H8    S    
O13   Zn15  S    
O12   Zn10  S    
O44   Zn5   S    
O43   Zn12  S    
C33   H56   S    
O34   Zn8   S    
O29   Zn8   S    
O27   Zn7   S    
C89   C98   A    
C59   C103  S    
O30   Zn7   S    
C121  C139  S    
C13   C100  A    
C2    C99   A    
C42   C55   T    
O23   Zn15  S    
C112  C121  T    
C107  C133  T    
C142  O30   A    
O41   Zn14  S    
C32   C33   S    
C21   O44   A    
C139  O6    A    
C58   C138  A    
C30   C31   S    
C48   H10   S    
C60   C69   A    
C125  C143  S    
C16   C19   T    
C58   C102  S    
C145  O27   A    
C126  C144  S    
C94   C134  S    
O12   Zn6   S    
C24   I4    S    
C35   I5    S    
C34   C36   S    
O7    Zn10  S    
C88   C114  S    
C83   C131  S    
C127  O4    A    
C103  C130  T    
C17   C21   S    
C41   C54   T    
C27   O38   A    
C83   O51   A    
C65   C74   A    
C122  C140  S    
O26   Zn5   S    
C98   H22   S    
C106  C132  T    
C1    O17   A    
C58   C67   A    
C32   H2    S    
C45   C55   S    
C148  H48   S    
C40   C53   T    
C38   H54   S    
C12   C18   T    
C100  H25   S    
C140  O24   A    
C73   C77   A    
C4    C146  A    
C35   C63   A    
C120  C137  S    
C118  C126  T    
C38   H5    S    
C86   C95   A    
C60   C104  S    
C117  C125  T    
C75   C79   A    
C76   C85   A    
C83   O14   A    
C26   O39   A    
C57   I8    S    
C44   C48   S    
C36   H7    S    
C7    C11   A    
C80   H40   S    
C28   C42   S    
C74   C78   A    
