data_mof_unit_60678.cif
_audit_creation_date              2013-03-05T16:15:02-0500
_audit_creation_method            fapswitch 2.2
_symmetry_space_group_name_H-M    P1
_symmetry_Int_Tables_number       1
_space_group_crystal_system       triclinic
_cell_length_a                    13.349798
_cell_length_b                    14.269339
_cell_length_c                    15.615515
_cell_angle_alpha                 90.004148
_cell_angle_beta                  84.992072
_cell_angle_gamma                 89.996542
_cell_volume                      2963.28773922

loop_
_atom_site_label
_atom_site_type_symbol
_atom_site_description
_atom_site_fract_x
_atom_site_fract_y
_atom_site_fract_z
_atom_type_partial_charge
O1    O     O_R   0.423530 0.626280 0.499990 -0.596884
O2    O     O_R   0.576470 0.373720 0.500010 -0.587526
O3    O     O_R   0.576470 0.626280 0.500010 -0.596593
O4    O     O_R   0.423530 0.373720 0.499990 -0.587033
C1    C     C_R   0.499997 0.673549 0.500001 0.916289
C2    C     C_R   0.500003 0.326462 0.500000 0.922343
O5    O     O_R   0.414510 0.500000 0.615790 -0.547067
O6    O     O_R   0.585490 0.500000 0.384210 -0.546980
O7    O     O_R   0.567420 0.500000 0.615810 -0.564080
O8    O     O_R   0.432580 0.500000 0.384190 -0.563740
C3    C     C_R   0.486180 0.500373 0.660207 1.022686
C4    C     C_R   0.513831 0.500336 0.339788 1.022251
Zn1   Zn    Zn3+2 0.397910 0.500000 0.499990 1.074953
Zn2   Zn    Zn3+2 0.602090 0.500000 0.500010 1.074829
C5    C     C_R   0.476093 0.469097 0.751216 -0.449834
C6    C     C_R   0.524048 0.469039 0.248768 -0.450087
C7    C     C_R   0.558828 0.471779 0.800563 0.571976
C8    C     C_R   0.441192 0.470870 0.199513 0.572128
C9    C     C_R   0.559552 0.418453 0.876079 0.180845
C10   C     C_R   0.440985 0.417509 0.123957 0.180721
C11   C     C_R   0.477203 0.359596 0.902385 -0.442932
C12   C     C_R   0.524015 0.359529 0.097493 -0.442824
C13   C     C_R   0.390235 0.362391 0.856070 0.275562
C14   C     C_R   0.610969 0.363160 0.143755 0.275848
C15   C     C_R   0.389372 0.420029 0.783054 0.520999
C16   C     C_R   0.611277 0.420788 0.216807 0.521312
C17   C     C_2   0.491182 0.276909 0.958161 0.668839
C18   C     C_2   0.511114 0.276874 0.041402 0.669005
C19   C     C_1   0.499993 0.774179 0.500001 -0.159245
C20   C     C_1   0.500007 0.225850 0.500002 -0.151276
C21   C     C_1   0.499993 0.858716 0.500002 0.047830
C22   C     C_1   0.500006 0.141319 0.500003 0.058433
C23   C     C_1   0.499997 0.957754 0.500003 0.069880
C24   C     C_1   0.500001 0.042285 0.500003 0.074210
N1    N     N_1   0.738130 0.500000 0.500020 -0.027660
N2    N     N_1   0.261870 0.500000 0.499980 -0.027657
C25   C     C_1   0.830621 0.499985 0.500013 0.197636
C26   C     C_1   0.169379 0.499985 0.499987 0.197568
C27   C     C_1   0.950472 0.499975 0.500004 0.023520
C28   C     C_1   0.049528 0.499975 0.499996 0.023490
F1    F     F_    0.642445 0.520831 0.772130 -0.579606
F2    F     F_    0.357022 0.519058 0.228074 -0.579545
F3    F     F_    0.694760 0.423477 0.260723 -0.579990
F4    F     F_    0.305974 0.421906 0.738997 -0.579960
F5    F     F_    0.522193 0.191658 0.078671 -0.546721
F6    F     F_    0.481331 0.191703 0.920532 -0.546879
N3    N     N_R   0.305825 0.300918 0.877788 0.289728
O9    O     O_R   0.281306 0.276012 0.956928 -0.254795
O10   O     O_R   0.253452 0.268023 0.818022 -0.237503
N4    N     N_R   0.696046 0.302525 0.121917 0.289868
O11   O     O_R   0.721249 0.278472 0.042650 -0.254546
O12   O     O_R   0.748396 0.269584 0.181684 -0.237582
N5    N     N_R   0.350096 0.412821 0.082358 0.244105
O13   O     O_R   0.275469 0.363779 0.117770 -0.238198
O14   O     O_R   0.332144 0.477314 0.026884 -0.307739
N6    N     N_R   0.650396 0.414796 0.917822 0.244117
O15   O     O_R   0.725966 0.367144 0.882162 -0.237777
O16   O     O_R   0.667083 0.479198 0.973760 -0.308713

loop_
_geom_bond_atom_site_label_1
_geom_bond_atom_site_label_2
_geom_bond_distance
_ccdc_geom_bond_type
C9    N6    1.427022 S    
N4    O12   1.301642 A    
O7    Zn2   1.827011 S    
C21   C23   1.413207 S    
C9    C11   1.415607 A    
C20   C22   1.206206 T    
C8    C10   1.404373 A    
N3    O9    1.300047 A    
O6    C4    1.229716 A    
C19   C21   1.206296 T    
C17   C18   1.349376 D    
C12   C14   1.420730 A    
N5    O14   1.300407 A    
N4    O11   1.300138 A    
C11   C17   1.487974 S    
C25   C27   1.599974 S    
C12   C18   1.487982 S    
N5    O13   1.300773 A    
O5    C3    1.229796 A    
O7    C3    1.235161 A    
O2    C2    1.223488 A    
O3    Zn2   1.834084 S    
O8    C4    1.235321 A    
O1    C1    1.223578 A    
C6    C16   1.406261 A    
C15   F4    1.359145 S    
C6    C8    1.401511 A    
C26   C28   1.599974 S    
C14   C16   1.406488 A    
C16   F3    1.359141 S    
C23   C24   1.206200 T    
C1    C19   1.435916 S    
C8    F2    1.358931 S    
C11   C13   1.420990 A    
C14   N4    1.444665 S    
O2    Zn2   1.834126 S    
C7    F1    1.358949 S    
C18   F5    1.361725 S    
C5    C15   1.406190 A    
O4    C2    1.223480 A    
C13   N3    1.444890 S    
C10   C12   1.415537 A    
N2    C26   1.234725 T    
O5    Zn1   1.840906 S    
C13   C15   1.406763 A    
O1    Zn1   1.834124 S    
N6    O15   1.300767 A    
C17   F6    1.361687 S    
Zn1   N2    1.816122 S    
N3    O10   1.301559 A    
N1    C25   1.234725 T    
C27   C28   1.322368 T    
C5    C7    1.401345 A    
C7    C9    1.404197 A    
O6    Zn2   1.840906 S    
C2    C20   1.435668 S    
C3    C5    1.484469 S    
Zn2   N1    1.816122 S    
C4    C6    1.484678 S    
O4    Zn1   1.834085 S    
N6    O16   1.300394 A    
C10   N5    1.426975 S    
O3    C1    1.223571 A    
O8    Zn1   1.827011 S    
C22   C24   1.413141 S    
