data_mof_unit_13744.cif
_audit_creation_date              2013-03-05T16:15:21-0500
_audit_creation_method            fapswitch 2.2
_symmetry_space_group_name_H-M    P1
_symmetry_Int_Tables_number       1
_space_group_crystal_system       triclinic
_cell_length_a                    27.818318
_cell_length_b                    10.620275
_cell_length_c                    9.427562
_cell_angle_alpha                 89.900082
_cell_angle_beta                  90.081651
_cell_angle_gamma                 90.185413
_cell_volume                      2785.24020206

loop_
_atom_site_label
_atom_site_type_symbol
_atom_site_description
_atom_site_fract_x
_atom_site_fract_y
_atom_site_fract_z
_atom_type_partial_charge
O1    O     O_R   0.500020 0.316850 0.620870 -0.602666
O2    O     O_R   0.499980 0.683150 0.379130 -0.602832
O3    O     O_R   0.500000 0.316860 0.379090 -0.543457
O4    O     O_R   0.500000 0.683140 0.620910 -0.544268
C1    C     C_R   0.500260 0.259670 0.500176 0.849229
C2    C     C_R   0.499742 0.740331 0.499824 0.849379
O5    O     O_R   0.430270 0.500020 0.620880 -0.569898
O6    O     O_R   0.569730 0.499980 0.379120 -0.565709
O7    O     O_R   0.430250 0.500030 0.379090 -0.612090
O8    O     O_R   0.569750 0.499970 0.620910 -0.615457
C3    C     C_R   0.407534 0.499864 0.499815 0.828139
C4    C     C_R   0.592464 0.500122 0.500194 0.830557
Cu1   Cu    Cu3+1 0.500010 0.499990 0.643150 0.971355
Cu2   Cu    Cu3+1 0.499990 0.500010 0.356850 0.972240
C5    C     C_R   0.178134 0.384559 0.510570 0.609252
C6    C     C_R   0.821764 0.615607 0.510771 0.546450
O9    O     O_2   0.203677 0.276962 0.517170 -0.487686
O10   O     O_2   0.796156 0.722963 0.519174 -0.484102
N1    N     N_R   0.202108 0.496717 0.500436 -0.458276
N2    N     N_R   0.797842 0.503340 0.501501 -0.489768
C7    C     C_R   0.178314 0.608708 0.494853 0.591370
C8    C     C_R   0.821703 0.391769 0.491344 0.531725
C9    C     C_R   0.279003 0.493971 0.366625 0.040181
C10   C     C_R   0.721030 0.498663 0.633318 0.032005
C11   C     C_R   0.329369 0.495386 0.369633 -0.312697
C12   C     C_R   0.670591 0.497905 0.630625 -0.191109
C13   C     C_R   0.328829 0.501998 0.626601 -0.169229
C14   C     C_R   0.671205 0.503973 0.373461 -0.164946
C15   C     C_R   0.278812 0.500969 0.625206 -0.145859
C16   C     C_R   0.721241 0.504933 0.374962 -0.075843
C17   C     C_R   0.253629 0.496992 0.496620 0.346996
C18   C     C_R   0.746305 0.502438 0.503743 0.256707
C19   C     C_R   0.102023 0.496923 0.504984 -0.087698
C20   C     C_R   0.897941 0.503763 0.502401 -0.093885
C21   C     C_R   0.127306 0.381626 0.512911 -0.020044
C22   C     C_R   0.872598 0.618826 0.511848 -0.022808
C23   C     C_R   0.101075 0.268100 0.523349 0.182199
C24   C     C_R   0.898774 0.732326 0.523528 0.182565
C25   C     C_R   0.127985 0.611007 0.496624 -0.005938
C26   C     C_R   0.872036 0.389743 0.491783 -0.008442
C27   C     C_R   0.354571 0.499219 0.498873 -0.013401
C28   C     C_R   0.645424 0.500592 0.501223 -0.074843
H1    H     H_    0.347271 0.505079 0.727751 0.153821
H2    H     H_    0.652779 0.506112 0.272246 0.167814
H3    H     H_    0.259373 0.503351 0.724617 0.145698
H4    H     H_    0.740740 0.507686 0.275645 0.166345
C29   C     C_R   0.973858 0.385284 0.499133 0.068761
C30   C     C_R   0.026129 0.615641 0.501987 0.068755
C31   C     C_R   0.975048 0.617124 0.508963 0.019463
C32   C     C_R   0.024894 0.383676 0.508056 0.020390
C33   C     C_R   0.949114 0.502146 0.503518 0.066525
C34   C     C_R   0.050851 0.498675 0.505131 0.068250
C35   C     C_R   0.946525 0.273533 0.484190 -0.208327
C36   C     C_R   0.053549 0.727600 0.490404 -0.204755
C37   C     C_R   0.896719 0.275963 0.481182 -0.141817
C38   C     C_R   0.103360 0.725064 0.488355 -0.139666
O11   O     O_2   0.796650 0.283037 0.481620 -0.513616
O12   O     O_2   0.203429 0.717463 0.486795 -0.519452
C39   C     C_R   0.050924 0.270316 0.521388 -0.257615
C40   C     C_R   0.948933 0.730281 0.522524 -0.261699
H5    H     H_    0.650916 0.495007 0.729676 0.184221
H6    H     H_    0.348965 0.493169 0.270381 0.139682
H7    H     H_    0.877575 0.187467 0.470253 0.185795
H8    H     H_    0.122554 0.813686 0.479475 0.184817
H9    H     H_    0.962458 0.182042 0.471026 0.132558
H10   H     H_    0.037719 0.819438 0.479060 0.131805
H11   H     H_    0.033403 0.180440 0.534086 0.132659
H12   H     H_    0.966355 0.820125 0.536215 0.133250
C41   C     C_3   0.499133 0.041141 0.635320 -0.171815
C42   C     C_3   0.500870 0.958860 0.364682 -0.172007
C43   C     C_3   0.538853 0.956695 0.570269 -0.223344
C44   C     C_3   0.461149 0.043306 0.429733 -0.224872
H13   H     H_    0.570727 0.918891 0.626939 0.168165
H14   H     H_    0.429277 0.081112 0.373062 0.166219
H15   H     H_    0.498210 0.076444 0.746096 0.182923
H16   H     H_    0.501793 0.923558 0.253906 0.182867
C45   C     C_3   0.499429 0.876938 0.499414 -0.024682
C46   C     C_3   0.500574 0.123063 0.500588 -0.024234
C47   C     C_3   0.460226 0.959740 0.563473 0.022821
C48   C     C_3   0.539777 0.040262 0.436529 0.019223
C49   C     C_3   0.482534 0.604521 0.050583 -0.016420
C50   C     C_3   0.517470 0.395483 0.949412 -0.011229
C51   C     C_3   0.456707 0.512568 0.949043 -0.128122
C52   C     C_3   0.543295 0.487425 0.050959 -0.118162
H17   H     H_    0.420275 0.522454 0.902361 0.136924
H18   H     H_    0.579727 0.477520 0.097648 0.149048
H19   H     H_    0.468057 0.692332 0.097603 0.150103
H20   H     H_    0.531951 0.307679 0.902386 0.152183
N3    N     N_3   0.500040 0.499970 0.858290 -0.198048
N4    N     N_3   0.499960 0.500030 0.141710 -0.199478
C53   C     C_3   0.525543 0.590736 0.950708 0.108959
C54   C     C_3   0.474462 0.409255 0.049288 0.111146
C55   C     C_2   0.414819 0.918315 0.635189 0.381618
H21   H     H_    0.390643 0.988432 0.678154 0.077921
O13   O     O_2   0.404680 0.806841 0.645510 -0.535872
C56   C     C_2   0.585185 0.081690 0.364821 0.389096
H22   H     H_    0.609357 0.011575 0.321833 0.080817
O14   O     O_2   0.595329 0.193163 0.354537 -0.529938
C57   C     C_2   0.555817 0.694616 0.891015 0.395437
H23   H     H_    0.587130 0.672557 0.827531 0.066182
O15   O     O_2   0.545556 0.804318 0.913903 -0.558114
C58   C     C_2   0.444244 0.305247 0.108949 0.384572
H24   H     H_    0.412948 0.327152 0.172554 0.055416
O16   O     O_2   0.454540 0.195592 0.085918 -0.558660
N5    N     N_3   0.124803 0.148920 0.536456 -0.498797
H25   H     H_    0.113902 0.091851 0.451950 0.219479
H26   H     H_    0.113376 0.106169 0.630615 0.218088
N6    N     N_3   0.874982 0.851302 0.537279 -0.497492
H27   H     H_    0.886283 0.893119 0.632028 0.218558
H28   H     H_    0.885951 0.909262 0.453489 0.216335
C59   C     C_2   0.747110 0.495115 0.770733 0.411318
H29   H     H_    0.786094 0.495051 0.773380 0.074912
O17   O     O_2   0.725372 0.492090 0.883178 -0.554515
C60   C     C_2   0.254871 0.489084 0.226034 0.403857
H30   H     H_    0.276429 0.488620 0.130111 0.051260
O18   O     O_2   0.211198 0.485154 0.214362 -0.530706

loop_
_geom_bond_atom_site_label_1
_geom_bond_atom_site_label_2
_geom_bond_distance
_ccdc_geom_bond_type
C55   H21   1.084429 S    
C13   C15   1.391462 A    
C59   H29   1.084715 S    
N1    C17   1.433710 S    
C8    O11   1.350025 S    
C60   H30   1.085835 S    
C19   C34   1.423692 A    
O5    C3    1.304085 A    
C51   C54   1.529553 S    
N5    H26   1.045767 S    
C20   C33   1.423716 A    
C19   C25   1.410664 A    
C50   N3    1.484405 S    
O1    C1    1.290730 A    
C32   C39   1.412227 A    
C37   H7    1.083752 S    
C21   C23   1.410636 A    
C12   H5    1.083409 S    
C52   H18   1.109592 S    
C47   C55   1.497988 S    
C44   C47   1.540806 S    
C46   C48   1.528829 S    
C50   C54   1.531083 S    
N6    H27   1.045774 S    
C14   C28   1.403054 A    
O4    Cu1   1.956008 S    
C41   C43   1.552942 S    
Cu2   N4    2.028245 S    
C4    C28   1.473271 S    
C39   H11   1.076903 S    
C5    N1    1.366522 A    
C25   C38   1.395531 A    
C31   C33   1.417257 A    
C56   O14   1.219882 D    
C32   C34   1.417052 A    
C38   H8    1.083764 S    
C41   H15   1.110581 S    
C52   C53   1.529541 S    
O6    C4    1.304132 A    
C48   C56   1.497987 S    
C35   H9    1.076727 S    
C54   C58   1.495430 S    
C29   C35   1.414565 A    
Cu1   N3    2.028245 S    
C45   C47   1.528833 S    
C55   O13   1.219881 D    
Cu1   Cu2   2.699109 S    
C42   C45   1.538841 S    
C41   C46   1.538838 S    
O2    C2    1.290735 A    
C10   C59   1.484375 S    
C52   N4    1.485767 S    
C5    C21   1.414389 A    
C43   C48   1.540803 S    
C49   C51   1.543702 S    
C29   C32   1.422257 A    
C35   C37   1.386100 A    
C51   N3    1.485743 S    
C36   C38   1.386176 A    
C42   C48   1.539974 S    
C44   H14   1.110402 S    
C11   C27   1.405444 A    
C43   H13   1.110400 S    
C2    C45   1.450858 S    
C29   C33   1.421857 A    
C14   H2    1.082759 S    
C15   H3    1.083063 S    
C9    C17   1.415622 A    
C30   C36   1.414731 A    
O7    Cu2   1.951644 S    
C10   C18   1.410779 A    
C23   N5    1.434446 S    
O7    C3    1.302579 A    
C13   C27   1.402276 A    
N4    C54   1.479340 S    
C57   H23   1.084056 S    
C7    C25   1.400478 A    
C30   C34   1.422064 A    
C6    N2    1.366438 A    
C26   C37   1.395569 A    
C8    C26   1.400423 A    
C56   H22   1.084430 S    
C59   O17   1.221508 D    
C49   H19   1.110297 S    
C58   O16   1.220086 D    
C31   C40   1.412366 A    
C23   C39   1.395489 A    
O3    Cu2   1.956007 S    
O8    C4    1.302486 A    
C24   C40   1.395602 A    
C49   N4    1.484423 S    
O4    C2    1.292155 A    
C30   C31   1.422761 A    
C51   H17   1.109544 S    
N2    C8    1.363617 A    
C50   C52   1.543632 S    
C42   H16   1.110582 S    
C20   C26   1.410755 A    
C41   C47   1.539973 S    
O1    Cu1   1.956672 S    
C43   C45   1.536345 S    
C12   C28   1.405994 A    
N2    C18   1.433857 S    
C5    O9    1.348871 S    
O6    Cu2   1.951080 S    
C57   O15   1.220082 D    
C16   H4    1.083065 S    
C10   C12   1.403316 A    
O3    C1    1.292157 A    
O8    Cu1   1.951644 S    
C60   O18   1.220304 D    
C36   H10   1.076534 S    
N5    H25   1.045856 S    
C14   C16   1.391962 A    
C7    O12   1.350022 S    
C15   C17   1.399880 A    
C6    C22   1.414464 A    
C9    C60   1.485801 S    
C16   C18   1.399453 A    
C50   H20   1.110302 S    
C22   C24   1.410640 A    
C19   C21   1.415889 A    
N6    H28   1.045847 S    
C3    C27   1.473369 S    
C20   C22   1.415760 A    
C11   H6    1.083922 S    
C9    C11   1.401362 A    
C24   N6    1.434452 S    
C58   H24   1.083927 S    
O2    Cu2   1.956671 S    
C49   C53   1.531121 S    
C13   H1    1.082686 S    
O5    Cu1   1.951080 S    
C40   H12   1.076687 S    
C6    O10   1.348861 S    
N3    C53   1.479324 S    
C44   C46   1.536345 S    
C42   C44   1.552943 S    
C53   C57   1.495410 S    
C1    C46   1.450852 S    
N1    C7    1.363928 A    
