data_mof_unit_22490.cif
_audit_creation_date              2013-03-05T15:43:39-0500
_audit_creation_method            fapswitch 2.2
_symmetry_space_group_name_H-M    P1
_symmetry_Int_Tables_number       1
_space_group_crystal_system       triclinic
_cell_length_a                    15.940377
_cell_length_b                    10.901849
_cell_length_c                    9.815071
_cell_angle_alpha                 89.733498
_cell_angle_beta                  89.022078
_cell_angle_gamma                 91.074504
_cell_volume                      1705.08953911

loop_
_atom_site_label
_atom_site_type_symbol
_atom_site_description
_atom_site_fract_x
_atom_site_fract_y
_atom_site_fract_z
_atom_type_partial_charge
O1    O     O_R   0.500010 0.321960 0.617040 -0.583207
O2    O     O_R   0.499990 0.321920 0.382900 -0.538222
C1    C     C_R   0.501652 0.265584 0.499932 0.823736
O3    O     O_R   0.379450 0.500030 0.617120 -0.599082
O4    O     O_R   0.379420 0.499980 0.382980 -0.519985
C2    C     C_R   0.340773 0.499558 0.501216 0.818433
Cu1   Cu    Cu3+1 0.500020 0.500020 0.638630 0.985951
Cu2   Cu    Cu3+1 0.499980 0.499980 0.361370 1.102509
O5    O     O_R   0.500010 0.678080 0.617100 -0.596895
O6    O     O_R   0.499990 0.678040 0.382960 -0.551151
O7    O     O_R   0.620580 0.500020 0.617020 -0.545298
O8    O     O_R   0.620550 0.499970 0.382880 -0.546656
C3    C     C_R   0.506829 0.733761 0.499750 0.821057
C4    C     C_R   0.659413 0.500030 0.498824 0.778958
C5    C     C_3   0.045262 0.410518 0.599799 -0.557901
C6    C     C_3   0.055499 0.454070 0.342096 0.113125
C7    C     C_3   0.952132 0.426767 0.355827 0.127768
H1    H     H_    0.054577 0.316063 0.567349 0.257262
C8    C     C_1   0.748873 0.499830 0.495825 -0.054830
C9    C     C_3   0.084284 0.502846 0.491100 -0.121327
C10   C     C_3   0.950296 0.430187 0.620752 0.189357
C11   C     C_3   0.917202 0.500981 0.490408 -0.188599
C12   C     C_3   0.950936 0.641489 0.508872 0.287880
C13   C     C_3   0.052436 0.640384 0.529519 0.397911
C14   C     C_1   0.824367 0.499788 0.493071 0.184082
C15   C     C_1   0.176420 0.500733 0.501214 0.160235
C16   C     C_1   0.251653 0.499839 0.503649 -0.057542
H2    H     H_    0.076047 0.411780 0.699763 0.222956
H3    H     H_    0.945386 0.486984 0.713319 0.172550
C17   C     C_2   0.504858 0.933818 0.398135 -0.242030
C18   C     C_2   0.533531 0.861933 0.497868 -0.133646
H4    H     H_    0.460693 0.897662 0.324557 0.175506
C19   C     C_2   0.524515 0.065025 0.392064 0.036365
C20   C     C_2   0.499910 0.132584 0.499608 -0.332176
H5    H     H_    0.471646 0.087315 0.588222 0.148993
C21   C     C_2   0.451970 0.427089 0.924032 -0.018508
N1    N     N_2   0.499090 0.498660 0.846910 -0.283555
H6    H     H_    0.522483 0.578039 0.888632 0.232718
C22   C     C_2   0.446428 0.437148 0.078259 0.421555
N2    N     N_2   0.499070 0.498630 0.153040 -0.104700
N3    N     N_R   0.904341 0.314259 0.655371 0.172194
O9    O     O_R   0.823980 0.314797 0.680758 -0.403754
O10   O     O_R   0.944385 0.214558 0.684071 -0.324140
N4    N     N_R   0.924894 0.717193 0.390964 0.124697
O11   O     O_R   0.968538 0.727176 0.278739 -0.258634
O12   O     O_R   0.856601 0.780992 0.399895 -0.332691
C23   C     C_R   0.604810 0.899520 0.586752 0.094278
C24   C     C_R   0.601559 0.876982 0.728063 -0.151288
C25   C     C_R   0.672405 0.898257 0.807333 -0.171730
C26   C     C_R   0.745657 0.948343 0.748197 -0.027415
C27   C     C_R   0.749321 0.972925 0.608511 0.021030
C28   C     C_R   0.680096 0.946045 0.527697 -0.139396
H7    H     H_    0.544687 0.841943 0.777218 0.151940
H8    H     H_    0.670004 0.877759 0.915376 0.170189
H9    H     H_    0.799775 0.967138 0.810423 0.184592
H10   H     H_    0.806497 0.010135 0.562201 0.232036
H11   H     H_    0.686037 0.958818 0.418579 0.167675
C29   C     C_R   0.575236 0.112875 0.273868 0.159106
C30   C     C_R   0.646131 0.189134 0.294561 -0.121747
C31   C     C_R   0.696730 0.227256 0.184286 -0.017248
C32   C     C_R   0.678921 0.187090 0.053063 -0.050310
C33   C     C_R   0.609383 0.110738 0.031755 -0.187786
C34   C     C_R   0.557567 0.073629 0.141069 -0.102759
H12   H     H_    0.662817 0.218027 0.396144 0.133922
H13   H     H_    0.749494 0.288390 0.200443 0.177454
H14   H     H_    0.718357 0.216059 0.967600 0.158775
H15   H     H_    0.595476 0.080694 0.930014 0.137919
H16   H     H_    0.503898 0.014301 0.121801 0.137257
C35   C     C_R   0.395134 0.334596 0.862237 0.196812
C36   C     C_R   0.419686 0.212282 0.851337 -0.086044
C37   C     C_R   0.363593 0.122121 0.805295 -0.170202
C38   C     C_R   0.282370 0.153714 0.769541 -0.117807
C39   C     C_R   0.256574 0.274761 0.783597 -0.193952
C40   C     C_R   0.311910 0.364279 0.833179 -0.034873
H17   H     H_    0.482358 0.187543 0.877321 0.130236
H18   H     H_    0.383316 0.027966 0.796573 0.140136
H19   H     H_    0.239123 0.084251 0.732630 0.177915
H20   H     H_    0.193230 0.298599 0.758475 0.142744
H21   H     H_    0.290196 0.456939 0.847800 0.178054
N5    N     N_R   0.377156 0.375221 0.145157 0.110179
O13   O     O_R   0.303037 0.422838 0.141375 -0.349310
O14   O     O_R   0.384282 0.261271 0.182176 -0.396615
N6    N     N_R   0.577226 0.531194 0.097587 0.179855
O15   O     O_R   0.611267 0.635968 0.130507 -0.380427
O16   O     O_R   0.623532 0.449130 0.038861 -0.415341
N7    N     N_R   0.079412 0.552082 0.241060 0.146764
O17   O     O_R   0.157905 0.586855 0.232779 -0.256874
O18   O     O_R   0.036561 0.569893 0.131319 -0.296513
C41   C     C_R   0.106711 0.339436 0.287739 0.177789
C42   C     C_R   0.157871 0.262363 0.368912 -0.078654
C43   C     C_R   0.199918 0.162277 0.313667 -0.013275
C44   C     C_R   0.193974 0.135380 0.176031 0.020093
C45   C     C_R   0.147519 0.210332 0.092519 -0.104789
C46   C     C_R   0.106585 0.311813 0.146313 -0.079219
H22   H     H_    0.167700 0.274961 0.475733 0.092531
H23   H     H_    0.237485 0.105253 0.378476 0.141123
H24   H     H_    0.226315 0.057480 0.133739 0.151367
H25   H     H_    0.143274 0.190204 0.985090 0.149791
H26   H     H_    0.074970 0.368180 0.073961 0.178049
N8    N     N_R   0.930310 0.294302 0.384838 0.136465
O19   O     O_R   0.851560 0.260284 0.392911 -0.367057
O20   O     O_R   0.984742 0.207332 0.390248 -0.324085
C47   C     C_R   0.905064 0.447528 0.218415 0.149163
C48   C     C_R   0.847115 0.541281 0.191470 -0.076092
C49   C     C_R   0.809253 0.552517 0.064862 0.004695
C50   C     C_R   0.822063 0.464847 0.964972 -0.023304
C51   C     C_R   0.873082 0.365999 0.991683 -0.198483
C52   C     C_R   0.913565 0.357387 0.115581 -0.138199
H27   H     H_    0.826626 0.604773 0.265888 0.175235
H28   H     H_    0.767546 0.627577 0.045799 0.191434
H29   H     H_    0.789636 0.471206 0.869477 0.212276
H30   H     H_    0.879711 0.292930 0.919034 0.214620
H31   H     H_    0.948263 0.274964 0.132980 0.179150
N9    N     N_R   0.074253 0.670294 0.674110 0.135956
O21   O     O_R   0.124665 0.603064 0.744166 -0.371098
O22   O     O_R   0.066075 0.782242 0.717236 -0.217793
N10   N     N_R   0.095438 0.739225 0.447641 0.191027
O23   O     O_R   0.062165 0.847520 0.445707 -0.217301
O24   O     O_R   0.176725 0.739023 0.433595 -0.321238
N11   N     N_R   0.911142 0.701249 0.630645 0.152638
O25   O     O_R   0.918884 0.819782 0.643876 -0.234374
O26   O     O_R   0.854393 0.646631 0.707483 -0.410940

loop_
_geom_bond_atom_site_label_1
_geom_bond_atom_site_label_2
_geom_bond_distance
_ccdc_geom_bond_type
C5    H1    1.091328 S    
C49   H28   1.081578 S    
N3    O9    1.300943 A    
C13   N9    1.502741 S    
C19   C29   1.489355 S    
C39   C40   1.397880 A    
N9    O21   1.300781 A    
C5    H2    1.104526 S    
Cu1   Cu2   2.721339 S    
N11   O25   1.303107 A    
Cu1   O7    1.929840 S    
C15   C16   1.200108 T    
C45   C46   1.396159 A    
C33   H15   1.077722 S    
N6    O15   1.299889 A    
C21   N1    1.303482 D    
N1    H6    1.025684 S    
C20   H5    1.085038 S    
N10   O24   1.300756 A    
O4    C2    1.304502 A    
O7    C4    1.305564 A    
N7    O18   1.300996 A    
C50   C51   1.388860 A    
C25   H8    1.082615 S    
C27   H10   1.082635 S    
C51   H30   1.077051 S    
C41   C46   1.421788 A    
O5    C3    1.301415 A    
N8    O19   1.303254 A    
C47   C48   1.417416 A    
C38   H19   1.082341 S    
C43   H23   1.083034 S    
C32   H14   1.081955 S    
C12   N11   1.500738 S    
C9    C13   1.635683 S    
N11   O26   1.301521 A    
C6    C7    1.671929 S    
C11   C14   1.479434 S    
C12   C13   1.634278 S    
C36   C37   1.398149 A    
C32   C33   1.392905 A    
C2    C16   1.420451 S    
C6    C9    1.628854 S    
C6    C41   1.594512 S    
C18   C23   1.496551 S    
C10   C11   1.593660 S    
C6    N7    1.494113 S    
N3    O10   1.302887 A    
N2    N6    1.390268 S    
C5    C9    1.575496 S    
O3    Cu1   1.937071 S    
C48   C49   1.396587 A    
N4    O12   1.304705 A    
C44   H24   1.082448 S    
C26   C27   1.395789 A    
C50   H29   1.080643 S    
Cu1   N1    2.044067 S    
C24   H7    1.082090 S    
C27   C28   1.397351 A    
C42   H22   1.071824 S    
O3    C2    1.303135 A    
C43   C44   1.388140 A    
N7    O17   1.301658 A    
N5    O13   1.300418 A    
C1    C20   1.449709 S    
C29   C30   1.408445 A    
C39   H20   1.079654 S    
C10   H3    1.104364 S    
C12   N4    1.487656 S    
C31   C32   1.394366 A    
O1    C1    1.306043 A    
C52   H31   1.078391 S    
C33   C34   1.396513 A    
C23   C24   1.407363 A    
C5    C10   1.543309 S    
C17   C18   1.342699 D    
Cu2   O8    1.937073 S    
N8    O20   1.298684 A    
C19   C20   1.347003 D    
C13   N10   1.490729 S    
C35   C40   1.405038 A    
C47   C52   1.418582 A    
C10   N3    1.483948 S    
N5    O14   1.300248 A    
C24   C25   1.398680 A    
N6    O16   1.300969 A    
O8    C4    1.304942 A    
C31   H13   1.077609 S    
C40   H21   1.083326 S    
C51   C52   1.389982 A    
C37   H18   1.082502 S    
C22   N2    1.302548 D    
C21   C35   1.481763 S    
C29   C34   1.405174 A    
Cu1   O5    1.951676 S    
C34   H16   1.082539 S    
C17   C19   1.459297 S    
O1    Cu1   1.953692 S    
C4    C8    1.425872 S    
C3    C18   1.452991 S    
C21   C22   1.519414 S    
O2    Cu2   1.951678 S    
N4    O11   1.295767 A    
C26   H9    1.082451 S    
C38   C39   1.396305 A    
O6    C3    1.305057 A    
O4    Cu2   1.929841 S    
N9    O22   1.301730 A    
C23   C28   1.408599 A    
C49   C50   1.387668 A    
C7    C11   1.646572 S    
C22   N5    1.431567 S    
O2    C1    1.300938 A    
C7    C47   1.572014 S    
C37   C38   1.396127 A    
N10   O23   1.303501 A    
C17   H4    1.087255 S    
C42   C43   1.397977 A    
C48   H27   1.060351 S    
C9    C15   1.474327 S    
C46   H26   1.075011 S    
C44   C45   1.387476 A    
C35   C36   1.400779 A    
C8    C14   1.203244 T    
C7    N8    1.503828 S    
C28   H11   1.081685 S    
C30   H12   1.082993 S    
C30   C31   1.395784 A    
Cu2   O6    1.953691 S    
C25   C26   1.395891 A    
C36   H17   1.074232 S    
C11   C12   1.625847 S    
Cu2   N2    2.045193 S    
C41   C42   1.430898 A    
C45   H25   1.080996 S    
