data_mof_unit_49967.cif
_audit_creation_date              2012-12-10T19:37:59-0500
_audit_creation_method            fapswitch 2.2
_symmetry_space_group_name_H-M    P1
_symmetry_Int_Tables_number       1
_space_group_crystal_system       triclinic
_cell_length_a                    10.804878
_cell_length_b                    15.798766
_cell_length_c                    16.990129
_cell_angle_alpha                 95.844036
_cell_angle_beta                  90.867134
_cell_angle_gamma                 92.135819
_cell_volume                      2882.67799383

loop_
_atom_site_label
_atom_site_type_symbol
_atom_type_description
_atom_site_fract_x
_atom_site_fract_y
_atom_site_fract_z
_atom_type_partial_charge
C1    C     C_R   0.499707 0.490155 0.348304 0.831731
C2    C     C_3   0.878980 0.497842 0.493675 -0.225563
C3    C     C_3   0.933716 0.534218 0.576838 0.267938
C4    C     C_3   0.930764 0.555999 0.428601 -0.210464
C5    C     C_R   0.501091 0.487248 0.261784 -0.090915
C6    C     C_R   0.531412 0.561741 0.226694 -0.182033
C7    C     C_R   0.532822 0.560818 0.145037 -0.214640
C8    C     C_R   0.502619 0.485090 0.096408 0.261112
C9    C     C_R   0.467502 0.410918 0.131332 0.445162
C10   C     C_R   0.470859 0.411656 0.213748 -0.309522
C11   C     C_R   0.589733 0.463138 0.857213 -0.175361
C12   C     C_R   0.259945 0.499771 0.497583 0.873525
C13   C     C_R   0.551133 0.448745 0.777460 0.375414
C14   C     C_R   0.551673 0.536742 0.902862 0.136342
C15   C     C_R   0.499444 0.515441 0.739521 -0.277225
C16   C     C_R   0.463293 0.590043 0.785829 -0.185429
C17   C     C_R   0.495655 0.601804 0.866903 0.387280
C18   C     C_R   0.469251 0.749517 0.446703 0.028446
C19   C     C_R   0.458753 0.838399 0.449285 -0.351417
C20   C     C_R   0.490342 0.890729 0.519173 0.306204
C21   C     C_R   0.532797 0.851928 0.584345 0.268761
C22   C     C_R   0.554170 0.763565 0.576629 0.070979
C23   C     C_R   0.496285 0.510015 0.651931 0.903370
C24   C     C_R   0.557471 0.158359 0.536915 -0.134885
C25   C     C_R   0.555074 0.248153 0.541606 0.028563
C26   C     C_R   0.481546 0.108840 0.478543 0.291284
C27   C     C_R   0.412308 0.241512 0.434249 -0.006593
C28   C     C_R   0.410108 0.152265 0.427224 -0.290639
C29   C     C_R   0.740405 0.499163 0.497181 0.859439
C30   C     C_3   0.068366 0.403824 0.491707 0.264947
C31   C     C_3   0.927432 0.404156 0.472522 0.415501
C32   C     C_3   0.075695 0.547669 0.571280 -0.362580
C33   C     C_3   0.072763 0.536475 0.418499 0.230439
C34   C     C_3   0.122507 0.498133 0.494764 -0.148808
Cu1   Cu    Cu3+1 0.493900 0.415220 0.496180 0.943061
Cu2   Cu    Cu3+1 0.506100 0.584780 0.503820 1.012011
H1    H     H_    0.101871 0.616386 0.572362 0.224941
H2    H     H_    0.896153 0.598056 0.593373 0.138660
H3    H     H_    0.447251 0.353578 0.239922 0.169203
H4    H     H_    0.556878 0.619573 0.120221 0.175147
H5    H     H_    0.111335 0.365650 0.441011 -0.016570
H6    H     H_    0.554942 0.621088 0.262390 0.186405
H7    H     H_    0.614492 0.286969 0.583864 0.225690
H8    H     H_    0.356905 0.273845 0.393934 0.129198
H9    H     H_    0.423477 0.865357 0.397733 0.177293
H10   H     H_    0.352901 0.116835 0.381403 0.149773
H11   H     H_    0.440520 0.710652 0.393635 0.144983
H12   H     H_    0.916376 0.389966 0.407732 -0.066493
H13   H     H_    0.121914 0.526130 0.624351 0.229271
H14   H     H_    0.082108 0.483430 0.370433 -0.002878
N1    N     N_2   0.503165 0.481429 0.012684 -0.245777
N2    N     N_2   0.557561 0.543349 0.986382 -0.226718
N3    N     N_R   0.515260 0.712130 0.509560 -0.194968
N4    N     N_2   0.482459 0.981708 0.527950 -0.231341
N5    N     N_2   0.480728 0.017398 0.465607 -0.249457
N6    N     N_R   0.484730 0.287850 0.490450 -0.214320
O1    O     O_R   0.494300 0.420530 0.382500 -0.607776
O2    O     O_R   0.504600 0.563720 0.388950 -0.594008
O3    O     O_R   0.312540 0.428400 0.496760 -0.630082
O4    O     O_R   0.322840 0.571590 0.503210 -0.512218
O5    O     O_R   0.495400 0.436280 0.611050 -0.577734
O6    O     O_R   0.505700 0.579470 0.617500 -0.557232
O7    O     O_R   0.677160 0.428410 0.496790 -0.538990
O8    O     O_R   0.687460 0.571600 0.503240 -0.573679
O9    O     O_3   0.087744 0.370623 0.565998 -0.527302
C35   C     C_3   0.158213 0.296258 0.560589 0.105587
H15   H     H_    0.256323 0.314434 0.576296 0.174520
H16   H     H_    0.154926 0.259576 0.501117 0.104899
C36   C     C_3   0.111472 0.237444 0.620598 -0.315774
H17   H     H_    0.127639 0.269468 0.681377 0.225835
H18   H     H_    0.010333 0.224089 0.611624 0.254301
C37   C     C_3   0.177653 0.153305 0.612143 -0.938467
H19   H     H_    0.155874 0.117959 0.553364 0.265335
H20   H     H_    0.146280 0.113433 0.658740 0.271513
H21   H     H_    0.279520 0.164952 0.618259 0.253189
C38   C     C_2   0.910613 0.651151 0.453585 0.492794
H22   H     H_    0.819593 0.676679 0.447394 0.136584
O10   O     O_2   0.993929 0.700471 0.480596 -0.530795
O11   O     O_3   0.564119 0.368994 0.736937 -0.544471
C39   C     C_3   0.450395 0.321037 0.738737 0.138359
H23   H     H_    0.446778 0.272799 0.686524 0.159047
H24   H     H_    0.367393 0.360213 0.733063 0.112403
C40   C     C_3   0.442134 0.273889 0.813283 -0.315759
H25   H     H_    0.524849 0.234808 0.817806 0.277444
H26   H     H_    0.439081 0.320380 0.866712 0.214280
C41   C     C_3   0.326176 0.215736 0.811461 -0.958447
H27   H     H_    0.241818 0.253416 0.808501 0.263365
H28   H     H_    0.323382 0.182558 0.866001 0.267094
H29   H     H_    0.327340 0.167196 0.759618 0.270413
C42   C     C_2   0.673264 0.403676 0.892920 0.396774
H30   H     H_    0.698084 0.413239 0.955339 0.103057
O12   O     O_2   0.720207 0.345382 0.852656 -0.497572
O13   O     O_3   0.438678 0.335279 0.085163 -0.608660
C43   C     C_3   0.315165 0.335400 0.056044 0.070234
H31   H     H_    0.308974 0.292578 0.999939 0.177033
H32   H     H_    0.287005 0.399167 0.040981 0.138517
C44   C     C_3   0.224676 0.300983 0.114861 -0.393182
H33   H     H_    0.253425 0.237359 0.129059 0.233266
H34   H     H_    0.226178 0.344570 0.170500 0.204245
C45   C     C_3   0.092636 0.293117 0.081040 -0.883537
H35   H     H_    0.061382 0.356372 0.067594 0.257754
H36   H     H_    0.029400 0.268341 0.125006 0.254812
H37   H     H_    0.087631 0.248399 0.026119 0.264097
C46   C     C_2   0.380801 0.652434 0.753971 0.399199
H38   H     H_    0.378744 0.717029 0.782165 0.067644
O14   O     O_2   0.308659 0.631255 0.698895 -0.575596
O15   O     O_3   0.460368 0.673394 0.913931 -0.595176
C47   C     C_3   0.547629 0.741484 0.907493 0.026502
H39   H     H_    0.497240 0.801676 0.915944 0.164527
H40   H     H_    0.590455 0.740128 0.848002 0.100141
C48   C     C_3   0.648723 0.743745 0.971969 -0.323714
H41   H     H_    0.605277 0.747383 0.031035 0.227532
H42   H     H_    0.701785 0.684755 0.963863 0.224242
C49   C     C_3   0.738593 0.820076 0.968845 -0.906169
H43   H     H_    0.784753 0.816644 0.910671 0.262814
H44   H     H_    0.810647 0.819967 0.016127 0.259552
H45   H     H_    0.688684 0.880389 0.978167 0.258880
C50   C     C_2   0.646963 0.119639 0.588482 0.343141
H46   H     H_    0.678193 0.055852 0.572882 0.137174
O16   O     O_2   0.689289 0.159618 0.648834 -0.518921
O17   O     O_3   0.567899 0.902859 0.652921 -0.607965
C51   C     C_3   0.475106 0.897603 0.710495 0.039523
H47   H     H_    0.522353 0.902545 0.769429 0.163693
H48   H     H_    0.420531 0.835817 0.704422 0.106263
C52   C     C_3   0.387129 0.971231 0.708799 -0.308167
H49   H     H_    0.441605 0.032685 0.713387 0.243896
H50   H     H_    0.333618 0.964281 0.652035 0.229628
C53   C     C_3   0.296181 0.972224 0.776726 -0.918076
H51   H     H_    0.242420 0.910629 0.773948 0.265959
H52   H     H_    0.230331 0.023868 0.772323 0.262500
H53   H     H_    0.346693 0.983642 0.834490 0.258001
C54   C     C_2   0.627719 0.731243 0.639991 0.489179
H54   H     H_    0.606934 0.748583 0.701584 0.000502
O18   O     O_2   0.718244 0.689755 0.624228 -0.586946
O19   O     O_3   0.861337 0.340705 0.510596 -0.511931
C55   C     C_3   0.867117 0.258778 0.467571 0.091065
H55   H     H_    0.841475 0.211190 0.508834 0.174328
H56   H     H_    0.962121 0.244585 0.447709 0.101672
C56   C     C_3   0.777805 0.246498 0.395410 -0.393555
H57   H     H_    0.686357 0.271290 0.411343 0.262848
H58   H     H_    0.813281 0.281764 0.346680 0.199486
C57   C     C_3   0.762449 0.152774 0.363460 -0.890942
H59   H     H_    0.852643 0.128490 0.342538 0.252825
H60   H     H_    0.695052 0.145655 0.313010 0.264572
H61   H     H_    0.727596 0.114008 0.409935 0.256471
O20   O     O_3   0.907562 0.475910 0.633620 -0.522168
C58   C     C_3   0.842641 0.513337 0.699108 0.103355
H62   H     H_    0.805795 0.460806 0.731781 0.215793
H63   H     H_    0.761072 0.547404 0.679952 0.143574
C59   C     C_3   0.928311 0.571768 0.755597 -0.362680
H64   H     H_    0.006816 0.535010 0.775217 0.240197
H65   H     H_    0.966806 0.625440 0.724972 0.229871
C60   C     C_3   0.858732 0.608538 0.827901 -0.901503
H66   H     H_    0.777310 0.643169 0.809421 0.254458
H67   H     H_    0.921049 0.653752 0.865646 0.266750
H68   H     H_    0.827269 0.556860 0.863351 0.250285
O21   O     O_3   0.146917 0.607472 0.398833 -0.540163
C61   C     C_3   0.126809 0.622272 0.318585 0.128074
H69   H     H_    0.040048 0.656955 0.312980 0.184814
H70   H     H_    0.120705 0.562298 0.277790 0.106127
C62   C     C_3   0.234111 0.676843 0.291490 -0.363878
H71   H     H_    0.243011 0.737698 0.330537 0.232288
H72   H     H_    0.320463 0.641665 0.295430 0.213988
C63   C     C_3   0.215340 0.696191 0.206030 -0.903436
H73   H     H_    0.208956 0.636158 0.165726 0.261590
H74   H     H_    0.295361 0.735736 0.188413 0.259210
H75   H     H_    0.129494 0.731722 0.199952 0.261578
C64   C     C_2   0.863951 0.532049 0.348620 0.207278
H76   H     H_    0.877143 0.470897 0.315379 0.087249
O22   O     O_2   0.796134 0.581004 0.319274 -0.567796

loop_
_geom_bond_atom_site_label_1
_geom_bond_atom_site_label_2
_ccdc_geom_bond_type
C35   H16   S    
C13   O11   S    
C20   N4    S    
O13   C43   S    
C11   C13   A    
C48   H41   S    
C14   C17   A    
C25   N6    A    
C53   H51   S    
C25   H7    S    
C46   O14   D    
C62   H71   S    
C7    C8    A    
C48   H42   S    
C28   H10   S    
O21   C61   S    
C2    C29   S    
C1    C5    S    
C5    C6    A    
C63   H73   S    
C58   H63   S    
C24   C26   A    
Cu2   O2    S    
C17   O15   S    
C30   C31   S    
C39   H23   S    
C56   C57   S    
C41   H28   S    
C35   C36   S    
C15   C16   A    
C62   C63   S    
C47   H39   S    
Cu1   O3    S    
C18   C19   A    
C36   H18   S    
C50   H46   S    
C45   H35   S    
Cu2   N3    S    
C18   N3    A    
C44   H34   S    
C4    C33   S    
C12   O3    A    
C27   H8    S    
C16   C46   S    
C23   O6    A    
C14   N2    S    
C58   H62   S    
C3    H2    S    
C16   C17   A    
C59   C60   S    
C52   C53   S    
O15   C47   S    
C30   H5    S    
C60   H67   S    
C9    C10   A    
C61   C62   S    
C64   O22   D    
C35   H15   S    
C29   O8    A    
C21   C22   A    
C18   H11   S    
C61   H70   S    
C57   H61   S    
C36   H17   S    
C55   C56   S    
Cu2   O6    S    
C46   H38   S    
C62   H72   S    
C33   O21   S    
C44   H33   S    
C22   N3    A    
C2    C31   S    
C57   H59   S    
C30   C34   S    
N1    N2    D    
C49   H45   S    
O19   C55   S    
C58   C59   S    
C38   H22   S    
C31   O19   S    
C27   N6    A    
C8    C9    A    
C43   C44   S    
C33   H14   S    
C45   H37   S    
C4    C64   S    
C10   H3    S    
Cu1   Cu2   S    
C32   C34   S    
C36   C37   S    
C2    C4    S    
C1    O1    A    
C42   O12   D    
C40   H25   S    
C7    H4    S    
C45   H36   S    
C33   C34   S    
C43   H31   S    
Cu1   O5    S    
C32   H1    S    
C24   C25   A    
C60   H68   S    
C43   H32   S    
C8    N1    S    
O17   C51   S    
C39   H24   S    
C37   H20   S    
C64   H76   S    
C40   H26   S    
C31   H12   S    
C13   C15   A    
C52   H49   S    
C59   H65   S    
C12   C34   S    
C53   H53   S    
C9    O13   S    
C44   C45   S    
C55   H56   S    
C39   C40   S    
O20   C58   S    
N4    N5    D    
C22   C54   S    
Cu1   N6    S    
C41   H27   S    
C24   C50   S    
C63   H75   S    
C38   O10   D    
C37   H19   S    
Cu2   O4    S    
C41   H29   S    
C53   H52   S    
C49   H44   S    
C56   H57   S    
C19   H9    S    
C49   H43   S    
C6    C7    A    
C26   C28   A    
C47   C48   S    
Cu1   O1    S    
C19   C20   A    
C63   H74   S    
C2    C3    S    
C60   H66   S    
C5    C10   A    
C1    O2    A    
C56   H58   S    
C11   C42   S    
C37   H21   S    
C42   H30   S    
C61   H69   S    
C51   C52   S    
C15   C23   S    
C29   O7    A    
C11   C14   A    
C26   N5    S    
C47   H40   S    
C54   H54   S    
C48   C49   S    
C57   H60   S    
C21   O17   S    
C3    C32   S    
C50   O16   D    
C32   H13   S    
C4    C38   S    
C30   O9    S    
O11   C39   S    
C12   O4    A    
C23   O5    A    
C40   C41   S    
C20   C21   A    
C3    O20   S    
C54   O18   D    
O9    C35   S    
C6    H6    S    
C27   C28   A    
C52   H50   S    
C59   H64   S    
C55   H55   S    
Cu1   O7    S    
C51   H47   S    
Cu2   O8    S    
C51   H48   S    
