data_mof_unit_61150.cif
_audit_creation_date              2012-12-11T14:24:10-0500
_audit_creation_method            fapswitch 2.2
_symmetry_space_group_name_H-M    P1
_symmetry_Int_Tables_number       1
_space_group_crystal_system       triclinic
_cell_length_a                    6.954145
_cell_length_b                    17.452201
_cell_length_c                    18.861534
_cell_angle_alpha                 105.416148
_cell_angle_beta                  89.719946
_cell_angle_gamma                 90.472101
_cell_volume                      2206.68729781

loop_
_atom_site_label
_atom_site_type_symbol
_atom_type_description
_atom_site_fract_x
_atom_site_fract_y
_atom_site_fract_z
_atom_type_partial_charge
O1    O     O_R   0.494360 0.416740 0.414860 -0.539069
O2    O     O_R   0.818980 0.432970 0.557290 -0.525760
O3    O     O_R   0.994290 0.583260 0.585140 -0.538670
C1    C     C_R   0.649991 0.415970 0.580633 0.718347
O4    O     O_R   0.823740 0.407570 0.413690 -0.537212
O5    O     O_R   0.999090 0.557670 0.440510 -0.522565
C2    C     C_R   0.654414 0.385001 0.386517 0.745963
O6    O     O_R   0.489560 0.442330 0.559490 -0.522135
O7    O     O_3   0.662450 0.549280 0.508970 -0.362404
V1    V     V_3+5 0.935350 0.490860 0.498340 1.409952
O8    O     O_R   0.329100 0.567030 0.442710 -0.524921
C3    C     C_R   0.160957 0.584046 0.419379 0.717753
O9    O     O_R   0.324330 0.592430 0.586310 -0.537505
C4    C     C_R   0.154962 0.614985 0.613472 0.745581
V2    V     V_3+5 0.435960 0.509140 0.501660 1.409124
O10   O     O_3   0.158990 0.450720 0.491030 -0.362462
C5    C     C_2   0.278513 0.788493 0.784965 -0.127438
C6    C     C_2   0.113567 0.817150 0.819738 -0.312173
H1    H     H_    0.414315 0.815594 0.806941 0.136835
H2    H     H_    0.976020 0.791027 0.799588 0.128297
C7    C     C_2   0.291054 0.720609 0.717439 -0.133186
C8    C     C_2   0.138275 0.682454 0.680028 -0.309694
H3    H     H_    0.434793 0.701923 0.697860 0.134864
H4    H     H_    0.993427 0.700231 0.697997 0.130109
C9    C     C_1   0.110683 0.863915 0.132635 -0.211785
C10   C     C_1   0.118261 0.821341 0.176196 0.001609
C11   C     C_1   0.127793 0.771124 0.228084 0.000186
C12   C     C_1   0.135944 0.728839 0.271882 0.000185
C13   C     C_1   0.145476 0.678621 0.323769 0.001600
C14   C     C_1   0.153054 0.636046 0.367328 -0.211884
C15   C     C_1   0.641338 0.364040 0.632678 -0.211832
C16   C     C_1   0.636947 0.321455 0.676252 0.001262
C17   C     C_1   0.633246 0.271213 0.728141 0.000305
C18   C     C_1   0.630442 0.228889 0.771951 0.000307
C19   C     C_1   0.626744 0.178644 0.823836 0.001275
C20   C     C_1   0.622362 0.136048 0.867401 -0.211659
C21   C     C_2   0.778420 0.211699 0.215329 -0.128372
C22   C     C_2   0.613892 0.182859 0.180222 -0.311761
H5    H     H_    0.914103 0.184767 0.193661 0.136718
H6    H     H_    0.476559 0.208840 0.200097 0.128529
C23   C     C_2   0.790434 0.279600 0.282860 -0.132283
C24   C     C_2   0.637455 0.317536 0.319943 -0.310134
H7    H     H_    0.934066 0.298499 0.302749 0.135060
H8    H     H_    0.492614 0.299594 0.301729 0.129717
O11   O     O_R   0.774180 0.057760 0.940580 -0.522047
O12   O     O_R   0.439830 0.092440 0.086330 -0.541546
O13   O     O_R   0.264640 0.942310 0.059470 -0.522438
C25   C     C_R   0.608561 0.115067 0.113546 0.746254
O14   O     O_R   0.444740 0.067040 0.942730 -0.525770
O15   O     O_R   0.269590 0.916730 0.914840 -0.534492
C26   C     C_R   0.613729 0.084091 0.919422 0.718163
O16   O     O_R   0.769230 0.083340 0.085210 -0.534990
O17   O     O_3   0.601340 0.950770 0.991070 -0.362525
V3    V     V_3+5 0.328370 0.009130 0.001660 1.409008
O18   O     O_R   0.939550 0.907490 0.913620 -0.542097
C27   C     C_R   0.108403 0.884945 0.886451 0.745442
O19   O     O_R   0.934640 0.932890 0.057220 -0.524979
C28   C     C_R   0.102778 0.915911 0.080582 0.717590
V4    V     V_3+5 0.827780 0.990750 0.998250 1.408160
O20   O     O_3   0.104690 0.049230 0.008930 -0.362403

loop_
_geom_bond_atom_site_label_1
_geom_bond_atom_site_label_2
_ccdc_geom_bond_type
O5    V1    S    
O2    C1    A    
O8    C3    A    
C21   C22   D    
O1    V2    S    
O16   V4    S    
O18   V4    S    
C13   C14   T    
C23   C24   D    
C22   C25   S    
C19   C20   T    
C6    C27   S    
O18   C27   A    
C11   C12   T    
C16   C17   S    
O12   V3    S    
O8    V2    S    
O9    V2    S    
C5    C6    D    
O17   V4    S    
V4    O20   S    
C21   H5    S    
O3    V1    S    
V3    O20   S    
O17   V3    S    
O13   C28   A    
C22   H6    S    
C23   H7    S    
C4    C8    S    
O19   C28   A    
O15   V3    S    
C20   C26   S    
C24   H8    S    
O3    C4    A    
O13   V3    S    
O1    C2    A    
O4    V1    S    
C12   C13   S    
C5    H1    S    
C17   C18   T    
O6    V2    S    
C6    H2    S    
C7    H3    S    
O5    C3    A    
C8    H4    S    
O19   V4    S    
C1    C15   S    
C9    C28   S    
O11   C26   A    
V2    O10   S    
O2    V1    S    
O12   C25   A    
C25   O16   A    
C18   C19   S    
O7    V1    S    
C2    C24   S    
C1    O6    A    
O4    C2    A    
O11   V4    S    
C10   C11   S    
V1    O10   S    
O9    C4    A    
C3    C14   S    
C9    C10   T    
C7    C8    D    
C21   C23   S    
C15   C16   T    
O15   C27   A    
O14   V3    S    
O7    V2    S    
O14   C26   A    
C5    C7    S    
