data_mof_unit_52728.cif
_audit_creation_date              2012-12-10T18:47:09-0500
_audit_creation_method            fapswitch 2.2
_symmetry_space_group_name_H-M    P1
_symmetry_Int_Tables_number       1
_space_group_crystal_system       triclinic
_cell_length_a                    10.724713
_cell_length_b                    9.805958
_cell_length_c                    15.053184
_cell_angle_alpha                 90.631491
_cell_angle_beta                  90.005198
_cell_angle_gamma                 89.994992
_cell_volume                      1582.98826716

loop_
_atom_site_label
_atom_site_type_symbol
_atom_type_description
_atom_site_fract_x
_atom_site_fract_y
_atom_site_fract_z
_atom_type_partial_charge
C1    C     C_R   0.259752 0.499999 0.499796 0.856111
C2    C     C_R   0.740248 0.500001 0.500203 0.856114
C3    C     C_R   0.476612 0.746057 0.050772 -0.212695
C4    C     C_R   0.523366 0.253937 0.949228 -0.212696
C5    C     C_R   0.063834 0.375671 0.496179 -0.194486
C6    C     C_R   0.936166 0.624329 0.503820 -0.194487
C7    C     C_R   0.936176 0.375657 0.496441 -0.206002
C8    C     C_R   0.063824 0.624342 0.503558 -0.206003
C9    C     C_R   0.872644 0.499989 0.500193 -0.006935
C10   C     C_R   0.127356 0.500011 0.499806 -0.006934
C11   C     C_R   0.571562 0.073049 0.559203 -0.095888
C12   C     C_R   0.428437 0.926951 0.440797 -0.095887
C13   C     C_R   0.428505 0.071096 0.440756 -0.048280
C14   C     C_R   0.571494 0.928904 0.559244 -0.048277
C15   C     C_R   0.503771 0.498969 0.326462 0.929662
C16   C     C_R   0.496228 0.501030 0.673538 0.929659
C17   C     C_R   0.505646 0.380035 0.813884 -0.348335
C18   C     C_R   0.494341 0.619961 0.186116 -0.348341
C19   C     C_R   0.489163 0.503149 0.769516 -0.184149
C20   C     C_R   0.510830 0.496850 0.230484 -0.184145
C21   C     C_R   0.466801 0.625707 0.816988 0.444262
C22   C     C_R   0.533191 0.374292 0.183012 0.444266
C23   C     C_R   0.477143 0.625718 0.909644 -0.013878
C24   C     C_R   0.522842 0.374278 0.090356 -0.013878
C25   C     C_R   0.496080 0.500871 0.953740 0.029540
C26   C     C_R   0.503903 0.499124 0.046260 0.029538
C27   C     C_R   0.507579 0.377688 0.905472 0.129448
C28   C     C_R   0.492404 0.622307 0.094528 0.129449
C29   C     C_R   0.469896 0.748004 0.958852 -0.211470
C30   C     C_R   0.530085 0.251991 0.041148 -0.211468
H1    H     H_    0.519221 0.285387 0.777140 0.186459
H2    H     H_    0.480766 0.714609 0.222860 0.186459
H3    H     H_    0.458912 0.845538 0.926770 0.167728
H4    H     H_    0.541068 0.154457 0.073231 0.167728
H5    H     H_    0.469038 0.841291 0.087660 0.142491
H6    H     H_    0.530937 0.158702 0.912340 0.142491
H7    H     H_    0.112284 0.278760 0.493064 0.155523
H8    H     H_    0.887715 0.721240 0.506935 0.155523
H9    H     H_    0.887738 0.278740 0.493548 0.158060
H10   H     H_    0.112262 0.721260 0.506451 0.158061
H11   H     H_    0.628740 0.128692 0.606413 0.130303
H12   H     H_    0.371260 0.871308 0.393587 0.130303
H13   H     H_    0.371463 0.125193 0.393482 0.143031
H14   H     H_    0.628537 0.874807 0.606518 0.143030
N1    N     N_R   0.500000 0.857200 0.500000 -0.086957
N2    N     N_R   0.500000 0.142800 0.500000 -0.086959
O1    O     O_R   0.316770 0.614620 0.499990 -0.637953
O2    O     O_R   0.683230 0.385380 0.500010 -0.637954
O3    O     O_R   0.683230 0.614620 0.500010 -0.630980
O4    O     O_R   0.316770 0.385380 0.499990 -0.630980
O5    O     O_R   0.499980 0.614680 0.367850 -0.637249
O6    O     O_R   0.500020 0.385320 0.632150 -0.637248
O7    O     O_R   0.500020 0.614680 0.632150 -0.565010
O8    O     O_R   0.499980 0.385320 0.367850 -0.565012
Zn1   Zn    Zn3+2 0.500000 0.653120 0.500000 0.949587
Zn2   Zn    Zn3+2 0.500000 0.346880 0.500000 0.949586
O9    O     O_3   0.442603 0.746159 0.772497 -0.609841
C31   C     C_3   0.314600 0.781092 0.780224 0.065740
H15   H     H_    0.308353 0.892921 0.791868 0.158326
H16   H     H_    0.265170 0.731943 0.836777 0.125431
C32   C     C_3   0.245814 0.747309 0.694339 -0.788844
H17   H     H_    0.245577 0.635364 0.682662 0.236160
H18   H     H_    0.147773 0.783044 0.699090 0.195377
H19   H     H_    0.291536 0.798819 0.637663 0.275713
O10   O     O_3   0.557389 0.253841 0.227502 -0.609844
C33   C     C_3   0.685390 0.218905 0.219772 0.065740
H20   H     H_    0.734820 0.268054 0.163217 0.125431
H21   H     H_    0.691636 0.107077 0.208127 0.158327
C34   C     C_3   0.754179 0.252687 0.305655 -0.788847
H22   H     H_    0.708452 0.201188 0.362333 0.275722
H23   H     H_    0.852216 0.216939 0.300905 0.195378
H24   H     H_    0.754429 0.364632 0.317329 0.236153

loop_
_geom_bond_atom_site_label_1
_geom_bond_atom_site_label_2
_ccdc_geom_bond_type
C32   H19   S    
C33   H21   S    
C4    H6    S    
C22   O10   S    
C21   O9    S    
C12   N1    A    
C2    O3    A    
C15   O5    A    
C25   C27   A    
C5    C7    A    
C1    O4    A    
C18   C20   A    
C3    H5    S    
C15   C20   S    
C7    C9    A    
C4    C27   A    
C31   C32   S    
C23   C25   A    
C33   H20   S    
C31   H15   S    
O1    Zn1   S    
C5    C10   A    
O3    Zn1   S    
C26   C28   A    
C3    C29   A    
O9    C31   S    
C34   H22   S    
C12   H12   S    
C6    C9    A    
C16   C19   S    
C23   C29   A    
C14   H14   S    
C3    C28   A    
C17   C19   A    
C20   C22   A    
C11   H11   S    
C14   N1    A    
O5    Zn1   S    
O7    Zn1   S    
C21   C23   A    
C32   H17   S    
C17   H1    S    
C11   C14   A    
C22   C24   A    
C33   C34   S    
C18   H2    S    
C5    H7    S    
C30   H4    S    
C24   C30   A    
C31   H16   S    
C17   C27   A    
C15   O8    A    
C16   O6    A    
C13   H13   S    
C34   H24   S    
C18   C28   A    
C12   C13   A    
N1    Zn1   S    
C34   H23   S    
O10   C33   S    
N2    Zn2   S    
O2    Zn2   S    
C7    H9    S    
C13   N2    A    
C1    O1    A    
C11   N2    A    
C6    C8    A    
O4    Zn2   S    
C8    H10   S    
C2    O2    A    
C25   C26   A    
C16   O7    A    
C2    C9    S    
C6    H8    S    
C8    C10   A    
C4    C30   A    
C1    C10   S    
O6    Zn2   S    
C29   H3    S    
C24   C26   A    
O8    Zn2   S    
C19   C21   A    
C32   H18   S    
