data_mof_unit_47459.cif
_audit_creation_date              2012-10-26T19:25:57-0400
_audit_creation_method            fapswitch 2.2
_symmetry_space_group_name_H-M    P1
_symmetry_Int_Tables_number       1
_space_group_crystal_system       triclinic
_cell_length_a                    15.068859
_cell_length_b                    13.780242
_cell_length_c                    11.694018
_cell_angle_alpha                 90.145408
_cell_angle_beta                  88.930377
_cell_angle_gamma                 88.672033
_cell_volume                      2427.20641456

loop_
_atom_site_label
_atom_site_type_symbol
_atom_type_description
_atom_site_fract_x
_atom_site_fract_y
_atom_site_fract_z
_atom_type_partial_charge
C1    C     C_R   0.329062 0.500981 0.500227 0.546237
C2    C     C_R   0.562847 0.201089 0.440538 0.108023
C3    C     C_R   0.556826 0.794929 0.430343 0.111340
C4    C     C_R   0.432167 0.209105 0.555480 0.111997
C5    C     C_R   0.542694 0.895726 0.408631 -0.027534
C6    C     C_R   0.418309 0.107195 0.538618 -0.030452
C7    C     C_R   0.419401 0.898578 0.545733 -0.036603
C8    C     C_R   0.549275 0.100975 0.414680 -0.029069
C9    C     C_R   0.480559 0.948792 0.475903 -0.002183
C10   C     C_R   0.481888 0.052414 0.475360 -0.001146
C11   C     C_R   0.587917 0.945359 0.319180 0.028064
C12   C     C_R   0.670921 0.498844 0.493884 0.550778
C13   C     C_R   0.340909 0.058386 0.576599 0.028413
C14   C     C_R   0.344015 0.954507 0.590167 0.025000
C15   C     C_R   0.598216 0.047946 0.327738 0.026199
C16   C     C_R   0.500105 0.499901 0.283993 0.544132
C17   C     C_R   0.499771 0.500094 0.716005 0.567990
C18   C     C_1   0.500310 0.499795 0.162335 -0.001443
C19   C     C_1   0.499698 0.500242 0.837654 0.028085
C20   C     C_1   0.500210 0.499937 0.059864 -0.023460
C21   C     C_1   0.499886 0.500162 0.940124 -0.011792
C22   C     C_R   0.816712 0.461090 0.396718 0.014252
C23   C     C_R   0.909731 0.447121 0.407110 0.028797
C24   C     C_R   0.181978 0.534862 0.592275 -0.017237
C25   C     C_R   0.767888 0.496465 0.493056 0.030534
C26   C     C_R   0.232380 0.503204 0.496404 -0.007459
C27   C     C_R   0.811182 0.530768 0.590012 -0.036560
C28   C     C_R   0.190457 0.471365 0.397021 -0.049263
C29   C     C_R   0.904029 0.544489 0.584732 -0.025773
C30   C     C_R   0.097154 0.458440 0.399766 -0.026918
C31   C     C_R   0.953443 0.499521 0.493153 0.002997
C32   C     C_R   0.046959 0.503393 0.490338 0.003935
C33   C     C_3   0.771427 0.448433 0.281347 -0.292620
C34   C     C_R   0.090527 0.553539 0.577786 0.027292
C35   C     C_3   0.737252 0.544157 0.231785 -0.418977
C36   C     C_3   0.219744 0.524304 0.712477 -0.261457
C37   C     C_3   0.175800 0.441086 0.776496 -0.412244
C38   C     C_1   0.758669 0.547493 0.694048 0.224403
C39   C     C_1   0.244731 0.454129 0.294758 0.217680
C40   C     C_1   0.903150 0.657951 0.754734 0.199044
C41   C     C_1   0.099717 0.344775 0.230657 0.193502
C42   C     C_3   0.082769 0.708727 0.697629 -0.276867
C43   C     C_3   0.044119 0.800956 0.642803 -0.431694
C44   C     C_3   0.922955 0.288407 0.291031 -0.279657
C45   C     C_R   0.949091 0.604175 0.663631 -0.003305
C46   C     C_3   0.962852 0.200284 0.352720 -0.424884
C47   C     C_1   0.391178 0.743835 0.652631 0.260254
C48   C     C_1   0.653206 0.231888 0.442369 0.234898
C49   C     C_1   0.644663 0.756247 0.404841 0.239059
C50   C     C_1   0.388964 0.257976 0.651347 0.251366
C51   C     C_3   0.602433 0.893741 0.203972 -0.269943
C52   C     C_3   0.522762 0.911816 0.127147 -0.432766
C53   C     C_3   0.250964 0.112801 0.576003 -0.271650
C54   C     C_3   0.201337 0.092039 0.465851 -0.438673
C55   C     C_3   0.263211 0.906130 0.643624 -0.273903
C56   C     C_R   0.052706 0.398499 0.320939 -0.000944
C57   C     C_3   0.265091 0.910956 0.774225 -0.420011
C58   C     C_3   0.653534 0.100215 0.237093 -0.267509
C59   C     C_3   0.752993 0.080786 0.252311 -0.432956
C60   C     C_R   0.041017 0.617366 0.650186 0.006826
C61   C     C_R   0.960928 0.383287 0.335156 0.002887
C62   C     C_R   0.434486 0.794785 0.560829 0.107326
Cu1   Cu    Cu3+1 0.500000 0.597420 0.500000 0.985110
Cu2   Cu    Cu3+1 0.500000 0.402580 0.500000 0.988553
H1    H     H_    0.678113 0.571488 0.279999 0.181164
H2    H     H_    0.211299 0.590511 0.765059 0.156896
H3    H     H_    0.063303 0.803151 0.550659 0.150397
H4    H     H_    0.970810 0.805957 0.650562 0.177135
H5    H     H_    0.070550 0.865606 0.685983 0.133392
H6    H     H_    0.073665 0.711908 0.792073 0.154215
H7    H     H_    0.154713 0.710708 0.677682 0.152497
H8    H     H_    0.035157 0.192471 0.335539 0.159250
H9    H     H_    0.950680 0.207089 0.446429 0.166824
H10   H     H_    0.931698 0.133090 0.322225 0.136645
H11   H     H_    0.850822 0.284324 0.306197 0.174150
H12   H     H_    0.790204 0.598888 0.232193 0.187347
H13   H     H_    0.934784 0.281308 0.197289 0.146744
H14   H     H_    0.510229 0.990526 0.113389 0.154394
H15   H     H_    0.535341 0.876507 0.042735 0.151293
H16   H     H_    0.462341 0.880352 0.166726 0.161835
H17   H     H_    0.663939 0.916254 0.159502 0.150634
H18   H     H_    0.609537 0.814123 0.211800 0.151635
H19   H     H_    0.198632 0.013352 0.446637 0.151273
H20   H     H_    0.132430 0.121617 0.474205 0.133213
H21   H     H_    0.234808 0.128017 0.392428 0.170668
H22   H     H_    0.210101 0.095371 0.652704 0.143381
H23   H     H_    0.716998 0.532709 0.141980 0.144156
H24   H     H_    0.255559 0.192351 0.577673 0.152575
H25   H     H_    0.330077 0.884800 0.806633 0.175245
H26   H     H_    0.253748 0.986856 0.803984 0.149211
H27   H     H_    0.211961 0.865464 0.811170 0.145081
H28   H     H_    0.200146 0.939815 0.616060 0.137723
H29   H     H_    0.255253 0.831452 0.612001 0.141625
H30   H     H_    0.772231 0.094710 0.341720 0.178629
H31   H     H_    0.771844 0.004499 0.231589 0.150112
H32   H     H_    0.791192 0.128795 0.194420 0.137086
H33   H     H_    0.635114 0.078282 0.149701 0.145732
H34   H     H_    0.818133 0.419710 0.214751 0.145151
H35   H     H_    0.639967 0.179547 0.237268 0.139701
H36   H     H_    0.715945 0.397159 0.289302 0.163347
H37   H     H_    0.104558 0.458663 0.794157 0.155499
H38   H     H_    0.181283 0.373153 0.725238 0.172763
H39   H     H_    0.209046 0.429036 0.859402 0.175353
H40   H     H_    0.292180 0.508228 0.710004 0.176102
N1    N     N_R   0.500000 0.743810 0.500000 -0.261670
N2    N     N_1   0.354402 0.296128 0.729017 -0.332184
N3    N     N_R   0.500000 0.256190 0.500000 -0.261057
N4    N     N_1   0.716199 0.560056 0.776502 -0.284017
N5    N     N_1   0.288504 0.441019 0.213544 -0.277047
N6    N     N_1   0.867478 0.701426 0.827668 -0.287231
N7    N     N_1   0.136282 0.301340 0.158398 -0.293432
N8    N     N_1   0.356696 0.703188 0.727066 -0.354276
N9    N     N_1   0.726523 0.254249 0.447142 -0.350406
N10   N     N_1   0.716676 0.729312 0.385328 -0.336162
O1    O     O_R   0.370260 0.582280 0.500020 -0.500586
O2    O     O_R   0.629740 0.417720 0.499980 -0.491431
O3    O     O_R   0.629740 0.582280 0.499980 -0.490364
O4    O     O_R   0.370260 0.417720 0.500020 -0.497942
O5    O     O_R   0.500010 0.582270 0.337200 -0.510526
O6    O     O_R   0.499990 0.417730 0.662800 -0.488622
O7    O     O_R   0.499990 0.582270 0.662800 -0.477865
O8    O     O_R   0.500010 0.417730 0.337200 -0.493272

loop_
_geom_bond_atom_site_label_1
_geom_bond_atom_site_label_2
_ccdc_geom_bond_type
C30   C32   A    
C45   C60   A    
Cu2   O2    S    
C27   C29   A    
C55   H29   S    
C47   C62   S    
C54   H20   S    
C3    C49   S    
C41   C56   S    
C62   N1    A    
C53   C54   S    
C3    N1    A    
C24   C36   S    
C57   H25   S    
C36   C37   S    
C19   C21   T    
C24   C26   A    
C5    C11   A    
C37   H38   S    
Cu1   O3    S    
C36   H2    S    
C35   H1    S    
C27   C38   S    
C35   H23   S    
C47   N8    T    
C2    N3    A    
C42   H6    S    
Cu2   O4    S    
C33   H34   S    
C16   O8    A    
C17   O6    A    
C17   C19   S    
C11   C15   A    
C7    C14   A    
C43   H4    S    
C22   C25   A    
C53   H22   S    
C59   H30   S    
Cu1   N1    S    
C52   H15   S    
C9    C10   A    
C51   H17   S    
C46   H8    S    
Cu1   O1    S    
C49   N10   T    
C43   H5    S    
C13   C14   A    
C34   C60   A    
C58   H33   S    
C59   H31   S    
C52   H14   S    
C54   H19   S    
Cu1   O7    S    
C44   C46   S    
C13   C53   S    
C40   C45   S    
C4    N3    A    
C35   H12   S    
C57   H26   S    
C51   C52   S    
C4    C6    A    
C16   O5    A    
C42   C60   S    
C37   H39   S    
C40   N6    T    
C28   C39   S    
C2    C48   S    
C58   C59   S    
C30   C56   A    
C24   C34   A    
Cu1   Cu2   S    
C4    C50   S    
C32   C34   A    
C44   H11   S    
C7    C62   A    
C5    C9    A    
C55   H28   S    
Cu1   O5    S    
C31   C32   A    
C39   N5    T    
C16   C18   S    
C51   H18   S    
C43   H3    S    
C8    C15   A    
C55   C57   S    
C41   N7    T    
C1    C26   S    
C15   C58   S    
C42   C43   S    
C46   H10   S    
Cu2   N3    S    
C17   O7    A    
C7    C9    A    
C22   C33   S    
C44   H13   S    
C57   H27   S    
C56   C61   A    
C2    C8    A    
C58   H35   S    
C3    C5    A    
C6    C10   A    
C54   H21   S    
C44   C61   S    
C25   C27   A    
C26   C28   A    
Cu2   O6    S    
C12   C25   S    
C36   H40   S    
C33   H36   S    
C28   C30   A    
C29   C31   A    
C6    C13   A    
C37   H37   S    
Cu2   O8    S    
C42   H7    S    
C33   C35   S    
C14   C55   S    
C53   H24   S    
C18   C20   T    
C1    O4    A    
C38   N4    T    
C11   C51   S    
C12   O3    A    
C23   C61   A    
C20   C21   S    
C8    C10   A    
C59   H32   S    
C29   C45   A    
C50   N2    T    
C22   C23   A    
C1    O1    A    
C52   H16   S    
C46   H9    S    
C23   C31   A    
C48   N9    T    
C12   O2    A    
