data_mof_unit_47590.cif
_audit_creation_date              2012-12-10T20:41:53-0500
_audit_creation_method            fapswitch 2.2
_symmetry_space_group_name_H-M    P1
_symmetry_Int_Tables_number       1
_space_group_crystal_system       triclinic
_cell_length_a                    14.979772
_cell_length_b                    15.2587
_cell_length_c                    9.868638
_cell_angle_alpha                 90.544471
_cell_angle_beta                  90.067787
_cell_angle_gamma                 89.702593
_cell_volume                      2255.55913077

loop_
_atom_site_label
_atom_site_type_symbol
_atom_type_description
_atom_site_fract_x
_atom_site_fract_y
_atom_site_fract_z
_atom_type_partial_charge
C1    C     C_R   0.385676 0.875056 0.499013 0.893163
C2    C     C_R   0.928639 0.467261 0.071099 0.135339
C3    C     C_R   0.573928 0.023006 0.072336 -0.133714
C4    C     C_R   0.073928 0.523006 0.072336 -0.133714
C5    C     C_R   0.574047 0.022592 0.928474 -0.154090
C6    C     C_R   0.074047 0.522592 0.928474 -0.154090
C7    C     C_R   0.428055 0.968577 0.928199 0.200040
C8    C     C_R   0.928055 0.468577 0.928199 0.200040
C9    C     C_3   0.334226 0.004171 0.928559 0.186903
C10   C     C_3   0.834226 0.504171 0.928559 0.186903
C11   C     C_3   0.333998 0.997478 0.082742 -0.607239
C12   C     C_R   0.388249 0.126998 0.500115 0.891815
C13   C     C_3   0.833998 0.497478 0.082742 -0.607239
C14   C     C_R   0.621808 0.118062 0.500303 0.871005
C15   C     C_R   0.622254 0.881991 0.499620 0.873336
C16   C     C_R   0.121808 0.618062 0.500303 0.871005
C17   C     C_R   0.122254 0.381991 0.499620 0.873336
C18   C     C_R   0.300005 0.234495 0.623384 0.144861
C19   C     C_R   0.289607 0.776965 0.619670 0.141535
C20   C     C_R   0.800005 0.734495 0.623384 0.144861
C21   C     C_R   0.789607 0.276965 0.619670 0.141535
C22   C     C_R   0.336834 0.206634 0.500541 -0.176700
C23   C     C_R   0.885676 0.375056 0.499013 0.893163
C24   C     C_R   0.328181 0.800718 0.497126 -0.171692
C25   C     C_R   0.836834 0.706634 0.500541 -0.176700
C26   C     C_R   0.828181 0.300718 0.497126 -0.171692
C27   C     C_R   0.316091 0.251608 0.379756 0.085101
C28   C     C_R   0.305821 0.755514 0.375937 0.078062
C29   C     C_R   0.816091 0.751608 0.379756 0.085101
C30   C     C_R   0.805821 0.255514 0.375937 0.078062
C31   C     C_R   0.742948 0.806965 0.379056 -0.206986
C32   C     C_R   0.736107 0.197151 0.378086 -0.208068
C33   C     C_R   0.242948 0.306965 0.379056 -0.206986
C34   C     C_R   0.888249 0.626998 0.500115 0.891815
C35   C     C_R   0.236107 0.697151 0.378086 -0.208068
C36   C     C_R   0.696060 0.823041 0.499212 -0.156185
C37   C     C_R   0.692500 0.179512 0.499912 -0.151619
C38   C     C_R   0.196060 0.323041 0.499212 -0.156185
C39   C     C_R   0.192500 0.679512 0.499912 -0.151618
C40   C     C_R   0.728634 0.792427 0.622275 0.125908
C41   C     C_R   0.721080 0.217187 0.621212 0.125599
C42   C     C_R   0.228634 0.292427 0.622275 0.125908
C43   C     C_R   0.221080 0.717187 0.621212 0.125598
C44   C     C_3   0.767722 0.849970 0.729714 -0.466063
C45   C     C_3   0.347583 0.290352 0.726780 -0.481383
C46   C     C_3   0.759817 0.169187 0.738951 -0.483451
C47   C     C_3   0.267722 0.349970 0.729714 -0.466063
C48   C     C_3   0.259817 0.669187 0.738951 -0.483452
C49   C     C_3   0.336864 0.732009 0.733786 -0.465815
C50   C     C_3   0.847583 0.790352 0.726780 -0.481383
C51   C     C_3   0.836864 0.232009 0.733786 -0.465815
C52   C     C_R   0.428639 0.967261 0.071099 0.135339
H1    H     H_    0.326787 0.060679 0.136749 0.206963
H2    H     H_    0.779008 0.100373 0.713974 0.196261
H3    H     H_    0.282422 0.417391 0.694273 0.195825
H4    H     H_    0.279008 0.600373 0.713974 0.196261
H5    H     H_    0.729313 0.846941 0.825898 0.202015
H6    H     H_    0.718414 0.177404 0.831645 0.195829
H7    H     H_    0.229313 0.346941 0.825898 0.202015
H8    H     H_    0.218415 0.677403 0.831645 0.195829
H9    H     H_    0.408300 0.322087 0.685243 0.199087
H10   H     H_    0.400452 0.700289 0.701119 0.196689
H11   H     H_    0.908300 0.822087 0.685243 0.199086
H12   H     H_    0.288911 0.946383 0.122313 0.185551
H13   H     H_    0.900451 0.200290 0.701119 0.196689
H14   H     H_    0.358569 0.257957 0.824960 0.203504
H15   H     H_    0.343249 0.773194 0.826194 0.201202
H16   H     H_    0.858569 0.757957 0.824960 0.203504
H17   H     H_    0.843249 0.273194 0.826194 0.201202
H18   H     H_    0.633206 0.043064 0.126763 0.143996
H19   H     H_    0.133206 0.543065 0.126763 0.143996
H20   H     H_    0.633504 0.041737 0.874691 0.147236
H21   H     H_    0.133504 0.541737 0.874691 0.147236
H22   H     H_    0.438392 0.250739 0.290549 0.196795
H23   H     H_    0.826787 0.560679 0.136749 0.206963
H24   H     H_    0.359549 0.190278 0.208368 0.197188
H25   H     H_    0.423902 0.756143 0.274412 0.199684
H26   H     H_    0.342718 0.822173 0.208027 0.206765
H27   H     H_    0.938392 0.750739 0.290549 0.196795
H28   H     H_    0.859550 0.690278 0.208368 0.197188
H29   H     H_    0.923902 0.256143 0.274412 0.199684
H30   H     H_    0.842718 0.322173 0.208027 0.206765
H31   H     H_    0.265932 0.119781 0.906367 0.170514
H32   H     H_    0.375842 0.132119 0.932506 0.164713
H33   H     H_    0.266962 0.886765 0.909722 0.157628
H34   H     H_    0.788911 0.446384 0.122313 0.185551
H35   H     H_    0.206845 0.974725 0.868212 0.181471
H36   H     H_    0.875842 0.632119 0.932506 0.164713
H37   H     H_    0.765932 0.619781 0.906367 0.170514
H38   H     H_    0.706845 0.474725 0.868212 0.181471
H39   H     H_    0.766962 0.386765 0.909722 0.157628
H40   H     H_    0.724589 0.839069 0.285465 0.177859
H41   H     H_    0.718135 0.163686 0.284648 0.173542
H42   H     H_    0.224589 0.339069 0.285465 0.177859
H43   H     H_    0.218135 0.663686 0.284648 0.173542
H44   H     H_    0.782422 0.917392 0.694273 0.195825
N1    N     N_R   0.499140 0.000000 0.142800 -0.096782
N2    N     N_3   0.270388 0.946577 0.859459 -0.414370
N3    N     N_3   0.828638 0.594349 0.880315 -0.394117
N4    N     N_3   0.770388 0.446578 0.859459 -0.414371
N5    N     N_R   0.999140 0.500000 0.142800 -0.096782
N6    N     N_R   0.499160 0.000000 0.857150 -0.111201
N7    N     N_R   0.999160 0.500000 0.857150 -0.111201
N8    N     N_3   0.371320 0.248214 0.261308 -0.464261
N9    N     N_3   0.355800 0.762013 0.252716 -0.467070
N10   N     N_3   0.871320 0.748214 0.261308 -0.464261
N11   N     N_3   0.855800 0.262013 0.252716 -0.467070
N12   N     N_3   0.328638 0.094348 0.880315 -0.394117
O1    O     O_R   0.408400 0.908380 0.614690 -0.593924
O2    O     O_R   0.591610 0.908390 0.614650 -0.619591
O3    O     O_R   0.091610 0.591610 0.614650 -0.624686
O4    O     O_R   0.091610 0.408390 0.614650 -0.619591
O5    O     O_R   0.591590 0.091600 0.385310 -0.638366
O6    O     O_R   0.591590 0.908400 0.385310 -0.628789
O7    O     O_R   0.091590 0.591600 0.385310 -0.638366
O8    O     O_R   0.091590 0.408400 0.385310 -0.628789
O9    O     O_R   0.408400 0.091620 0.614690 -0.579025
O10   O     O_R   0.908400 0.408380 0.614690 -0.593924
O11   O     O_R   0.908400 0.591620 0.614690 -0.579025
O12   O     O_R   0.408370 0.908370 0.385350 -0.622606
O13   O     O_R   0.408370 0.091630 0.385350 -0.626078
O14   O     O_R   0.908370 0.408370 0.385350 -0.622606
O15   O     O_R   0.908370 0.591630 0.385350 -0.626078
O16   O     O_R   0.591610 0.091610 0.614650 -0.624686
Zn1   Zn    Zn3+2 0.500010 0.000000 0.653130 0.963121
Zn2   Zn    Zn3+2 0.000010 0.500000 0.653130 0.963121
Zn3   Zn    Zn3+2 0.499980 0.000000 0.346870 0.927769
Zn4   Zn    Zn3+2 0.999980 0.500000 0.346870 0.927769

loop_
_geom_bond_atom_site_label_1
_geom_bond_atom_site_label_2
_ccdc_geom_bond_type
H24   N8    S    
C21   C26   A    
H29   N11   S    
C9    N2    S    
H28   N10   S    
C30   N11   S    
C52   N1    A    
N1    Zn3   S    
N6    Zn1   S    
C33   H42   S    
C23   O10   A    
O12   Zn3   S    
C16   O7    A    
C27   C33   A    
C9    N12   S    
C34   O15   A    
H37   N3    S    
H26   N9    S    
H22   N8    S    
C7    C52   A    
O13   Zn3   S    
C5    H20   S    
C18   C42   A    
C20   C40   A    
C20   C25   A    
C12   C22   S    
C27   N8    S    
N5    Zn4   S    
H31   N12   S    
C48   H4    S    
C51   H13   S    
C23   C26   S    
N7    Zn2   S    
C2    C13   S    
C19   C49   S    
C20   C50   S    
C11   C52   S    
C1    O1    A    
C12   O13   A    
C13   H23   S    
C28   C35   A    
C7    N6    A    
C13   H34   S    
C41   C46   S    
H33   N2    S    
H39   N4    S    
C43   C48   S    
C28   N9    S    
O4    Zn2   S    
C11   H1    S    
C25   C34   S    
C17   C38   S    
H35   N2    S    
C32   H41   S    
C46   H6    S    
O14   Zn4   S    
C50   H11   S    
C15   O2    A    
H38   N4    S    
C19   C43   A    
C48   H8    S    
C23   O14   A    
C45   C47   S    
C25   C29   A    
C14   O16   A    
C36   C40   A    
C3    H18   S    
C4    C6    A    
C11   H12   S    
C39   C43   A    
C16   C39   S    
C2    N5    A    
C32   C37   A    
C46   C51   S    
O7    Zn4   S    
H27   N10   S    
C1    O12   A    
C35   C39   A    
C44   H44   S    
C3    N1    A    
C44   H5    S    
C4    N5    A    
C46   H2    S    
O3    Zn2   S    
C15   O6    A    
C6    N7    A    
C10   N4    S    
C9    C11   S    
C21   C41   A    
O1    Zn1   S    
C48   C49   S    
C26   C30   A    
C22   C27   A    
C29   N10   S    
C17   O4    A    
C18   C45   S    
C15   C36   S    
C21   C51   S    
C6    H21   S    
C47   H3    S    
C44   C50   S    
C34   O11   A    
C7    C9    S    
C5    N6    A    
C49   H10   S    
C49   H15   S    
C18   C22   A    
C2    C8    A    
C24   C28   A    
C3    C5    A    
C10   C13   S    
C38   C42   A    
O5    Zn3   S    
C35   H43   S    
C14   O5    A    
C51   H17   S    
C33   C38   A    
H25   N9    S    
C19   C24   A    
C29   C31   A    
C14   C37   S    
C30   C32   A    
O6    Zn3   S    
O15   Zn4   S    
C50   H16   S    
C45   H9    S    
H32   N12   S    
C42   C47   S    
C37   C41   A    
C10   N3    S    
C8    N7    A    
H36   N3    S    
O2    Zn1   S    
C47   H7    S    
C12   O9    A    
O11   Zn2   S    
C40   C44   S    
C16   O3    A    
C1    C24   S    
C8    C10   S    
C31   H40   S    
O8    Zn4   S    
C45   H14   S    
C31   C36   A    
O10   Zn2   S    
H30   N11   S    
O9    Zn1   S    
C4    H19   S    
C17   O8    A    
O16   Zn1   S    
