data_mof_unit_55886.cif
_audit_creation_date              2013-03-05T15:55:43-0500
_audit_creation_method            fapswitch 2.2
_symmetry_space_group_name_H-M    P1
_symmetry_Int_Tables_number       1
_space_group_crystal_system       triclinic
_cell_length_a                    6.925719
_cell_length_b                    17.617719
_cell_length_c                    19.464755
_cell_angle_alpha                 108.593776
_cell_angle_beta                  89.635331
_cell_angle_gamma                 90.503784
_cell_volume                      2250.92868987

loop_
_atom_site_label
_atom_site_type_symbol
_atom_site_description
_atom_site_fract_x
_atom_site_fract_y
_atom_site_fract_z
_atom_type_partial_charge
O1    O     O_R   0.494330 0.415710 0.413720 -0.607998
O2    O     O_R   0.819360 0.430070 0.560210 -0.569827
O3    O     O_R   0.994320 0.584290 0.586280 -0.607755
C1    C     C_R   0.650157 0.412752 0.580010 1.006126
O4    O     O_R   0.823740 0.406290 0.412670 -0.594966
O5    O     O_R   0.998730 0.560340 0.437690 -0.589915
C2    C     C_R   0.654719 0.382990 0.384744 0.940575
O6    O     O_R   0.489920 0.439660 0.562310 -0.586424
O7    O     O_3   0.662330 0.550570 0.508380 -0.253951
V1    V     V_3+5 0.935370 0.490620 0.498440 1.236371
O8    O     O_R   0.328720 0.569930 0.439790 -0.569433
C3    C     C_R   0.160556 0.586740 0.419640 1.005726
O9    O     O_R   0.324340 0.593710 0.587330 -0.594862
C4    C     C_R   0.155191 0.616950 0.615284 0.937062
V2    V     V_3+5 0.435940 0.509380 0.501560 1.235166
O10   O     O_3   0.159110 0.449430 0.491620 -0.249957
C5    C     C_R   0.312367 0.724136 0.718352 -0.113132
H1    H     H_    0.453322 0.705195 0.695149 0.125851
C6    C     C_R   0.301124 0.787899 0.783330 -0.138105
H2    H     H_    0.434019 0.816225 0.808065 0.124541
C7    C     C_R   0.121219 0.814733 0.815785 -0.120821
C8    C     C_R   0.952878 0.776072 0.781342 -0.142028
H3    H     H_    0.811904 0.795026 0.804517 0.120344
C9    C     C_R   0.964121 0.712309 0.716376 -0.123817
H4    H     H_    0.831211 0.683998 0.691639 0.124629
C10   C     C_R   0.144025 0.685413 0.683966 -0.120499
C11   C     C_R   0.001606 0.629569 0.323275 -0.199931
C12   C     C_R   0.153605 0.639181 0.372953 -0.307824
C13   C     C_R   0.299006 0.697553 0.376517 0.293605
C14   C     C_R   0.293512 0.743559 0.328662 -0.023029
C15   C     C_R   0.140175 0.732529 0.278653 0.024023
C16   C     C_R   0.992994 0.675961 0.276722 0.154117
C17   C     C_R   0.435213 0.802006 0.330896 -0.136849
C18   C     C_R   0.427507 0.847536 0.284090 -0.136706
C19   C     C_R   0.277601 0.836509 0.233299 -0.023620
C20   C     C_R   0.132110 0.778989 0.231116 0.028672
C21   C     C_R   0.976698 0.768572 0.182265 0.145804
C22   C     C_R   0.830783 0.712487 0.181414 -0.202390
C23   C     C_R   0.838929 0.666598 0.228130 -0.187575
C24   C     C_R   0.267444 0.883140 0.186131 0.303891
C25   C     C_R   0.113798 0.870953 0.135705 -0.312034
C26   C     C_R   0.969147 0.814204 0.134991 -0.216968
H5    H     H_    0.890077 0.585041 0.320310 0.155296
H6    H     H_    0.553063 0.813643 0.369148 0.186870
H7    H     H_    0.539901 0.891890 0.288632 0.188076
H8    H     H_    0.851065 0.804806 0.096788 0.165507
H9    H     H_    0.709898 0.704124 0.144571 0.134598
H10   H     H_    0.724144 0.623792 0.226349 0.131998
C27   C     C_R   0.469932 0.186295 0.867663 -0.258992
C28   C     C_R   0.623646 0.135156 0.869620 -0.141228
C29   C     C_R   0.782365 0.129794 0.822919 -0.245378
C30   C     C_R   0.786398 0.173439 0.773793 0.149648
C31   C     C_R   0.632802 0.225132 0.772621 0.063398
C32   C     C_R   0.474431 0.231849 0.820135 0.149388
C33   C     C_R   0.940163 0.165268 0.724991 -0.221360
C34   C     C_R   0.942020 0.207530 0.675226 -0.113734
C35   C     C_R   0.792134 0.260868 0.674158 -0.032917
C36   C     C_R   0.636772 0.269680 0.723538 -0.006893
C37   C     C_R   0.483854 0.322108 0.723453 0.152443
C38   C     C_R   0.327810 0.328670 0.771359 -0.183840
C39   C     C_R   0.322607 0.283628 0.818946 -0.229347
C40   C     C_R   0.792141 0.304335 0.624160 0.295553
C41   C     C_R   0.642603 0.359930 0.626543 -0.301375
C42   C     C_R   0.489502 0.367561 0.675968 -0.200991
H11   H     H_    0.346994 0.191078 0.903526 0.139908
H12   H     H_    0.900473 0.089976 0.823412 0.141396
H13   H     H_    0.058841 0.125522 0.724839 0.148083
H14   H     H_    0.062665 0.198170 0.637998 0.187521
H15   H     H_    0.375212 0.409947 0.678158 0.160946
H16   H     H_    0.208712 0.368256 0.771636 0.135418
H17   H     H_    0.199537 0.289297 0.854850 0.138761
C43   C     C_R   0.811627 0.275836 0.281943 -0.104712
H18   H     H_    0.952396 0.294907 0.305284 0.127786
C44   C     C_R   0.800557 0.212057 0.216973 -0.123444
H19   H     H_    0.933325 0.183841 0.192384 0.132065
C45   C     C_R   0.620963 0.185106 0.184314 -0.131902
C46   C     C_R   0.452699 0.223535 0.218620 -0.083855
H20   H     H_    0.311925 0.204392 0.195319 0.121741
C47   C     C_R   0.463767 0.287318 0.283591 -0.127518
H21   H     H_    0.330995 0.315491 0.308216 0.124035
C48   C     C_R   0.643409 0.314437 0.316129 -0.125740
O11   O     O_R   0.774940 0.060470 0.937800 -0.603134
O12   O     O_R   0.440880 0.093730 0.087350 -0.587687
O13   O     O_R   0.266130 0.939630 0.062280 -0.563983
C49   C     C_R   0.609810 0.116898 0.115448 1.001811
O14   O     O_R   0.445480 0.069960 0.939820 -0.606704
O15   O     O_R   0.270770 0.915690 0.913690 -0.602686
C50   C     C_R   0.614701 0.085552 0.918593 0.935640
O16   O     O_R   0.770300 0.084410 0.086380 -0.598654
O17   O     O_3   0.602600 0.949510 0.991670 -0.262448
V3    V     V_3+5 0.329470 0.009370 0.001550 1.191127
O18   O     O_R   0.940760 0.906160 0.912560 -0.608224
C51   C     C_R   0.109965 0.883061 0.884578 0.904191
O19   O     O_R   0.936150 0.929930 0.060100 -0.571686
C52   C     C_R   0.104317 0.916801 0.083378 1.028261
V4    V     V_3+5 0.828930 0.990450 0.998310 1.190612
O20   O     O_3   0.105670 0.050490 0.008320 -0.288686
N1    N     N_R   0.937778 0.289100 0.568720 0.236678
O21   O     O_R   0.116062 0.310238 0.585608 -0.418875
O22   O     O_R   0.889205 0.260421 0.500805 -0.380601
N2    N     N_R   0.446066 0.712845 0.430979 0.235808
O23   O     O_R   0.625276 0.695804 0.412520 -0.416941
O24   O     O_R   0.399321 0.739850 0.499298 -0.394287
N3    N     N_R   0.406903 0.945642 0.192121 0.231452
O25   O     O_R   0.585279 0.928033 0.172578 -0.419768
O26   O     O_R   0.353598 0.020197 0.214337 -0.404517

loop_
_geom_bond_atom_site_label_1
_geom_bond_atom_site_label_2
_geom_bond_distance
_ccdc_geom_bond_type
C46   H20   1.082726 S    
C33   C34   1.397315 A    
N2    O23   1.300692 A    
O15   V3    2.002742 S    
C25   C26   1.406091 A    
C19   C20   1.413926 A    
C1    O6    1.301253 A    
N3    O26   1.301093 A    
C35   C36   1.414325 A    
C35   C40   1.417342 A    
C25   C52   1.490159 S    
C31   C32   1.411366 A    
C1    C41   1.491715 S    
C37   C42   1.402876 A    
C13   C14   1.417230 A    
C27   H11   1.084223 S    
C3    C12   1.489443 S    
C5    C10   1.406214 A    
C20   C21   1.412302 A    
C6    C7    1.408866 A    
C21   C22   1.403587 A    
C9    C10   1.408792 A    
O14   V3    2.004821 S    
C15   C20   1.419052 A    
O5    C3    1.298430 A    
C14   C15   1.414903 A    
O14   C50   1.296250 A    
C27   C32   1.404842 A    
O18   V4    2.003523 S    
C34   C35   1.410990 A    
C18   C19   1.407132 A    
C26   H8    1.084453 S    
C16   C23   1.403776 A    
C21   C26   1.403170 A    
C40   N1    1.435313 S    
O8    V2    1.994548 S    
C6    H2    1.082743 S    
O1    V2    2.003449 S    
O13   V3    2.002378 S    
O7    V1    2.151506 S    
C43   C48   1.406437 A    
C30   C33   1.399907 A    
C28   C50   1.485185 S    
C39   H17   1.083647 S    
C37   C38   1.404078 A    
N2    O24   1.301287 A    
O9    C4    1.301662 A    
N3    O25   1.301005 A    
C5    H1    1.082739 S    
C45   C46   1.406407 A    
C46   C47   1.400507 A    
O11   V4    1.997271 S    
C44   H19   1.082769 S    
C29   C30   1.405200 A    
C9    H4    1.082754 S    
C43   C44   1.400455 A    
C47   C48   1.408514 A    
C49   O16   1.296091 A    
C28   C29   1.406390 A    
C36   C37   1.411727 A    
C34   H14   1.081184 S    
C4    C10   1.489985 S    
C47   H21   1.082747 S    
C38   C39   1.398852 A    
O13   C52   1.295321 A    
O2    C1    1.295307 A    
C40   C41   1.422077 A    
C24   N3    1.435218 S    
C15   C16   1.411523 A    
C38   H16   1.083719 S    
C31   C36   1.416664 A    
V4    O20   2.160545 S    
C17   C18   1.394193 A    
C13   N2    1.435431 S    
C18   H7    1.081879 S    
C42   H15   1.084273 S    
V3    O20   1.703195 S    
O19   V4    1.994464 S    
C22   H9    1.083981 S    
O3    C4    1.296422 A    
C44   C45   1.408484 A    
C24   C25   1.420117 A    
O12   C49   1.300738 A    
N1    O21   1.300132 A    
O6    V2    1.996678 S    
N1    O22   1.301038 A    
O9    V2    2.003473 S    
C8    C9    1.400520 A    
O2    V1    2.004914 S    
C30   C31   1.411424 A    
O4    C2    1.300623 A    
C12   C13   1.419021 A    
C14   C17   1.406944 A    
C2    C48   1.489806 S    
C11   C16   1.402310 A    
O1    C2    1.296252 A    
C17   H6    1.081678 S    
C43   H18   1.082733 S    
O5    V1    2.002429 S    
C33   H13   1.083819 S    
O8    C3    1.297661 A    
O17   V4    1.707990 S    
C32   C39   1.403194 A    
O12   V3    2.001685 S    
O16   V4    2.009254 S    
C19   C24   1.416200 A    
O7    V2    1.709908 S    
O4    V1    2.001673 S    
O3    V1    2.002765 S    
V1    O10   1.703257 S    
O17   V3    2.151395 S    
C22   C23   1.397825 A    
C7    C51   1.490168 S    
O11   C50   1.298414 A    
O15   C51   1.296497 A    
O18   C51   1.301707 A    
C5    C6    1.400668 A    
O19   C52   1.301371 A    
C41   C42   1.405338 A    
C11   H5    1.084627 S    
C27   C28   1.409177 A    
C11   C12   1.406173 A    
C8    H3    1.082727 S    
C7    C8    1.406220 A    
C45   C49   1.489726 S    
C29   H12   1.084335 S    
V2    O10   2.160461 S    
C23   H10   1.083998 S    
