data_mof_unit_53288.cif
_audit_creation_date              2013-03-05T15:45:36-0500
_audit_creation_method            fapswitch 2.2
_symmetry_space_group_name_H-M    P1
_symmetry_Int_Tables_number       1
_space_group_crystal_system       triclinic
_cell_length_a                    27.652156
_cell_length_b                    10.611985
_cell_length_c                    10.021448
_cell_angle_alpha                 91.304391
_cell_angle_beta                  90.256673
_cell_angle_gamma                 90.136183
_cell_volume                      2939.93586208

loop_
_atom_site_label
_atom_site_type_symbol
_atom_site_description
_atom_site_fract_x
_atom_site_fract_y
_atom_site_fract_z
_atom_type_partial_charge
O1    O     O_R   0.499990 0.319060 0.613040 -0.584103
O2    O     O_R   0.500010 0.319100 0.386900 -0.593515
C1    C     C_R   0.498393 0.262185 0.497909 0.880387
O3    O     O_R   0.428750 0.500000 0.613050 -0.641938
O4    O     O_R   0.428760 0.500040 0.386920 -0.599790
C2    C     C_R   0.405941 0.504931 0.499399 0.926010
Zn1   Zn    Zn3+2 0.499990 0.499970 0.650990 0.990746
Zn2   Zn    Zn3+2 0.500010 0.500030 0.349010 1.023817
O5    O     O_R   0.499990 0.680900 0.613100 -0.624016
O6    O     O_R   0.500010 0.680940 0.386960 -0.567263
O7    O     O_R   0.571240 0.499960 0.613080 -0.636661
O8    O     O_R   0.571250 0.500000 0.386950 -0.612174
C3    C     C_R   0.506263 0.736220 0.501749 1.006624
C4    C     C_R   0.594036 0.498843 0.500188 0.894270
C5    C     C_R   0.178470 0.378885 0.490278 0.599567
O9    O     O_2   0.205381 0.276391 0.516690 -0.532249
N1    N     N_R   0.200066 0.494583 0.481858 -0.335505
C6    C     C_R   0.174377 0.598722 0.446423 0.557709
C7    C     C_R   0.277185 0.535497 0.377928 -0.175150
C8    C     C_R   0.327280 0.546820 0.380026 -0.050685
C9    C     C_R   0.327045 0.483368 0.612536 -0.286457
C10   C     C_R   0.276486 0.482246 0.613048 0.031091
C11   C     C_R   0.251588 0.504199 0.492434 0.270811
C12   C     C_R   0.101418 0.472897 0.436298 -0.047296
C13   C     C_R   0.128479 0.366469 0.470369 -0.052145
C14   C     C_R   0.105761 0.248999 0.474348 -0.157765
C15   C     C_R   0.125036 0.588582 0.417830 -0.010756
C16   C     C_R   0.352864 0.513451 0.496962 -0.106193
H1    H     H_    0.346375 0.461150 0.703344 0.167342
H2    H     H_    0.127310 0.164766 0.486459 0.228572
C17   C     C_R   0.646875 0.492449 0.499688 -0.031907
C18   C     C_R   0.975775 0.350409 0.463828 0.073007
C19   C     C_R   0.973875 0.573866 0.402225 0.066240
C20   C     C_R   0.949489 0.462205 0.439773 0.070020
C21   C     C_R   0.950791 0.248453 0.519255 -0.206350
C22   C     C_R   0.900531 0.244981 0.526950 -0.020023
C23   C     C_R   0.873576 0.354984 0.499554 -0.041809
C24   C     C_R   0.898717 0.464762 0.460346 -0.053131
C25   C     C_R   0.873287 0.578737 0.444657 -0.026297
C26   C     C_R   0.823283 0.580489 0.459648 0.633438
N2    N     N_R   0.799361 0.473400 0.492415 -0.326291
C27   C     C_R   0.822933 0.363377 0.517103 0.635859
C28   C     C_R   0.721241 0.461166 0.376040 0.001932
C29   C     C_R   0.671099 0.470748 0.379296 -0.268408
C30   C     C_R   0.673070 0.505125 0.618985 -0.240314
C31   C     C_R   0.723640 0.498374 0.619584 -0.023025
C32   C     C_R   0.747771 0.476300 0.496670 0.227495
O10   O     O_2   0.797093 0.264622 0.560148 -0.504401
C33   C     C_R   0.026864 0.348635 0.445860 -0.011159
C34   C     C_R   0.050743 0.464327 0.421446 0.051907
C35   C     C_R   0.024505 0.572131 0.382746 0.062680
C36   C     C_R   0.055892 0.237462 0.453588 -0.035377
H3    H     H_    0.650778 0.459459 0.287006 0.153434
H4    H     H_    0.969906 0.169560 0.559827 0.140449
O11   O     O_2   0.196753 0.711439 0.437565 -0.525209
C37   C     C_R   0.099878 0.688080 0.361068 -0.196510
H5    H     H_    0.257313 0.555537 0.287335 0.179580
H6    H     H_    0.119181 0.771576 0.330347 0.195849
C38   C     C_R   0.947786 0.687848 0.401797 -0.122564
C39   C     C_R   0.898245 0.689621 0.418205 -0.106123
O12   O     O_2   0.798411 0.688140 0.441216 -0.520334
C40   C     C_R   0.050850 0.675592 0.330657 -0.084185
H7    H     H_    0.965297 0.778313 0.393914 0.155960
H8    H     H_    0.653955 0.522233 0.711769 0.192334
H9    H     H_    0.879737 0.779316 0.413343 0.216933
C41   C     C_2   0.532585 0.933551 0.403458 0.018538
C42   C     C_2   0.519480 0.866672 0.509182 -0.361286
H10   H     H_    0.514201 0.913247 0.605877 0.164401
C43   C     C_2   0.529574 0.069758 0.417760 -0.235209
C44   C     C_2   0.494525 0.128686 0.488111 -0.174913
H11   H     H_    0.558698 0.123949 0.373688 0.172477
C45   C     C_2   0.537295 0.529782 0.928143 -0.094542
N3    N     N_2   0.500520 0.501330 0.852150 -0.184660
H12   H     H_    0.568786 0.572144 0.882974 0.154463
C46   C     C_2   0.539019 0.509890 0.076041 -0.044342
N4    N     N_2   0.500540 0.501360 0.147810 -0.162722
H13   H     H_    0.574118 0.506937 0.124383 0.150928
H14   H     H_    0.468227 0.525587 0.104270 0.170019
C47   C     C_2   0.749965 0.515561 0.749343 0.966804
O13   O     O_2   0.727659 0.512063 0.854414 -0.631482
O14   O     O_R   0.799855 0.537129 0.753066 -0.805589
H15   H     H_    0.812976 0.547108 0.847358 0.369719
C48   C     C_2   0.031428 0.760940 0.228063 0.411764
H16   H     H_    0.048379 0.851840 0.212835 0.104852
O15   O     O_2   0.998132 0.727919 0.154713 -0.511117
C49   C     C_2   0.553393 0.878485 0.278741 0.976405
O16   O     O_2   0.547237 0.931499 0.172945 -0.587506
O17   O     O_R   0.582029 0.770170 0.283024 -0.799469
H17   H     H_    0.594839 0.743781 0.192003 0.335772
C50   C     C_2   0.251589 0.459690 0.741252 0.496972
H18   H     H_    0.272144 0.426464 0.825991 0.078595
O18   O     O_2   0.208564 0.481175 0.755733 -0.541084
C51   C     C_2   0.447902 0.071117 0.529843 0.906836
O19   O     O_2   0.426780 0.113656 0.627866 -0.595867
O20   O     O_R   0.426984 0.973013 0.453697 -0.757163
H19   H     H_    0.395213 0.943008 0.492003 0.366684
C52   C     C_2   0.467218 0.406068 0.891437 0.614312
H20   H     H_    0.429548 0.413188 0.862250 0.047908
O21   O     O_2   0.480929 0.311858 0.948445 -0.539598
C53   C     C_2   0.744015 0.435368 0.243904 0.474027
H21   H     H_    0.721822 0.435058 0.154226 0.099204
O22   O     O_2   0.787028 0.412381 0.232408 -0.547808
C54   C     C_2   0.879084 0.122797 0.564092 0.544035
H22   H     H_    0.892510 0.074835 0.651254 0.046149
O23   O     O_2   0.849293 0.070021 0.491832 -0.473756
C55   C     C_2   0.037778 0.108457 0.421824 0.866193
O24   O     O_2   0.007461 0.091456 0.333933 -0.605397
O25   O     O_R   0.056119 0.006045 0.491193 -0.794295
H23   H     H_    0.039905 0.923639 0.464164 0.328167
C56   C     C_2   0.350706 0.600800 0.261157 0.949561
O26   O     O_2   0.338262 0.565559 0.149093 -0.635966
O27   O     O_R   0.385453 0.696038 0.277232 -0.761001
H24   H     H_    0.398582 0.725623 0.188959 0.353004

loop_
_geom_bond_atom_site_label_1
_geom_bond_atom_site_label_2
_geom_bond_distance
_ccdc_geom_bond_type
C40   C48   1.485117 S    
C51   O19   1.223153 D    
N2    C27   1.365505 A    
O20   H19   1.013829 S    
C12   C15   1.405537 A    
C4    C17   1.462868 S    
C28   C29   1.390985 A    
C15   C37   1.396328 A    
O14   H15   1.013877 S    
Zn1   N3    2.015625 S    
C30   C31   1.400369 A    
C7    H5    1.084561 S    
N3    C52   1.428957 S    
N1    C11   1.431393 S    
C22   C54   1.480460 S    
C22   C23   1.417934 A    
N4    H14   1.028383 S    
O3    Zn1   2.004625 S    
O4    C2    1.294330 A    
O7    C4    1.297395 A    
C49   O17   1.398683 S    
C5    C13   1.401253 A    
C41   C43   1.451881 S    
C55   O24   1.223352 D    
C5    O9    1.349823 S    
Zn2   N4    2.016806 S    
O25   H23   1.012608 S    
C5    N1    1.368538 A    
C23   C27   1.414936 A    
C43   H11   1.089455 S    
O5    C3    1.284925 A    
C56   O26   1.223234 D    
Zn1   O7    2.008181 S    
C29   H3    1.084185 S    
C2    C16   1.470826 S    
C31   C47   1.494739 S    
C7    C8    1.390176 A    
C37   H6    1.084636 S    
C41   C42   1.339419 D    
C36   C55   1.483864 S    
C38   C39   1.380613 A    
C19   C38   1.409919 A    
O1    Zn1   1.948612 S    
C9    C10   1.398121 A    
C21   H4    1.077637 S    
C12   C34   1.411003 A    
C35   C40   1.426297 A    
C45   C46   1.502412 S    
O27   H24   1.013860 S    
C52   O21   1.222906 D    
C52   H20   1.083953 S    
N2    C32   1.427790 S    
C51   O20   1.399181 S    
C17   C29   1.397393 A    
C42   H10   1.088303 S    
C18   C21   1.408430 A    
C44   C51   1.490962 S    
C12   C13   1.404053 A    
C45   H12   1.084532 S    
C25   C26   1.391642 A    
C47   O14   1.398086 S    
C49   O16   1.222924 D    
C8    C16   1.418386 A    
C34   C35   1.416759 A    
C13   C14   1.396062 A    
C9    H1    1.084178 S    
C26   O12   1.350697 S    
O1    C1    1.290406 A    
C21   C22   1.392721 A    
C18   C20   1.417559 A    
C7    C11   1.396994 A    
C46   N4    1.291131 D    
C23   C24   1.419247 A    
C14   C36   1.398337 A    
C50   O18   1.220593 D    
C48   H16   1.085678 S    
Zn2   O8    2.004628 S    
C33   C36   1.431878 A    
C1    C44   1.421598 S    
C53   O22   1.220181 D    
N1    C6    1.367966 A    
C10   C50   1.484288 S    
C54   O23   1.220945 D    
C27   O10   1.347117 S    
C28   C53   1.488883 S    
C46   H13   1.083643 S    
C6    O11   1.350302 S    
C8    C56   1.484265 S    
O3    C2    1.301596 A    
C26   N2    1.360961 A    
C48   O15   1.221281 D    
C9    C16   1.405802 A    
O8    C4    1.295839 A    
C39   H9    1.083740 S    
C14   H2    1.084265 S    
C37   C40   1.393559 A    
C3    C42   1.431157 S    
Zn1   O5    1.965674 S    
C31   C32   1.418581 A    
C20   C24   1.420148 A    
O2    Zn2   1.965675 S    
C6    C15   1.396284 A    
C45   N3    1.298602 D    
O6    C3    1.290098 A    
C41   C49   1.486424 S    
O4    Zn2   2.008178 S    
C19   C35   1.414566 A    
C30   H8    1.083559 S    
C38   H7    1.078849 S    
O2    C1    1.278786 A    
C50   H18   1.085725 S    
C24   C25   1.412036 A    
C55   O25   1.398380 S    
C25   C39   1.393979 A    
C53   H21   1.085903 S    
C19   C20   1.420979 A    
C43   C44   1.347712 D    
C56   O27   1.398986 S    
C18   C33   1.425064 A    
C47   O13   1.223946 D    
O17   H17   1.013741 S    
Zn2   O6    1.948611 S    
C33   C34   1.419305 A    
C17   C30   1.398763 A    
C54   H22   1.085396 S    
C10   C11   1.412593 A    
C28   C32   1.417062 A    
