data_mof_unit_48616.cif
_audit_creation_date              2012-12-11T17:05:36-0500
_audit_creation_method            fapswitch 2.2
_symmetry_space_group_name_H-M    P1
_symmetry_Int_Tables_number       1
_space_group_crystal_system       triclinic
_cell_length_a                    6.944486
_cell_length_b                    14.540005
_cell_length_c                    16.012617
_cell_angle_alpha                 90.194483
_cell_angle_beta                  89.991635
_cell_angle_gamma                 89.988341
_cell_volume                      1616.83038793

loop_
_atom_site_label
_atom_site_type_symbol
_atom_type_description
_atom_site_fract_x
_atom_site_fract_y
_atom_site_fract_z
_atom_type_partial_charge
O1    O     O_R   0.494380 0.415640 0.412830 -0.538963
O2    O     O_R   0.823960 0.405540 0.586560 -0.544355
O3    O     O_R   0.994270 0.584360 0.587170 -0.547312
C1    C     C_R   0.655286 0.383649 0.615281 0.714284
O4    O     O_R   0.824090 0.404620 0.413450 -0.544244
O5    O     O_R   0.994400 0.583430 0.412820 -0.535340
C2    C     C_R   0.655309 0.382429 0.384466 0.693395
O6    O     O_R   0.494250 0.416570 0.587180 -0.541916
O7    O     O_3   0.660800 0.558670 0.500000 -0.357276
V1    V     V_3+5 0.935650 0.489120 0.500000 1.407377
O8    O     O_R   0.324110 0.594460 0.413440 -0.531645
C3    C     C_R   0.154774 0.618395 0.386212 0.694425
O9    O     O_R   0.323980 0.595380 0.586550 -0.522837
C4    C     C_R   0.154830 0.617987 0.615191 0.695127
V2    V     V_3+5 0.435660 0.510880 0.500000 1.444019
O10   O     O_3   0.160640 0.441330 0.500000 -0.376174
C5    C     C_3   0.931487 0.703980 0.713947 -0.378381
H1    H     H_    0.866810 0.638199 0.735583 0.199404
C6    C     C_3   0.919261 0.775887 0.784879 -0.402062
H2    H     H_    0.127210 0.913495 0.710355 0.049600
C7    C     C_3   0.225125 0.783095 0.657429 0.188674
C8    C     C_3   0.261263 0.654976 0.763649 0.229250
C9    C     C_3   0.144156 0.688131 0.685980 -0.009459
C10   C     C_3   0.122978 0.810764 0.810036 -0.046139
C11   C     C_3   0.218163 0.854363 0.731017 0.213933
C12   C     C_3   0.243609 0.725659 0.836515 -0.273791
H3    H     H_    0.175311 0.693003 0.891898 0.152225
C13   C     C_R   0.259435 0.744626 0.184581 0.093674
C14   C     C_R   0.116964 0.812440 0.180756 -0.170107
C15   C     C_R   0.975298 0.812094 0.243741 -0.179732
H4    H     H_    0.861102 0.862837 0.242377 0.136311
C16   C     C_R   0.989291 0.753211 0.313537 0.334630
C17   C     C_R   0.141827 0.687456 0.318280 -0.195590
C18   C     C_R   0.269837 0.683058 0.250687 0.049785
C19   C     C_3   0.484763 0.684211 0.249745 -0.375347
C20   C     C_3   0.472936 0.751645 0.177498 -0.382155
H5    H     H_    0.546405 0.616466 0.231602 0.164270
H6    H     H_    0.527318 0.722665 0.117659 0.166158
H7    H     H_    0.527482 0.821393 0.193469 0.177120
C21   C     C_R   0.501658 0.248418 0.686110 0.024290
C22   C     C_R   0.648084 0.314218 0.682365 -0.157642
C23   C     C_R   0.791056 0.311744 0.744589 -0.161161
C24   C     C_R   0.776664 0.251740 0.813379 0.376608
C25   C     C_R   0.623518 0.186422 0.817232 -0.217388
C26   C     C_R   0.491800 0.184777 0.750922 -0.015082
C27   C     C_3   0.276656 0.192353 0.753713 0.228030
C28   C     C_3   0.288710 0.261247 0.682497 -0.421564
H8    H     H_    0.223748 0.221812 0.813410 0.175209
H9    H     H_    0.244099 0.331813 0.701145 0.151853
C29   C     C_R   0.493636 0.316517 0.256724 0.101805
C30   C     C_R   0.647436 0.316616 0.313418 -0.112679
C31   C     C_R   0.798702 0.254197 0.298099 -0.174852
C32   C     C_R   0.787546 0.189722 0.232275 -0.173259
C33   C     C_R   0.624480 0.185425 0.179889 -0.106881
C34   C     C_R   0.482150 0.252469 0.191837 0.107331
C35   C     C_3   0.270575 0.241078 0.203098 -0.407263
C36   C     C_3   0.282972 0.311250 0.273428 -0.399110
H10   H     H_    0.232920 0.170882 0.224920 0.165915
H11   H     H_    0.208058 0.376905 0.259098 0.170968
O11   O     O_R   0.771490 0.080820 0.910070 -0.522787
O12   O     O_R   0.441590 0.092730 0.083780 -0.542713
O13   O     O_R   0.271350 0.913900 0.084390 -0.541271
C37   C     C_R   0.610630 0.114879 0.112845 0.673972
O14   O     O_R   0.441780 0.091820 0.910670 -0.532582
O15   O     O_R   0.271540 0.912980 0.910040 -0.524487
C38   C     C_R   0.611054 0.116066 0.883845 0.711027
O16   O     O_R   0.771300 0.081740 0.084420 -0.546330
O17   O     O_3   0.604960 0.938700 0.997240 -0.371952
V3    V     V_3+5 0.330090 0.008230 0.997220 1.448242
O18   O     O_R   0.941820 0.901930 0.910640 -0.542658
C39   C     C_R   0.110819 0.880201 0.881274 0.716365
O19   O     O_R   0.941630 0.902840 0.083750 -0.547624
C40   C     C_R   0.110291 0.880950 0.112608 0.698217
V4    V     V_3+5 0.830090 0.986410 0.997190 1.430822
O20   O     O_3   0.105080 0.055990 0.997200 -0.362931
H12   H     H_    0.843565 0.728089 0.660155 0.178487
H13   H     H_    0.390323 0.747424 0.856342 0.145245
O21   O     O_3   0.414154 0.773091 0.626892 -0.625513
H14   H     H_    0.441100 0.827823 0.591863 0.301544
O22   O     O_3   0.405774 0.885263 0.749797 -0.629728
H15   H     H_    0.399309 0.952702 0.759033 0.298569
O23   O     O_3   0.859372 0.767195 0.377568 -0.654732
H16   H     H_    0.915793 0.744775 0.430456 0.284885
H17   H     H_    0.545460 0.714814 0.307594 0.225261
H18   H     H_    0.906304 0.361923 0.743669 0.140922
O24   O     O_3   0.906340 0.264426 0.877678 -0.652232
H19   H     H_    0.849016 0.241779 0.930305 0.282028
O25   O     O_3   0.182418 0.110033 0.731819 -0.640887
H20   H     H_    0.242270 0.085234 0.680069 0.284324
H21   H     H_    0.226646 0.236449 0.622521 0.173358
H22   H     H_    0.920833 0.251773 0.339810 0.132623
H23   H     H_    0.901986 0.139872 0.225161 0.126153
H24   H     H_    0.187625 0.265961 0.148276 0.181037
H25   H     H_    0.251645 0.282030 0.336025 0.170380
H26   H     H_    0.846347 0.744488 0.839749 0.179017
H27   H     H_    0.828720 0.834692 0.764047 0.194522
H28   H     H_    0.131417 0.808598 0.605728 0.022759
H29   H     H_    0.416820 0.649598 0.746530 0.116157
O26   O     O_3   0.194940 0.568646 0.790819 -0.651536
H30   H     H_    0.260888 0.521239 0.756398 0.268078

loop_
_geom_bond_atom_site_label_1
_geom_bond_atom_site_label_2
_ccdc_geom_bond_type
C21   C28   S    
C34   C35   S    
C8    H29   S    
C11   O22   S    
C22   C23   A    
C25   C38   S    
C19   C20   S    
C1    O6    A    
C28   H9    S    
C32   C33   A    
C25   C26   A    
C12   H3    S    
C5    C9    S    
C13   C14   A    
C19   H5    S    
C10   C12   S    
O5    C3    A    
C15   H4    S    
C36   H11   S    
C14   C40   S    
C1    C22   S    
O17   V4    S    
V2    O10   S    
C35   C36   S    
C18   C19   S    
O11   V4    S    
O12   C37   A    
C33   C37   S    
C27   C28   S    
O8    V2    S    
C35   H10   S    
O17   V3    S    
C7    O21   S    
O18   V4    S    
C5    H12   S    
O13   C40   A    
O18   C39   A    
O1    V2    S    
O7    V1    S    
C13   C18   A    
O9    C4    A    
C24   O24   S    
C35   H24   S    
C29   C30   A    
C27   O25   S    
C21   C26   A    
C37   O16   A    
C12   H13   S    
V4    O20   S    
C30   C31   A    
C10   C11   S    
O19   V4    S    
O4    C2    A    
O21   H14   S    
O22   H15   S    
O15   C39   A    
O13   V3    S    
O14   C38   A    
C4    C9    S    
O2    C1    A    
C24   C25   A    
C14   C15   A    
C7    H28   S    
O26   H30   S    
C19   H17   S    
C32   H23   S    
C5    H1    S    
C23   H18   S    
O14   V3    S    
O3    C4    A    
C21   C22   A    
O6    V2    S    
C36   H25   S    
O9    V2    S    
C8    C12   S    
C28   H21   S    
C23   C24   A    
O2    V1    S    
C6    H26   S    
C31   C32   A    
O24   H19   S    
O12   V3    S    
C7    C11   S    
C33   C34   A    
C8    O26   S    
O1    C2    A    
C29   C36   S    
C20   H7    S    
O19   C40   A    
O5    V1    S    
O8    C3    A    
C16   O23   S    
C29   C34   A    
C16   C17   A    
C7    C9    S    
C6    C10   S    
O7    V2    S    
C2    C30   S    
O4    V1    S    
O3    V1    S    
V1    O10   S    
C15   C16   A    
O15   V3    S    
C20   H6    S    
C5    C6    S    
C17   C18   A    
V3    O20   S    
O16   V4    S    
O11   C38   A    
C27   H8    S    
C26   C27   S    
O25   H20   S    
C13   C20   S    
O23   H16   S    
H2    C11   S    
C8    C9    S    
C31   H22   S    
C3    C17   S    
C6    H27   S    
C10   C39   S    
