data_mof_unit_64226.cif
_audit_creation_date              2013-03-05T16:26:41-0500
_audit_creation_method            fapswitch 2.2
_symmetry_space_group_name_H-M    P1
_symmetry_Int_Tables_number       1
_space_group_crystal_system       triclinic
_cell_length_a                    19.23874
_cell_length_b                    18.312325
_cell_length_c                    27.748461
_cell_angle_alpha                 89.878843
_cell_angle_beta                  90.069634
_cell_angle_gamma                 89.946575
_cell_volume                      9775.91760166

loop_
_atom_site_label
_atom_site_type_symbol
_atom_site_description
_atom_site_fract_x
_atom_site_fract_y
_atom_site_fract_z
_atom_type_partial_charge
O1    O     O_R   0.398130 0.560830 0.500010 -0.612368
O2    O     O_R   0.601870 0.439170 0.499990 -0.611350
O3    O     O_R   0.601870 0.560830 0.499990 -0.611431
O4    O     O_R   0.398130 0.439170 0.500010 -0.612292
C1    C     C_R   0.365765 0.500023 0.499981 0.816094
C2    C     C_R   0.634235 0.499976 0.500007 0.816440
O5    O     O_R   0.500010 0.560810 0.428750 -0.616392
O6    O     O_R   0.499990 0.439190 0.571250 -0.616979
O7    O     O_R   0.499990 0.560810 0.571250 -0.634817
O8    O     O_R   0.500010 0.439190 0.428750 -0.632490
C3    C     C_R   0.499893 0.500075 0.405821 0.862205
C4    C     C_R   0.500097 0.499931 0.594179 0.861293
Zn1   Zn    Zn3+2 0.500000 0.581210 0.500000 0.964046
Zn2   Zn    Zn3+2 0.500000 0.418790 0.500000 0.965660
C5    C     C_R   0.437377 0.500751 0.177515 0.500748
C6    C     C_R   0.562107 0.501113 0.822517 0.569626
O9    O     O_2   0.377390 0.495127 0.202433 -0.529468
O10   O     O_2   0.622159 0.496253 0.797607 -0.533014
N1    N     N_R   0.499231 0.503975 0.201513 -0.370939
N2    N     N_R   0.500175 0.503032 0.798527 -0.341624
C7    C     C_R   0.561084 0.510324 0.177882 0.503466
C8    C     C_R   0.438267 0.509074 0.822136 0.565865
C9    C     C_R   0.500924 0.433948 0.277363 0.014555
C10   C     C_R   0.498191 0.432731 0.722542 0.026659
C11   C     C_R   0.501004 0.434141 0.327783 -0.156122
C12   C     C_R   0.498370 0.433537 0.672202 -0.294650
C13   C     C_R   0.497853 0.566752 0.328094 -0.190930
C14   C     C_R   0.502294 0.566049 0.671917 -0.176171
C15   C     C_R   0.497660 0.567121 0.278161 -0.067193
C16   C     C_R   0.502288 0.566031 0.721840 -0.114687
C17   C     C_R   0.499217 0.501352 0.252806 0.221244
C18   C     C_R   0.500213 0.500126 0.747254 0.303555
C19   C     C_R   0.499357 0.508828 0.101752 -0.049710
C20   C     C_R   0.500055 0.508763 0.898253 -0.044260
C21   C     C_R   0.436238 0.503104 0.127147 -0.024794
C22   C     C_R   0.563240 0.503827 0.872869 -0.025494
C23   C     C_R   0.373649 0.499113 0.101915 -0.115841
C24   C     C_R   0.625891 0.500835 0.898102 -0.114864
C25   C     C_R   0.562359 0.512759 0.127525 -0.024815
C26   C     C_R   0.436992 0.511819 0.872479 -0.025105
C27   C     C_R   0.499582 0.500312 0.353205 -0.100931
C28   C     C_R   0.500278 0.499838 0.646798 -0.044596
H1    H     H_    0.496626 0.618449 0.346974 0.173628
H2    H     H_    0.503917 0.617866 0.653053 0.173457
H3    H     H_    0.496346 0.618636 0.258932 0.151795
H4    H     H_    0.503863 0.617430 0.741052 0.151404
H5    H     H_    0.324557 0.493670 0.120677 0.199175
H6    H     H_    0.675051 0.496053 0.879350 0.197925
C29   C     C_R   0.435586 0.512359 0.974323 0.046544
C30   C     C_R   0.563793 0.513179 0.025672 0.045685
C31   C     C_R   0.564050 0.509359 0.974685 0.045263
C32   C     C_R   0.435382 0.508483 0.025316 0.045763
C33   C     C_R   0.499907 0.510317 0.949294 0.077777
C34   C     C_R   0.499500 0.510306 0.050706 0.076125
C35   C     C_R   0.373449 0.518240 0.947252 -0.197058
C36   C     C_R   0.625847 0.519782 0.052736 -0.200403
C37   C     C_R   0.374280 0.517698 0.897309 -0.116063
C38   C     C_R   0.625005 0.519292 0.102680 -0.116392
O11   O     O_2   0.378321 0.511920 0.796859 -0.532800
O12   O     O_2   0.620987 0.513909 0.203152 -0.531356
C39   C     C_R   0.373075 0.501575 0.051989 -0.199410
C40   C     C_R   0.626446 0.503372 0.948019 -0.196464
H7    H     H_    0.496808 0.382243 0.652792 0.161991
H8    H     H_    0.502343 0.382783 0.347228 0.202353
H9    H     H_    0.325257 0.521684 0.878212 0.197659
H10   H     H_    0.673966 0.523912 0.121769 0.198512
H11   H     H_    0.323016 0.524628 0.963477 0.150462
H12   H     H_    0.676208 0.526725 0.036507 0.150771
H13   H     H_    0.322732 0.496009 0.035438 0.151506
H14   H     H_    0.676879 0.498584 0.964569 0.150995
C41   C     C_R   0.254690 0.528102 0.540237 -0.034915
C42   C     C_R   0.745289 0.471786 0.459747 -0.037035
C43   C     C_R   0.745385 0.528236 0.540236 -0.033289
C44   C     C_R   0.254640 0.471905 0.459672 -0.036319
C45   C     C_R   0.182272 0.528035 0.539502 -0.100837
C46   C     C_R   0.817710 0.471900 0.460448 -0.099995
C47   C     C_R   0.817809 0.528117 0.539527 -0.098512
C48   C     C_R   0.182214 0.472068 0.460346 -0.098470
H15   H     H_    0.154053 0.549217 0.570204 0.201201
H16   H     H_    0.845914 0.450633 0.429765 0.201371
H17   H     H_    0.846092 0.549448 0.570186 0.201430
H18   H     H_    0.153945 0.450849 0.429646 0.201602
C49   C     C_R   0.145994 0.500087 0.499908 -0.020224
C50   C     C_R   0.854008 0.500000 0.499986 -0.020245
C51   C     C_R   0.290722 0.500048 0.499952 -0.190039
C52   C     C_R   0.709280 0.499952 0.500010 -0.189997
N3    N     N_R   0.034405 0.472007 0.462153 -0.152076
N4    N     N_R   0.965598 0.528121 0.537716 -0.152565
N5    N     N_R   0.965490 0.471977 0.462178 -0.152154
N6    N     N_R   0.034512 0.528150 0.537692 -0.152757
C53   C     C_R   0.929877 0.500030 0.499961 0.316007
C54   C     C_R   0.070126 0.500092 0.499911 0.315800
C55   C     C_R   0.460063 0.273754 0.467633 -0.015578
C56   C     C_R   0.540527 0.726258 0.532004 -0.021297
C57   C     C_R   0.539917 0.273406 0.532343 -0.024278
C58   C     C_R   0.459510 0.726584 0.467998 -0.022412
H19   H     H_    0.429002 0.304338 0.442069 0.157404
H20   H     H_    0.572040 0.695675 0.557302 0.154863
H21   H     H_    0.570957 0.303712 0.557940 0.157043
H22   H     H_    0.428019 0.696263 0.442676 0.156619
C59   C     C_R   0.459085 0.196906 0.466772 0.082348
C60   C     C_R   0.541540 0.803108 0.532839 0.077410
C61   C     C_R   0.540884 0.196552 0.533152 0.076067
C62   C     C_R   0.458533 0.803440 0.467179 0.076402
C63   C     C_R   0.499989 0.156700 0.499945 -0.040760
C64   C     C_R   0.500035 0.843321 0.500018 -0.037354
N7    N     N_R   0.500000 0.310560 0.500000 -0.121948
N8    N     N_R   0.500000 0.689440 0.500000 -0.120741
N9    N     N_R   0.560424 0.036491 0.496399 -0.111795
N10   N     N_R   0.439602 0.963561 0.503558 -0.116058
N11   N     N_R   0.439583 0.036571 0.503513 -0.120102
N12   N     N_R   0.560439 0.963481 0.496430 -0.115292
C65   C     C_R   0.500029 0.925273 0.500018 0.356620
C66   C     C_R   0.499995 0.074769 0.499933 0.356314
I1    I     I_    0.397963 0.146330 0.412604 -0.192805
I2    I     I_    0.603681 0.853624 0.586479 -0.233195
I3    I     I_    0.601948 0.145391 0.587309 -0.255123
I4    I     I_    0.396501 0.854499 0.413505 -0.248467
C67   C     C_2   0.495703 0.360806 0.747350 0.459435
H23   H     H_    0.495043 0.311042 0.726154 0.072472
O13   O     O_2   0.494196 0.355601 0.791188 -0.546214
C68   C     C_2   0.502864 0.363933 0.250560 0.487550
H24   H     H_    0.503464 0.363642 0.211472 0.062829
O14   O     O_2   0.503844 0.305468 0.271809 -0.528732
C69   C     C_2   0.291740 0.555637 0.583763 0.446114
H25   H     H_    0.347726 0.551096 0.586937 0.069063
O15   O     O_2   0.259937 0.583601 0.617037 -0.534180
C70   C     C_2   0.708215 0.444088 0.416274 0.451918
H26   H     H_    0.652226 0.448613 0.413107 0.069120
O16   O     O_2   0.739999 0.416001 0.383038 -0.530553
C71   C     C_2   0.708408 0.556216 0.583632 0.438234
H27   H     H_    0.652433 0.551757 0.586802 0.060055
O17   O     O_2   0.740259 0.584517 0.616788 -0.531340
C72   C     C_2   0.291649 0.444020 0.416261 0.440964
H28   H     H_    0.347636 0.448399 0.413144 0.061246
O18   O     O_2   0.259812 0.415886 0.383036 -0.526815

loop_
_geom_bond_atom_site_label_1
_geom_bond_atom_site_label_2
_geom_bond_distance
_ccdc_geom_bond_type
C16   C18   1.397135 A    
C43   C71   1.490864 S    
C13   C15   1.385578 A    
C42   C46   1.393397 A    
O3    C2    1.276025 A    
N1    C17   1.424011 S    
C70   H26   1.083703 S    
C46   C50   1.399032 A    
C62   C64   1.415392 A    
O2    C2    1.276285 A    
C5    N1    1.364333 A    
C49   C54   1.459611 S    
C56   N8    1.361233 A    
C19   C25   1.408565 A    
C42   C70   1.490762 S    
C20   C26   1.408618 A    
N1    C7    1.364314 A    
C10   C12   1.396916 A    
C32   C39   1.415175 A    
C57   H21   1.081816 S    
C56   H20   1.081965 S    
C44   C72   1.490865 S    
C40   H14   1.076372 S    
O7    Zn1   2.011283 S    
N10   N11   1.336975 A    
C4    C28   1.460082 S    
C41   C51   1.413386 A    
C48   C49   1.399129 A    
C38   H10   1.083572 S    
C57   C61   1.407608 A    
C13   C27   1.401141 A    
C60   C64   1.415498 A    
C50   C53   1.459616 S    
C23   H5    1.083579 S    
C24   H6    1.083580 S    
O3    Zn1   1.994725 S    
O6    C4    1.282595 A    
C1    C51   1.443743 S    
C58   N8    1.361171 A    
N3    C54   1.354889 A    
C61   I3    2.122242 S    
C31   C40   1.415202 A    
Zn1   N8    1.981941 S    
C5    C21   1.398333 A    
N12   C65   1.360768 A    
C32   C34   1.420290 A    
C9    C68   1.484064 S    
C62   I4    2.122364 S    
C67   O13   1.220333 D    
C59   C63   1.415284 A    
C64   C65   1.500724 S    
C63   C66   1.500346 S    
C7    O12   1.350010 S    
O8    Zn2   2.011286 S    
N9    N12   1.336976 A    
C55   C59   1.407659 A    
C8    O11   1.350005 S    
C72   O18   1.221385 D    
C47   C50   1.399129 A    
C29   C35   1.414999 A    
C25   C38   1.394297 A    
C14   H2    1.083205 S    
C30   C36   1.415029 A    
C15   H3    1.083074 S    
C31   C33   1.420334 A    
C11   H8    1.083563 S    
C9    C17   1.409000 A    
O5    C3    1.282493 A    
C12   H7    1.084171 S    
C10   C18   1.413692 A    
C48   H18   1.083121 S    
N6    C54   1.354929 A    
C7    C25   1.398209 A    
N4    C53   1.354871 A    
C47   H17   1.083118 S    
C6    N2    1.364527 A    
C29   C32   1.416628 A    
C8    C26   1.398204 A    
C30   C31   1.416721 A    
C61   C63   1.415187 A    
C30   C34   1.420315 A    
N10   C65   1.360810 A    
C57   N7    1.361215 A    
N9    C66   1.360749 A    
Zn2   N7    1.981941 S    
N4    N6    1.325811 A    
C35   C37   1.386007 A    
C69   H25   1.083704 S    
C59   I1    2.122111 S    
O1    C1    1.276290 A    
N5    C53   1.354946 A    
C68   O14   1.221286 D    
C71   H27   1.083736 S    
C55   H19   1.081957 S    
C23   C39   1.386019 A    
C12   C28   1.403176 A    
N2    C18   1.423838 S    
C39   H13   1.076419 S    
C19   C34   1.416647 A    
C5    O9    1.349991 S    
C58   C62   1.407644 A    
C10   C67   1.485700 S    
O6    Zn2   2.012835 S    
C26   C37   1.394295 A    
C21   C23   1.394223 A    
C16   H4    1.083124 S    
C46   H16   1.083119 S    
N2    C8    1.364523 A    
O4    C1    1.276004 A    
C71   O17   1.221384 D    
C70   O16   1.221399 D    
C35   H11   1.076501 S    
C67   H23   1.085740 S    
C72   H28   1.083734 S    
C42   C52   1.413438 A    
C2    C52   1.443763 S    
N3    N5    1.325843 A    
C14   C16   1.385297 A    
C15   C17   1.396419 A    
C36   H12   1.076454 S    
C6    C22   1.398314 A    
C22   C24   1.394195 A    
C41   C45   1.393359 A    
C45   C49   1.399036 A    
C29   C33   1.420264 A    
C58   H22   1.081827 S    
C14   C28   1.400367 A    
C19   C21   1.408602 A    
C36   C38   1.386008 A    
C3    C27   1.460040 S    
N11   C66   1.360704 A    
C20   C22   1.408597 A    
C9    C11   1.399083 A    
C44   C51   1.413494 A    
O4    Zn2   1.994729 S    
O2    Zn2   1.995408 S    
O7    C4    1.282451 A    
C43   C52   1.413485 A    
C60   I2    2.122238 S    
O8    C3    1.282530 A    
C13   H1    1.083182 S    
O5    Zn1   2.012838 S    
O1    Zn1   1.995412 S    
C56   C60   1.407709 A    
C20   C33   1.416639 A    
C6    O10   1.349993 S    
C11   C27   1.403658 A    
C44   C48   1.393534 A    
C69   O15   1.221400 D    
C43   C47   1.393494 A    
C41   C69   1.490725 S    
C24   C40   1.386012 A    
C68   H24   1.084729 S    
C45   H15   1.083116 S    
C55   N7    1.361287 A    
C37   H9    1.083569 S    
