data_mof_unit_42010.cif
_audit_creation_date              2012-12-10T17:15:56-0500
_audit_creation_method            fapswitch 2.2
_symmetry_space_group_name_H-M    P1
_symmetry_Int_Tables_number       1
_space_group_crystal_system       triclinic
_cell_length_a                    10.260752
_cell_length_b                    10.628445
_cell_length_c                    10.458808
_cell_angle_alpha                 90.983902
_cell_angle_beta                  94.084047
_cell_angle_gamma                 81.340724
_cell_volume                      1124.70520924

loop_
_atom_site_label
_atom_site_type_symbol
_atom_type_description
_atom_site_fract_x
_atom_site_fract_y
_atom_site_fract_z
_atom_type_partial_charge
C1    C     C_R   0.446048 0.501827 0.265686 0.799305
C2    C     C_2   0.490087 0.401757 0.926864 -0.076932
C3    C     C_2   0.071699 0.488311 0.489379 0.147842
C4    C     C_R   0.502554 0.259749 0.510958 0.871398
C5    C     C_2   0.929340 0.497886 0.521315 0.677341
C6    C     C_R   0.554109 0.487256 0.734721 0.894514
C7    C     C_R   0.496949 0.739465 0.484248 0.926805
C8    C     C_R   0.751904 0.065352 0.557294 0.225941
C9    C     C_R   0.863414 0.993113 0.508554 -0.173767
C10   C     C_R   0.849006 0.896564 0.419375 -0.175919
C11   C     C_R   0.724525 0.860808 0.388891 0.229190
C12   C     C_R   0.623927 0.039334 0.513240 0.051524
C13   C     C_R   0.613803 0.922917 0.452022 -0.016773
C14   C     C_3   0.114798 0.398086 0.381290 -0.723421
C15   C     C_3   0.119031 0.643576 0.650292 -0.470191
C16   C     C_3   0.774720 0.155778 0.666619 -0.820048
C17   C     C_3   0.711430 0.770120 0.277742 -0.799830
C18   C     C_3   0.578767 0.279412 0.129573 -0.878349
C19   C     C_3   0.702809 0.492401 0.943229 -0.779355
C20   C     C_R   0.504732 0.124722 0.521626 -0.204692
C21   C     C_R   0.382368 0.081312 0.507759 -0.301736
C22   C     C_R   0.377045 0.955463 0.482827 0.628268
C23   C     C_R   0.493981 0.873644 0.461851 -0.266313
C24   C     C_2   0.419615 0.485527 0.129006 0.443425
C25   C     C_2   0.491707 0.391320 0.065177 0.054614
C26   C     C_2   0.580399 0.458102 0.870639 -0.029135
F1    F     F_    0.331364 0.575221 0.064860 -0.666294
F2    F     F_    0.890436 0.548697 0.634865 -0.707208
F3    F     F_    0.863244 0.426488 0.325321 -0.644245
F4    F     F_    0.257428 0.914719 0.478412 -0.667896
H1    H     H_    0.289928 0.144595 0.515023 0.195974
H2    H     H_    0.096749 0.594756 0.737394 0.230035
H3    H     H_    0.840920 0.104119 0.743438 0.227308
H4    H     H_    0.822999 0.234685 0.632960 0.258283
H5    H     H_    0.681735 0.195199 0.710390 0.217050
H6    H     H_    0.770024 0.675864 0.300775 0.279093
H7    H     H_    0.750038 0.807710 0.191895 0.225699
H8    H     H_    0.607044 0.758751 0.251941 0.229287
H9    H     H_    0.611602 0.205444 0.057594 0.247728
H10   H     H_    0.668601 0.309433 0.178520 0.306425
H11   H     H_    0.523105 0.235674 0.199851 0.224995
H12   H     H_    0.961619 0.013076 0.538201 0.190399
H13   H     H_    0.762202 0.540649 0.880135 0.269948
H14   H     H_    0.674838 0.557985 0.023872 0.252583
H15   H     H_    0.765228 0.404897 0.981494 0.260277
H16   H     H_    0.935345 0.848160 0.375360 0.185699
H17   H     H_    0.404050 0.375641 0.871930 0.154084
H18   H     H_    0.076494 0.306635 0.391277 0.225781
H19   H     H_    0.079436 0.442959 0.287645 0.272950
H20   H     H_    0.219857 0.371271 0.375429 0.261854
H21   H     H_    0.202895 0.695425 0.677625 0.235608
H22   H     H_    0.034316 0.715051 0.614774 0.206743
N1    N     N_2   0.157290 0.551390 0.551110 -0.077990
N2    N     N_2   0.842740 0.448550 0.448960 0.088099
O1    O     O_R   0.568950 0.489660 0.307530 -0.592607
O2    O     O_R   0.348880 0.522640 0.340350 -0.595026
O3    O     O_R   0.610060 0.300270 0.483590 -0.591073
O4    O     O_R   0.389990 0.333260 0.516410 -0.647532
O5    O     O_R   0.651120 0.477360 0.659650 -0.558058
O6    O     O_R   0.431050 0.510340 0.692470 -0.616781
O7    O     O_R   0.610010 0.666740 0.483590 -0.590603
O8    O     O_R   0.389940 0.699730 0.516410 -0.543426
Zn1   Zn    Zn3+2 0.646940 0.477980 0.478090 1.040849
Zn2   Zn    Zn3+2 0.353060 0.522020 0.521910 0.978284

loop_
_geom_bond_atom_site_label_1
_geom_bond_atom_site_label_2
_ccdc_geom_bond_type
C4    O3    A    
C10   H16   S    
C14   H18   S    
C18   H9    S    
O2    Zn2   S    
C7    O8    A    
C17   H6    S    
C15   H21   S    
C2    H17   S    
C5    F2    S    
C3    N1    D    
C9    C10   A    
O5    Zn1   S    
C24   F1    S    
O6    Zn2   S    
C8    C12   A    
C10   C11   A    
C12   C20   A    
C19   H15   S    
C1    O1    A    
C15   H2    S    
C8    C16   S    
C14   H20   S    
C21   C22   A    
C24   C25   D    
C12   C13   A    
C21   H1    S    
C9    H12   S    
C6    C26   S    
C18   C25   S    
C3    C14   S    
C7    C23   S    
C15   N1    S    
C1    O2    A    
C19   H13   S    
O3    Zn1   S    
C2    C25   S    
C17   H8    S    
C16   H5    S    
O4    Zn2   S    
C16   H3    S    
N1    Zn2   S    
C14   H19   S    
F3    N2    S    
C17   H7    S    
C4    C20   S    
C6    O6    A    
C5    N2    D    
C11   C13   A    
C19   H14   S    
C13   C23   A    
C1    C24   S    
C2    C26   D    
N2    Zn1   S    
C18   H11   S    
C4    O4    A    
O7    Zn1   S    
C19   C26   S    
C18   H10   S    
C22   C23   A    
C11   C17   S    
O8    Zn2   S    
C22   F4    S    
C16   H4    S    
C20   C21   A    
C15   H22   S    
C6    O5    A    
C7    O7    A    
C8    C9    A    
C3    C5    S    
O1    Zn1   S    
