data_mof_unit_38946.cif
_audit_creation_date              2012-12-10T17:11:45-0500
_audit_creation_method            fapswitch 2.2
_symmetry_space_group_name_H-M    P1
_symmetry_Int_Tables_number       1
_space_group_crystal_system       triclinic
_cell_length_a                    19.005216
_cell_length_b                    10.6776
_cell_length_c                    10.010109
_cell_angle_alpha                 88.334304
_cell_angle_beta                  90.572228
_cell_angle_gamma                 90.207884
_cell_volume                      2030.38141377

loop_
_atom_site_label
_atom_site_type_symbol
_atom_type_description
_atom_site_fract_x
_atom_site_fract_y
_atom_site_fract_z
_atom_type_partial_charge
C1    C     C_R   0.503367 0.262496 0.502210 0.994597
C2    C     C_R   0.851992 0.593447 0.520729 -0.295864
C3    C     C_2   0.547950 0.936669 0.414278 0.437091
C4    C     C_R   0.365309 0.498508 0.499646 0.901179
C5    C     C_2   0.502380 0.870296 0.490566 -0.439387
C6    C     C_2   0.539140 0.071197 0.404542 -0.231271
C7    C     C_2   0.516562 0.131629 0.510267 -0.314197
C8    C     C_2   0.479987 0.593045 0.923311 0.064832
C9    C     C_2   0.489812 0.598826 0.071579 -0.010704
C10   C     C_R   0.502197 0.737576 0.497843 0.967267
C11   C     C_R   0.635560 0.494997 0.500898 1.022770
C12   C     C_R   0.289156 0.508033 0.499574 -0.166994
C13   C     C_R   0.248160 0.440703 0.594105 0.355710
C14   C     C_R   0.176858 0.467949 0.602705 -0.186702
C15   C     C_R   0.145598 0.558575 0.516949 0.016203
C16   C     C_R   0.186212 0.621061 0.419870 -0.110315
C17   C     C_R   0.257591 0.595810 0.411312 -0.225378
C18   C     C_R   0.928567 0.603359 0.530196 0.470556
C19   C     C_R   0.070019 0.581952 0.525860 0.300425
C20   C     C_R   0.812934 0.575453 0.638334 0.297794
C21   C     C_R   0.748019 0.512508 0.631270 0.175735
C22   C     C_R   0.713589 0.502740 0.505026 -0.386462
C23   C     C_R   0.753442 0.520691 0.386315 0.314216
C24   C     C_R   0.822220 0.566764 0.396223 0.557565
F1    F     F_    0.543730 0.416321 0.909384 -0.532049
F2    F     F_    0.861731 0.581756 0.284451 -0.569730
H1    H     H_    0.459985 0.914142 0.543868 0.134741
H2    H     H_    0.317946 0.206726 0.537674 0.339682
H3    H     H_    0.796480 0.706692 0.970990 0.430484
H4    H     H_    0.656264 0.578600 0.826862 0.371457
H5    H     H_    0.651739 0.330898 0.154668 0.404642
H6    H     H_    0.658269 0.023887 0.202637 0.372665
H7    H     H_    0.551375 0.120316 0.310977 0.195592
H8    H     H_    0.511562 0.085338 0.607914 0.186780
H9    H     H_    0.455073 0.672613 0.872700 0.086861
H10   H     H_    0.483757 0.688921 0.117036 0.165987
H11   H     H_    0.494061 0.414796 0.107442 0.246248
H12   H     H_    0.145635 0.417245 0.676322 0.208041
H13   H     H_    0.163154 0.690352 0.351663 0.179264
H14   H     H_    0.288757 0.648205 0.338698 0.173846
N1    N     N_R   0.036208 0.658342 0.435533 -0.136959
N2    N     N_R   0.966472 0.668591 0.437331 -0.048602
N3    N     N_R   0.962620 0.529179 0.621428 -0.093623
N4    N     N_R   0.031971 0.519297 0.619906 -0.134190
N5    N     N_2   0.500750 0.501330 0.852150 0.168123
N6    N     N_2   0.500770 0.501360 0.147810 -0.158651
O1    O     O_R   0.499990 0.319060 0.613040 -0.530912
O2    O     O_2   0.225642 0.233130 0.748204 -0.260681
O3    O     O_3   0.343074 0.236320 0.618038 -0.546144
O4    O     O_2   0.884392 0.542899 0.871159 -0.178909
O5    O     O_2   0.891295 0.750044 0.761238 -0.251168
O6    O     O_3   0.776087 0.690024 0.881772 -0.477727
O7    O     O_2   0.673624 0.313579 0.729621 -0.230841
O8    O     O_2   0.782986 0.364297 0.843790 -0.150475
O9    O     O_3   0.675889 0.507484 0.880621 -0.381215
O10   O     O_2   0.678021 0.575710 0.164887 -0.185787
O11   O     O_2   0.783194 0.448869 0.134919 -0.119576
O12   O     O_R   0.500010 0.319100 0.386900 -0.636911
O13   O     O_3   0.675152 0.340633 0.242645 -0.538249
O14   O     O_2   0.656425 0.776441 0.419145 -0.288565
O15   O     O_2   0.594069 0.808271 0.205842 -0.284528
O16   O     O_3   0.677745 0.984393 0.285736 -0.454718
O17   O     O_R   0.398130 0.499970 0.613110 -0.568226
O18   O     O_R   0.398150 0.500010 0.386970 -0.636127
O19   O     O_R   0.499990 0.680900 0.613100 -0.648629
O20   O     O_R   0.500010 0.680940 0.386960 -0.590260
O21   O     O_R   0.601850 0.499990 0.613030 -0.593189
O22   O     O_R   0.601870 0.500030 0.386890 -0.529309
O23   O     O_2   0.318087 0.377203 0.818843 -0.241091
S1    S     S_3+6 0.283192 0.319645 0.699940 0.060326
S2    S     S_3+6 0.843805 0.640037 0.791037 0.140952
S3    S     S_3+6 0.719956 0.419770 0.772770 0.179331
S4    S     S_3+6 0.722842 0.473266 0.226393 0.176617
S5    S     S_3+6 0.619838 0.871209 0.329407 0.089081
Zn1   Zn    Zn3+2 0.499990 0.499970 0.650990 1.132036
Zn2   Zn    Zn3+2 0.500010 0.500030 0.349010 1.045615

loop_
_geom_bond_atom_site_label_1
_geom_bond_atom_site_label_2
_ccdc_geom_bond_type
C12   C17   A    
C9    H10   S    
C23   C24   A    
C20   S2    S    
C6    C7    D    
O2    S1    D    
O15   S5    D    
C14   H12   S    
C18   N2    A    
H2    O3    S    
C4    O18   A    
C11   C22   S    
O9    S3    S    
H11   N6    S    
C6    H7    S    
N5    Zn1   S    
C8    H9    S    
O4    S2    D    
C3    C6    S    
O20   Zn2   S    
C21   C22   A    
C20   C21   A    
N6    Zn2   S    
O18   Zn2   S    
O1    Zn1   S    
C9    N6    D    
O6    S2    S    
C5    H1    S    
C1    O12   A    
C11   O22   A    
C15   C19   S    
C12   C13   A    
O22   Zn2   S    
C4    O17   A    
C19   N1    A    
C16   C17   A    
O5    S2    D    
C23   S4    S    
C2    C20   A    
O14   S5    D    
C2    C18   S    
C24   F2    S    
C21   S3    S    
O3    S1    S    
C10   O20   A    
N3    N4    A    
C2    C24   A    
O23   S1    D    
C7    H8    S    
C4    C12   S    
C13   S1    S    
C16   H13   S    
H5    O13   S    
C15   C16   A    
F1    N5    S    
C5    C10   S    
O21   Zn1   S    
C19   N4    A    
O17   Zn1   S    
N1    N2    A    
C10   O19   A    
C18   N3    A    
C3    S5    S    
O13   S4    S    
C14   C15   A    
O16   S5    S    
O10   S4    D    
H6    O16   S    
O8    S3    D    
C1    C7    S    
O12   Zn2   S    
C13   C14   A    
O7    S3    D    
O11   S4    D    
H4    O9    S    
C17   H14   S    
C22   C23   A    
C1    O1    A    
C8    N5    D    
C11   O21   A    
C8    C9    S    
C3    C5    D    
H3    O6    S    
O19   Zn1   S    
