data_mof_unit_58211.cif
_audit_creation_date              2013-03-05T16:41:05-0500
_audit_creation_method            fapswitch 2.2
_symmetry_space_group_name_H-M    P1
_symmetry_Int_Tables_number       1
_space_group_crystal_system       triclinic
_cell_length_a                    17.729036
_cell_length_b                    16.461859
_cell_length_c                    15.036482
_cell_angle_alpha                 90.40691
_cell_angle_beta                  91.424916
_cell_angle_gamma                 90.08538
_cell_volume                      4386.96697094

loop_
_atom_site_label
_atom_site_type_symbol
_atom_site_description
_atom_site_fract_x
_atom_site_fract_y
_atom_site_fract_z
_atom_type_partial_charge
O1    O     O_R   0.391260 0.567930 0.500000 -0.583520
O2    O     O_R   0.608740 0.432070 0.500000 -0.609999
O3    O     O_R   0.608740 0.567930 0.500000 -0.574437
O4    O     O_R   0.391260 0.432070 0.500000 -0.605079
C1    C     C_R   0.355472 0.499817 0.499643 0.889462
C2    C     C_R   0.644709 0.499940 0.498689 0.853916
O5    O     O_R   0.499990 0.567920 0.370260 -0.550011
O6    O     O_R   0.500010 0.432080 0.629740 -0.610685
O7    O     O_R   0.500010 0.567920 0.629740 -0.549113
O8    O     O_R   0.499990 0.432080 0.370260 -0.617023
C3    C     C_R   0.498489 0.499821 0.328685 0.933652
C4    C     C_R   0.499073 0.500215 0.671338 0.929247
Cu1   Cu    Cu3+1 0.500000 0.580420 0.500000 1.007707
Cu2   Cu    Cu3+1 0.500000 0.419580 0.500000 0.921830
C5    C     C_R   0.559977 0.533531 0.815600 0.344851
C6    C     C_R   0.429218 0.488135 0.185023 0.332148
C7    C     C_R   0.498004 0.501154 0.767841 -0.248807
C8    C     C_R   0.497519 0.500106 0.232273 -0.249305
C9    C     C_R   0.434327 0.472148 0.811351 0.368857
C10   C     C_R   0.564582 0.516733 0.188479 0.377549
C11   C     C_R   0.428618 0.485930 0.904153 -0.104730
C12   C     C_R   0.561804 0.531227 0.095894 -0.101987
C13   C     C_R   0.494203 0.510817 0.953246 -0.041362
C14   C     C_R   0.494828 0.510797 0.046987 -0.041214
C15   C     C_R   0.559211 0.536065 0.908733 -0.017196
C16   C     C_R   0.428295 0.490809 0.091682 -0.011555
C17   C     C_R   0.360179 0.475633 0.949669 0.321390
C18   C     C_R   0.623511 0.564753 0.050482 0.316916
C19   C     C_R   0.361195 0.477207 0.042540 -0.215493
C20   C     C_R   0.621673 0.565894 0.957757 -0.215409
H1    H     H_    0.308517 0.468740 0.076128 0.208787
H2    H     H_    0.669510 0.591266 0.924155 0.211852
C21   C     C_R   0.848006 0.570890 0.501128 0.435645
C22   C     C_R   0.155958 0.428442 0.530385 0.441434
C23   C     C_R   0.152809 0.562252 0.461040 0.428551
C24   C     C_R   0.845123 0.422457 0.497544 0.427983
C25   C     C_R   0.768686 0.571829 0.497663 -0.263944
C26   C     C_R   0.234910 0.432242 0.534210 -0.257102
C27   C     C_R   0.231941 0.562969 0.461104 -0.287179
C28   C     C_R   0.766112 0.424783 0.494225 -0.315611
H3    H     H_    0.739278 0.629417 0.496320 0.174326
H4    H     H_    0.266529 0.383716 0.565980 0.168619
H5    H     H_    0.261438 0.612814 0.430631 0.180289
H6    H     H_    0.734973 0.368185 0.489669 0.181203
C29   C     C_R   0.727598 0.499051 0.496702 -0.144419
C30   C     C_R   0.272953 0.498717 0.498743 -0.150360
C31   C     C_R   0.885695 0.495834 0.498098 -0.056784
C32   C     C_R   0.115188 0.494406 0.495144 -0.075147
C33   C     C_1   0.966578 0.494201 0.496856 0.078889
C34   C     C_1   0.034265 0.493636 0.495901 0.082834
C35   C     C_R   0.555125 0.828234 0.551938 0.215816
C36   C     C_R   0.443567 0.170154 0.455458 0.219885
C37   C     C_R   0.451598 0.828712 0.442763 0.209017
C38   C     C_R   0.552947 0.172831 0.555990 0.205719
C39   C     C_R   0.551092 0.742425 0.552373 0.002162
C40   C     C_R   0.446171 0.256001 0.453334 -0.039852
C41   C     C_R   0.450859 0.742768 0.446191 0.005631
C42   C     C_R   0.552613 0.258617 0.550503 -0.032492
H7    H     H_    0.590279 0.708202 0.593713 0.178801
H8    H     H_    0.403545 0.288699 0.415792 0.148289
H9    H     H_    0.411524 0.708749 0.404187 0.172718
H10   H     H_    0.593643 0.293677 0.589001 0.163520
N1    N     N_R   0.500000 0.701220 0.500000 -0.221434
N2    N     N_R   0.500000 0.298780 0.500000 -0.216402
C43   C     C_R   0.503971 0.872955 0.497319 -0.130385
C44   C     C_R   0.498337 0.127044 0.506528 -0.142798
C45   C     C_1   0.502419 0.962771 0.501110 0.198253
C46   C     C_1   0.500777 0.037240 0.504021 0.193216
O9    O     O_3   0.620436 0.565153 0.770681 -0.594311
C47   C     C_3   0.675621 0.504146 0.760841 0.020567
H11   H     H_    0.659074 0.463277 0.704362 0.139278
H12   H     H_    0.683744 0.466874 0.822097 0.144801
C48   C     C_3   0.750475 0.545165 0.741054 -0.299697
H13   H     H_    0.743999 0.579469 0.678207 0.214055
H14   H     H_    0.765599 0.588912 0.795277 0.240023
C49   C     C_3   0.813805 0.483388 0.732687 -0.921807
H15   H     H_    0.825063 0.453269 0.797519 0.274096
H16   H     H_    0.866019 0.514612 0.711997 0.253296
H17   H     H_    0.798098 0.436627 0.682166 0.253373
O10   O     O_3   0.362447 0.481547 0.230410 -0.606579
C50   C     C_3   0.344510 0.398703 0.241800 0.034044
H18   H     H_    0.376070 0.375129 0.300590 0.170117
H19   H     H_    0.358295 0.360543 0.182695 0.147104
C51   C     C_3   0.259983 0.391291 0.257435 -0.342656
H20   H     H_    0.244584 0.429051 0.315772 0.230488
H21   H     H_    0.228189 0.414100 0.198098 0.240773
C52   C     C_3   0.237181 0.303471 0.273791 -0.833699
H22   H     H_    0.258042 0.262998 0.220371 0.288082
H23   H     H_    0.174797 0.298993 0.273743 0.254024
H24   H     H_    0.260204 0.283126 0.339273 0.267297
O11   O     O_3   0.376885 0.435742 0.760620 -0.569836
C53   C     C_3   0.369138 0.352416 0.782571 0.104127
H25   H     H_    0.307836 0.338190 0.781170 0.209431
H26   H     H_    0.391052 0.336521 0.850436 0.116705
C54   C     C_3   0.407379 0.298575 0.713695 -0.385633
H27   H     H_    0.388655 0.316894 0.645679 0.251957
H28   H     H_    0.469514 0.306137 0.720480 0.231001
C55   C     C_3   0.388205 0.209101 0.726496 -0.849065
H29   H     H_    0.406926 0.188980 0.793847 0.271254
H30   H     H_    0.417442 0.171797 0.676186 0.270148
H31   H     H_    0.326452 0.199166 0.717998 0.257530
O12   O     O_3   0.631390 0.520977 0.238510 -0.566066
C56   C     C_3   0.677779 0.453100 0.219817 0.093998
H32   H     H_    0.736394 0.469652 0.240722 0.207630
H33   H     H_    0.679415 0.437923 0.147572 0.131668
C57   C     C_3   0.653957 0.378138 0.272169 -0.415445
H34   H     H_    0.649756 0.394454 0.343368 0.255263
H35   H     H_    0.597852 0.356556 0.247254 0.219638
C58   C     C_3   0.710818 0.309276 0.263434 -0.841603
H36   H     H_    0.716026 0.291253 0.192526 0.260817
H37   H     H_    0.691496 0.255878 0.301475 0.268295
H38   H     H_    0.766930 0.328490 0.290696 0.268365
N3    N     N_R   0.288430 0.470118 0.903447 0.138048
O13   O     O_R   0.270533 0.523130 0.842715 -0.292441
O14   O     O_R   0.236156 0.422447 0.932877 -0.373923
N4    N     N_R   0.686014 0.603035 0.096818 0.146142
O15   O     O_R   0.673626 0.658278 0.157029 -0.273325
O16   O     O_R   0.754115 0.594012 0.067971 -0.363120
O17   O     O_3   0.889778 0.642289 0.499033 -0.589748
C59   C     C_3   0.870220 0.696851 0.568163 0.024015
H39   H     H_    0.920826 0.706551 0.611843 0.167202
H40   H     H_    0.825288 0.674807 0.612566 0.123689
C60   C     C_3   0.846773 0.778243 0.527863 -0.340860
H41   H     H_    0.892308 0.800755 0.484830 0.240290
H42   H     H_    0.794712 0.769872 0.486092 0.236402
C61   C     C_3   0.832076 0.841476 0.600019 -0.776904
H43   H     H_    0.786708 0.820308 0.643915 0.293548
H44   H     H_    0.814123 0.899424 0.568701 0.286171
H45   H     H_    0.884264 0.852756 0.640692 0.240958
O18   O     O_3   0.117925 0.364893 0.569541 -0.607588
C62   C     C_3   0.130801 0.290971 0.523587 0.032583
H46   H     H_    0.118404 0.240704 0.569947 0.182056
H47   H     H_    0.190487 0.282618 0.504026 0.140650
C63   C     C_3   0.077847 0.283086 0.441841 -0.388535
H48   H     H_    0.018789 0.293359 0.461576 0.269828
H49   H     H_    0.092317 0.330009 0.392385 0.217398
C64   C     C_3   0.083423 0.199003 0.399156 -0.837611
H50   H     H_    0.142475 0.185917 0.380760 0.277016
H51   H     H_    0.046905 0.196340 0.338134 0.266066
H52   H     H_    0.064253 0.151821 0.446007 0.259982
O19   O     O_3   0.110993 0.624468 0.422357 -0.583793
C65   C     C_3   0.123915 0.699117 0.467793 0.116722
H53   H     H_    0.093258 0.746713 0.429414 0.197109
H54   H     H_    0.184377 0.717224 0.468859 0.145372
C66   C     C_3   0.093563 0.697671 0.562661 -0.402015
H55   H     H_    0.037344 0.668154 0.561494 0.251496
H56   H     H_    0.131980 0.661453 0.606343 0.225738
C67   C     C_3   0.086927 0.783118 0.601588 -0.851116
H57   H     H_    0.142787 0.813826 0.602856 0.272431
H58   H     H_    0.066499 0.779519 0.670669 0.262473
H59   H     H_    0.046021 0.819503 0.561420 0.254963
O20   O     O_3   0.883193 0.349077 0.492025 -0.617756
C68   C     C_3   0.870620 0.301045 0.568173 0.039444
H60   H     H_    0.875950 0.236280 0.548081 0.189323
H61   H     H_    0.812962 0.307458 0.595141 0.154274
C69   C     C_3   0.930368 0.319170 0.641044 -0.371097
H62   H     H_    0.986616 0.300782 0.617551 0.255930
H63   H     H_    0.932057 0.385279 0.655931 0.231828
C70   C     C_3   0.914102 0.273251 0.726234 -0.832205
H64   H     H_    0.858761 0.292063 0.752592 0.260509
H65   H     H_    0.958740 0.287032 0.777243 0.269334
H66   H     H_    0.913456 0.206741 0.713226 0.264946
N5    N     N_R   0.611991 0.868302 0.606140 0.137976
O21   O     O_R   0.634381 0.836555 0.681270 -0.341713
O22   O     O_R   0.648853 0.929958 0.575276 -0.316891
N6    N     N_R   0.384548 0.128286 0.406496 0.143014
O23   O     O_R   0.359339 0.156882 0.331016 -0.365047
O24   O     O_R   0.349896 0.067105 0.441642 -0.313969
N7    N     N_R   0.399680 0.869270 0.382991 0.152139
O25   O     O_R   0.334954 0.835998 0.362009 -0.341711
O26   O     O_R   0.420462 0.933775 0.340446 -0.279328
N8    N     N_R   0.607744 0.133998 0.613431 0.144711
O27   O     O_R   0.673476 0.167454 0.628163 -0.373215
O28   O     O_R   0.588554 0.072044 0.661162 -0.290839

loop_
_geom_bond_atom_site_label_1
_geom_bond_atom_site_label_2
_geom_bond_distance
_ccdc_geom_bond_type
C42   H10   1.081834 S    
C44   C46   1.479273 S    
C52   H22   1.110766 S    
C3    C8    1.449408 S    
C61   H43   1.110352 S    
C2    C29   1.470675 S    
C39   H7    1.082182 S    
C17   C19   1.396182 A    
O12   C56   1.419049 S    
N7    O26   1.301076 A    
N7    O25   1.301535 A    
N5    O21   1.301384 A    
C51   C52   1.523858 S    
C62   C63   1.532681 S    
C66   C67   1.525525 S    
C63   C64   1.525965 S    
C66   H55   1.107874 S    
C54   C55   1.525732 S    
C60   H41   1.111855 S    
C31   C33   1.434853 S    
C59   H39   1.109326 S    
O5    C3    1.279599 A    
C64   H51   1.110307 S    
O1    C1    1.287424 A    
C49   H16   1.110432 S    
C69   H62   1.108043 S    
C9    C11   1.418277 A    
C67   H58   1.110479 S    
C26   H4    1.083521 S    
C58   H37   1.110495 S    
C35   C43   1.418615 A    
O10   C50   1.412448 S    
C5    C15   1.401134 A    
C10   O12   1.388671 S    
C57   H34   1.106247 S    
N4    O15   1.301430 A    
C24   C31   1.404827 A    
C48   H13   1.107915 S    
C33   C34   1.200516 T    
O7    Cu1   1.963103 S    
C18   N4    1.436583 S    
C60   H42   1.111279 S    
C50   H19   1.116931 S    
C70   H65   1.110344 S    
C54   H27   1.111247 S    
N8    O28   1.300967 A    
C43   C45   1.479547 S    
C39   N1    1.362302 A    
C4    C7    1.451634 S    
C61   H44   1.110353 S    
C13   C14   1.409307 A    
C40   N2    1.362628 A    
C35   N5    1.437103 S    
C47   H11   1.113020 S    
C68   H61   1.113933 S    
C37   C43   1.420270 A    
C8    C10   1.400969 A    
O3    Cu1   1.939093 S    
C59   C60   1.528369 S    
C37   N7    1.438757 S    
C36   N6    1.436738 S    
O3    C2    1.289261 A    
C32   C34   1.435051 S    
C11   C17   1.418328 A    
C12   C18   1.417190 A    
Cu1   Cu2   2.647727 S    
N6    O24   1.301123 A    
C48   H14   1.111528 S    
C65   C66   1.537391 S    
O2    C2    1.286128 A    
C23   C32   1.406478 A    
C66   H56   1.111458 S    
C59   H40   1.114038 S    
C41   N1    1.362362 A    
C6    C16   1.404211 A    
C28   C29   1.401955 A    
C5    O9    1.383989 S    
C64   H52   1.110836 S    
C45   C46   1.226787 T    
C38   N8    1.437498 S    
C24   C28   1.401023 A    
C67   H59   1.110925 S    
C49   H15   1.110623 S    
O8    Cu2   1.963105 S    
C58   H38   1.111158 S    
O11   C53   1.420376 S    
C37   C41   1.416152 A    
C24   O20   1.387589 S    
C60   C61   1.525591 S    
C63   H49   1.110195 S    
C42   N2    1.362943 A    
C53   C54   1.530191 S    
C50   H18   1.107277 S    
C40   H8    1.078798 S    
C6    O10   1.385546 S    
C23   C27   1.402937 A    
C70   H64   1.110896 S    
Cu1   N1    1.988591 S    
C28   H6    1.083147 S    
O6    C4    1.280699 A    
Cu2   N2    1.988591 S    
C47   C48   1.524960 S    
C53   H26   1.115831 S    
C70   H66   1.110848 S    
C56   H33   1.114032 S    
C51   H20   1.111323 S    
C68   C69   1.532452 S    
C1    C30   1.462792 S    
C23   O19   1.387866 S    
C27   C30   1.399324 A    
C17   N3    1.436722 S    
C10   C12   1.413788 A    
C21   O17   1.389253 S    
C55   H30   1.109913 S    
C11   C13   1.419995 A    
N6    O23   1.300946 A    
C21   C31   1.406532 A    
C48   C49   1.522918 S    
C12   C14   1.419769 A    
O1    Cu1   1.938486 S    
C25   C29   1.401022 A    
C62   H46   1.110967 S    
C50   C51   1.527498 S    
C36   C44   1.417362 A    
N8    O27   1.301530 A    
N3    O13   1.301504 A    
C38   C42   1.415215 A    
C15   C20   1.401233 A    
C5    C7    1.400196 A    
O6    Cu2   1.960196 S    
N5    O22   1.300934 A    
C22   C26   1.400782 A    
C69   C70   1.525412 S    
C14   C16   1.411624 A    
O4    C1    1.283890 A    
C62   H47   1.113770 S    
C27   H5    1.082911 S    
O17   C59   1.418824 S    
C54   H28   1.110509 S    
C41   H9    1.082013 S    
C63   H48   1.108255 S    
C38   C44   1.418696 A    
C55   H31   1.110825 S    
C64   H50   1.110498 S    
C61   H45   1.110992 S    
C18   C20   1.394083 A    
O18   C62   1.416738 S    
C19   H1    1.082040 S    
O4    Cu2   1.939095 S    
O19   C65   1.417329 S    
C20   H2    1.082711 S    
C57   H35   1.111083 S    
C69   H63   1.109711 S    
C53   H25   1.111088 S    
C7    C9    1.403585 A    
N4    O16   1.301390 A    
C56   C57   1.532848 S    
C35   C39   1.414353 A    
C67   H57   1.110906 S    
C13   C15   1.410653 A    
C25   H3    1.082667 S    
O9    C47   1.412711 S    
O2    Cu2   1.938484 S    
O7    C4    1.282218 A    
C21   C25   1.406053 A    
C26   C30   1.400283 A    
C9    O11   1.389698 S    
O8    C3    1.282264 A    
O5    Cu1   1.960199 S    
C49   H17   1.108021 S    
C22   C32   1.404932 A    
O20   C68   1.418071 S    
C22   O18   1.386398 S    
C16   C19   1.401596 A    
C6    C8    1.401589 A    
C55   H29   1.110773 S    
C52   H24   1.110562 S    
C56   H32   1.111136 S    
C52   H23   1.108330 S    
C65   H53   1.111054 S    
C51   H21   1.111375 S    
C47   H12   1.116806 S    
C68   H60   1.110873 S    
C58   H36   1.110781 S    
C65   H54   1.111874 S    
C36   C40   1.414504 A    
N3    O14   1.301440 A    
C57   C58   1.525256 S    
