data_mof_unit_8758.cif
_audit_creation_date              2012-10-26T20:31:59-0400
_audit_creation_method            fapswitch 2.2
_symmetry_space_group_name_H-M    P1
_symmetry_Int_Tables_number       1
_space_group_crystal_system       triclinic
_cell_length_a                    10.624541
_cell_length_b                    10.801524
_cell_length_c                    9.555564
_cell_angle_alpha                 89.736752
_cell_angle_beta                  89.543997
_cell_angle_gamma                 90.416548
_cell_volume                      1096.53274345

loop_
_atom_site_label
_atom_site_type_symbol
_atom_type_description
_atom_site_fract_x
_atom_site_fract_y
_atom_site_fract_z
_atom_type_partial_charge
C1    C     C_R   0.500958 0.262458 0.500372 0.544705
C2    C     C_R   0.463206 0.935260 0.617998 0.009713
C3    C     C_3   0.335247 0.929594 0.684696 -0.136095
C4    C     C_R   0.259303 0.500610 0.500514 0.550206
C5    C     C_3   0.338676 0.070229 0.688433 -0.251122
C6    C     C_R   0.596001 0.554490 0.072181 0.141380
C7    C     C_R   0.414003 0.432687 0.076373 0.000321
C8    C     C_R   0.412209 0.432647 0.925474 0.391709
C9    C     C_R   0.596713 0.553535 0.925400 0.115408
C10   C     C_3   0.640965 0.684569 0.917057 -0.271020
C11   C     C_3   0.637308 0.686567 0.076085 -0.268989
C12   C     C_3   0.960740 0.493770 0.366829 -0.113688
C13   C     C_R   0.500421 0.737581 0.499880 0.537325
C14   C     C_R   0.740703 0.500242 0.499476 0.541865
C15   C     C_3   0.039239 0.508404 0.632983 -0.110892
C16   C     C_3   0.956775 0.402977 0.573294 -0.126427
C17   C     C_3   0.877631 0.500636 0.498477 0.047539
C18   C     C_3   0.957843 0.606014 0.558079 -0.130475
C19   C     C_3   0.043313 0.599103 0.426627 -0.127409
C20   C     C_1   0.336301 0.872285 0.824584 0.195996
C21   C     C_3   0.213264 0.337947 0.917781 -0.166269
C22   C     C_3   0.042101 0.396052 0.441741 -0.126964
C23   C     C_3   0.122380 0.501338 0.501428 0.047169
C24   C     C_R   0.464819 0.063112 0.618711 0.011532
C25   C     C_R   0.508807 0.129295 0.502340 0.005084
C26   C     C_R   0.564554 0.065563 0.390458 -0.160014
C27   C     C_R   0.564172 0.936481 0.390257 -0.156878
C28   C     C_R   0.507050 0.870924 0.501237 -0.000957
Cu1   Cu    Cu3+1 0.499990 0.499980 0.640670 1.007092
Cu2   Cu    Cu3+1 0.500010 0.500020 0.359330 0.932679
H1    H     H_    0.918406 0.322721 0.633257 0.105761
H2    H     H_    0.920111 0.691835 0.605615 0.104266
H3    H     H_    0.081934 0.679368 0.366877 0.114169
H4    H     H_    0.925980 0.487836 0.257771 0.115835
H5    H     H_    0.079826 0.310179 0.394323 0.101675
H6    H     H_    0.605254 0.115164 0.302098 0.134180
H7    H     H_    0.605757 0.888442 0.302495 0.122719
H8    H     H_    0.261782 0.890539 0.614950 0.107329
H9    H     H_    0.144118 0.305312 0.839534 0.136691
H10   H     H_    0.174586 0.423450 0.965972 0.103832
H11   H     H_    0.222981 0.262584 0.996352 0.102989
H12   H     H_    0.266638 0.113830 0.620650 0.121441
H13   H     H_    0.345431 0.110479 0.795059 0.176274
H14   H     H_    0.346636 0.379150 0.136885 0.114746
H15   H     H_    0.737903 0.692101 0.873034 0.119900
H16   H     H_    0.571686 0.747409 0.868377 0.180013
H17   H     H_    0.731750 0.697920 0.123784 0.118407
H18   H     H_    0.563062 0.748306 0.118109 0.168338
H19   H     H_    0.073543 0.515911 0.741953 0.126109
N1    N     N_R   0.500800 0.500930 0.147930 -0.255797
N2    N     N_R   0.500800 0.500890 0.852020 -0.213487
N3    N     N_1   0.336270 0.827277 0.934737 -0.327196
O1    O     O_R   0.500000 0.319640 0.618810 -0.458613
O2    O     O_R   0.500010 0.319680 0.381230 -0.516963
O3    O     O_R   0.316850 0.499950 0.618770 -0.452199
O4    O     O_R   0.316860 0.499990 0.381190 -0.514859
O5    O     O_R   0.499990 0.680320 0.618770 -0.507175
O6    O     O_R   0.500000 0.680360 0.381190 -0.504223
O7    O     O_R   0.683140 0.500010 0.618810 -0.510826
O8    O     O_R   0.683150 0.500050 0.381230 -0.507375
O9    O     O_3   0.328985 0.360301 0.848440 -0.538488

loop_
_geom_bond_atom_site_label_1
_geom_bond_atom_site_label_2
_ccdc_geom_bond_type
C12   C17   S    
C10   H16   S    
C15   C18   S    
C19   C23   S    
C1    O2    A    
C13   C28   S    
Cu2   O4    S    
Cu1   Cu2   S    
C22   H5    S    
C14   O8    A    
C9    C10   S    
C2    C24   A    
C21   O9    S    
C21   H9    S    
C8    O9    S    
C5    H12   S    
C2    C28   A    
C6    C9    A    
C15   C23   S    
C2    C3    S    
Cu2   N1    S    
C3    C20   S    
C20   N3    T    
C7    H14   S    
C4    O4    A    
C16   H1    S    
C1    C25   S    
C14   O7    A    
Cu2   O2    S    
C14   C17   S    
C11   H18   S    
C5    C24   S    
Cu1   O1    S    
C27   H7    S    
C21   H11   S    
Cu2   O6    S    
C12   C19   S    
C26   H6    S    
C25   C26   A    
Cu1   O5    S    
C17   C18   S    
C15   H19   S    
C4    O3    A    
C26   C27   A    
C18   H2    S    
C10   C11   S    
C6    C11   S    
C12   H4    S    
C15   C16   S    
C9    N2    A    
C12   C22   S    
C7    C8    A    
C13   O5    A    
C24   C25   A    
C7    N1    A    
C18   C19   S    
Cu1   N2    S    
C10   H15   S    
C8    N2    A    
C27   C28   A    
C4    C23   S    
C1    O1    A    
C22   C23   S    
C5    H13   S    
C16   C22   S    
C13   O6    A    
Cu1   O3    S    
C19   H3    S    
C11   H17   S    
C6    N1    A    
Cu1   O7    S    
C3    H8    S    
Cu2   O8    S    
C16   C17   S    
C3    C5    S    
C21   H10   S    
