data_mof_unit_41841.cif
_audit_creation_date              2012-12-11T15:56:40-0500
_audit_creation_method            fapswitch 2.2
_symmetry_space_group_name_H-M    P1
_symmetry_Int_Tables_number       1
_space_group_crystal_system       triclinic
_cell_length_a                    14.634261
_cell_length_b                    7.159584
_cell_length_c                    13.642354
_cell_angle_alpha                 90.00005
_cell_angle_beta                  99.983282
_cell_angle_gamma                 89.999861
_cell_volume                      1407.73751373

loop_
_atom_site_label
_atom_site_type_symbol
_atom_type_description
_atom_site_fract_x
_atom_site_fract_y
_atom_site_fract_z
_atom_type_partial_charge
O1    O     O_R   0.336930 0.638190 0.166330 -0.524093
O2    O     O_R   0.663070 0.361810 0.833670 -0.524093
O3    O     O_R   0.163070 0.138190 0.333670 -0.524096
O4    O     O_R   0.836930 0.861810 0.666330 -0.524097
O5    O     O_R   0.147900 0.305430 0.139630 -0.531355
O6    O     O_R   0.852100 0.694570 0.860370 -0.531355
O7    O     O_R   0.352100 0.805430 0.360370 -0.531351
O8    O     O_R   0.647900 0.194570 0.639630 -0.531351
C1    C     C_R   0.115221 0.477648 0.112921 0.741995
C2    C     C_R   0.884779 0.522352 0.887079 0.741995
C3    C     C_R   0.384778 0.977648 0.387080 0.741994
C4    C     C_R   0.615222 0.022352 0.612919 0.741994
O9    O     O_R   0.335280 0.308290 0.154310 -0.537953
O10   O     O_R   0.664720 0.691710 0.845690 -0.537953
O11   O     O_R   0.164720 0.808290 0.345690 -0.537952
O12   O     O_R   0.835280 0.191710 0.654310 -0.537952
O13   O     O_R   0.351790 0.140890 0.348460 -0.531690
O14   O     O_R   0.648210 0.859110 0.651540 -0.531690
O15   O     O_R   0.148210 0.640890 0.151540 -0.531690
O16   O     O_R   0.851790 0.359110 0.848460 -0.531690
C5    C     C_R   0.365808 0.477772 0.135005 0.716601
C6    C     C_R   0.634192 0.522227 0.864995 0.716601
C7    C     C_R   0.134194 0.977773 0.364994 0.716607
C8    C     C_R   0.865806 0.022227 0.635006 0.716607
O17   O     O_3   0.255200 0.472570 0.313680 -0.369412
O18   O     O_3   0.744800 0.527430 0.686320 -0.369412
O19   O     O_3   0.244800 0.972570 0.186320 -0.369420
O20   O     O_3   0.755200 0.027430 0.813680 -0.369420
V1    V     V_3+5 0.249040 0.196590 0.238190 1.515519
V2    V     V_3+5 0.750960 0.803410 0.761810 1.515519
V3    V     V_3+5 0.250960 0.696590 0.261810 1.515525
V4    V     V_3+5 0.749040 0.303410 0.738190 1.515525
C9    C     C_R   0.062243 0.851420 0.504368 -0.168137
C10   C     C_R   0.937757 0.148580 0.495632 -0.168137
C11   C     C_R   0.437751 0.351446 0.995626 -0.168168
C12   C     C_R   0.562249 0.648554 0.004374 -0.168168
H1    H     H_    0.111179 0.736710 0.510011 0.164839
H2    H     H_    0.888821 0.263290 0.489988 0.164839
H3    H     H_    0.388814 0.236757 0.989979 0.164829
H4    H     H_    0.611186 0.763243 0.010021 0.164829
C13   C     C_R   0.000061 0.859289 0.571712 0.170413
C14   C     C_R   0.999939 0.140711 0.428288 0.170412
C15   C     C_R   0.499930 0.359317 0.928276 0.170419
C16   C     C_R   0.500070 0.640683 0.071723 0.170419
C17   C     C_R   0.935923 0.009310 0.567643 -0.113608
C18   C     C_R   0.064077 0.990690 0.432357 -0.113608
C19   C     C_R   0.564075 0.509312 0.932354 -0.113609
C20   C     C_R   0.435925 0.490687 0.067645 -0.113610
C21   C     C_1   0.533972 0.008167 0.533061 -0.136981
C22   C     C_1   0.466028 0.991833 0.466939 -0.136981
C23   C     C_1   0.966028 0.508166 0.966938 -0.137000
C24   C     C_1   0.033972 0.491833 0.033062 -0.137000
I1    I     I_    0.015652 0.642326 0.679943 -0.396109
I2    I     I_    0.984348 0.357674 0.320057 -0.396109
I3    I     I_    0.484310 0.142417 0.820007 -0.396117
I4    I     I_    0.515690 0.857583 0.179992 -0.396117

loop_
_geom_bond_atom_site_label_1
_geom_bond_atom_site_label_2
_ccdc_geom_bond_type
O2    C6    A    
C11   H3    S    
O1    C5    A    
O14   V2    S    
O19   V1    S    
C11   C15   A    
C16   I4    S    
O3    C7    A    
C10   C14   A    
O1    V3    S    
O8    C4    A    
C5    C20   S    
O15   V3    S    
O10   C6    A    
O20   V2    S    
C4    C21   S    
C9    C13   A    
O12   C8    A    
C10   C17   A    
C14   I2    S    
O18   V4    S    
C9    C18   A    
C13   I1    S    
O5    C1    A    
C1    C24   S    
O10   V2    S    
C2    C23   S    
O11   C7    A    
O6    V2    S    
C8    C17   S    
C6    C19   S    
O5    V1    S    
C14   C18   A    
O4    C8    A    
O4    V2    S    
C12   C16   A    
O7    V3    S    
O6    C2    A    
C11   C20   A    
O9    C5    A    
C23   C24   T    
O8    V4    S    
C12   H4    S    
O3    V1    S    
O13   V1    S    
O11   V3    S    
C12   C19   A    
O2    V4    S    
C21   C22   T    
O16   V4    S    
C15   I3    S    
C7    C18   S    
C3    C22   S    
O12   V4    S    
C3    O13   A    
O7    C3    A    
C13   C17   A    
C10   H2    S    
C15   C19   A    
O17   V3    S    
C1    O15   A    
C9    H1    S    
C16   C20   A    
O9    V1    S    
C2    O16   A    
C4    O14   A    
