data_mof_unit_34320.cif
_audit_creation_date              2012-12-10T17:28:32-0500
_audit_creation_method            fapswitch 2.2
_symmetry_space_group_name_H-M    P1
_symmetry_Int_Tables_number       1
_space_group_crystal_system       triclinic
_cell_length_a                    10.616145
_cell_length_b                    11.932642
_cell_length_c                    12.90033
_cell_angle_alpha                 92.986286
_cell_angle_beta                  89.925927
_cell_angle_gamma                 86.301584
_cell_volume                      1628.56079665

loop_
_atom_site_label
_atom_site_type_symbol
_atom_type_description
_atom_site_fract_x
_atom_site_fract_y
_atom_site_fract_z
_atom_type_partial_charge
C1    C     C_R   0.498743 0.521822 0.700565 0.891089
C2    C     C_R   0.485173 0.562082 0.132160 -0.264841
C3    C     C_R   0.510538 0.446459 0.974421 0.177375
C4    C     C_R   0.489461 0.553541 0.025579 0.177375
C5    C     C_R   0.364475 0.956416 0.419369 0.287392
C6    C     C_R   0.635525 0.043584 0.580631 0.287392
C7    C     C_R   0.380457 0.839587 0.425296 -0.059430
C8    C     C_R   0.619543 0.160413 0.574703 -0.059430
C9    C     C_R   0.560932 0.856352 0.531708 -0.038582
C10   C     C_R   0.439068 0.143647 0.468292 -0.038582
C11   C     C_R   0.550083 0.974624 0.528535 -0.054120
C12   C     C_R   0.501257 0.478178 0.299435 0.891089
C13   C     C_R   0.449917 0.025376 0.471465 -0.054120
C14   C     C_R   0.739809 0.498158 0.484093 0.897687
C15   C     C_R   0.260191 0.501842 0.515907 0.897687
C16   C     C_R   0.904998 0.287646 0.452302 -0.144837
C17   C     C_R   0.095001 0.712354 0.547698 -0.144837
C18   C     C_R   0.968144 0.189546 0.484643 -0.069702
C19   C     C_R   0.031856 0.810454 0.515356 -0.069702
C20   C     C_R   0.075205 0.196455 0.545945 -0.084147
C21   C     C_R   0.924795 0.803545 0.454055 -0.084147
C22   C     C_R   0.124377 0.300595 0.567854 -0.146161
C23   C     C_R   0.502521 0.465347 0.188252 -0.061878
C24   C     C_R   0.875623 0.699405 0.432145 -0.146161
C25   C     C_R   0.066570 0.399848 0.528275 0.088867
C26   C     C_R   0.933429 0.600151 0.471725 0.088867
C27   C     C_R   0.948275 0.394662 0.481598 0.083932
C28   C     C_R   0.051725 0.605338 0.518402 0.083932
C29   C     C_R   0.124079 0.503604 0.532611 -0.248913
C30   C     C_R   0.875921 0.496395 0.467389 -0.248913
C31   C     C_R   0.497479 0.534653 0.811748 -0.061878
C32   C     C_R   0.473303 0.650507 0.969509 -0.197744
C33   C     C_R   0.526696 0.349493 0.030491 -0.197744
C34   C     C_R   0.477338 0.641076 0.862212 -0.184880
C35   C     C_R   0.522662 0.358924 0.137788 -0.184880
C36   C     C_R   0.514827 0.437918 0.867840 -0.264841
Cl1   Cl    Cl    0.236574 0.011700 0.346918 -0.681572
Cl2   Cl    Cl    0.763426 0.988300 0.653082 -0.681572
H1    H     H_    0.878186 0.879083 0.425349 0.153635
H2    H     H_    0.531219 0.355453 0.828878 0.169916
H3    H     H_    0.536164 0.283650 0.180977 0.173684
H4    H     H_    0.463836 0.716350 0.819023 0.173684
H5    H     H_    0.457274 0.732920 0.008451 0.155059
H6    H     H_    0.542726 0.267080 0.991549 0.155059
H7    H     H_    0.364707 0.185557 0.424718 0.201326
H8    H     H_    0.635293 0.814443 0.575282 0.201326
H9    H     H_    0.685035 0.213945 0.613824 0.177327
H10   H     H_    0.314965 0.786055 0.386176 0.177327
H11   H     H_    0.121814 0.120917 0.574651 0.153635
H12   H     H_    0.822771 0.279108 0.403717 0.154965
H13   H     H_    0.177229 0.720892 0.596283 0.154965
H14   H     H_    0.932464 0.108430 0.463949 0.160597
H15   H     H_    0.067536 0.891570 0.536050 0.160597
H16   H     H_    0.206831 0.302938 0.616958 0.156207
H17   H     H_    0.793169 0.697062 0.383042 0.156207
H18   H     H_    0.468780 0.644547 0.171122 0.169916
N1    N     N_R   0.523130 0.207800 0.519340 -0.140499
N2    N     N_R   0.476870 0.792200 0.480660 -0.140499
O1    O     O_R   0.506170 0.421700 0.658830 -0.627370
O2    O     O_R   0.493830 0.578300 0.341170 -0.627370
O3    O     O_R   0.491330 0.609310 0.646410 -0.624085
O4    O     O_R   0.508670 0.390690 0.353590 -0.624086
O5    O     O_R   0.690650 0.406190 0.506220 -0.623922
O6    O     O_R   0.309350 0.593810 0.493780 -0.623922
O7    O     O_R   0.675800 0.593810 0.493800 -0.618551
O8    O     O_R   0.324200 0.406190 0.506200 -0.618550
Zn1   Zn    Zn3+2 0.509910 0.374730 0.508290 0.942176
Zn2   Zn    Zn3+2 0.490090 0.625270 0.491710 0.942176

loop_
_geom_bond_atom_site_label_1
_geom_bond_atom_site_label_2
_ccdc_geom_bond_type
C2    C4    A    
C15   O6    A    
C6    Cl2   S    
C15   C29   S    
C20   H11   S    
C5    Cl1   S    
C8    N1    A    
C25   C27   A    
C11   C13   A    
C7    N2    A    
C5    C13   A    
C21   H1    S    
C36   H2    S    
O7    Zn2   S    
O1    Zn1   S    
C7    H10   S    
C19   H15   S    
C10   H7    S    
C6    C8    A    
O8    Zn1   S    
C8    H9    S    
C18   H14   S    
C9    H8    S    
C22   H16   S    
C2    H18   S    
C15   O8    A    
C27   C30   A    
C9    C11   A    
O3    Zn2   S    
C17   H13   S    
C4    C32   A    
C3    C36   A    
N1    Zn1   S    
C6    C11   A    
C14   O5    A    
O6    Zn2   S    
C16   C27   A    
C28   C29   A    
C33   C35   A    
C32   H5    S    
C16   H12   S    
C10   C13   A    
C26   C30   A    
C23   C35   A    
C1    O1    A    
C25   C29   A    
C35   H3    S    
C33   H6    S    
O5    Zn1   S    
C31   C34   A    
O4    Zn1   S    
C20   C22   A    
C3    C4    A    
C12   O2    A    
C1    C31   S    
C10   N1    A    
C12   O4    A    
O2    Zn2   S    
C18   C20   A    
C16   C18   A    
C9    N2    A    
C21   C24   A    
N2    Zn2   S    
C2    C23   A    
C5    C7    A    
C3    C33   A    
C31   C36   A    
C17   C19   A    
C12   C23   S    
C19   C21   A    
C32   C34   A    
C14   C30   S    
C17   C28   A    
C26   C28   A    
C14   O7    A    
C24   C26   A    
C34   H4    S    
C24   H17   S    
C22   C25   A    
C1    O3    A    
