data_mof_unit_64949.cif
_audit_creation_date              2013-03-05T16:44:54-0500
_audit_creation_method            fapswitch 2.2
_symmetry_space_group_name_H-M    P1
_symmetry_Int_Tables_number       1
_space_group_crystal_system       triclinic
_cell_length_a                    16.036426
_cell_length_b                    19.171592
_cell_length_c                    19.179494
_cell_angle_alpha                 94.82206
_cell_angle_beta                  94.964563
_cell_angle_gamma                 90.657744
_cell_volume                      5852.65810807

loop_
_atom_site_label
_atom_site_type_symbol
_atom_site_description
_atom_site_fract_x
_atom_site_fract_y
_atom_site_fract_z
_atom_type_partial_charge
Zn1   Zn    Zn3+2 0.430910 0.557800 0.557800 0.999099
Zn2   Zn    Zn3+2 0.574380 0.447110 0.559460 1.064187
Zn3   Zn    Zn3+2 0.563780 0.559000 0.446630 0.988019
Zn4   Zn    Zn3+2 0.430930 0.436090 0.436110 0.972836
O1    O     O_3   0.500000 0.500000 0.500000 -0.506020
O2    O     O_R   0.456880 0.340240 0.450910 -0.640855
O3    O     O_R   0.446420 0.655480 0.544820 -0.627624
O4    O     O_R   0.557280 0.467820 0.657110 -0.597412
O5    O     O_R   0.539420 0.536460 0.347160 -0.604830
O6    O     O_R   0.688130 0.469010 0.547620 -0.623786
O7    O     O_R   0.315580 0.449250 0.449280 -0.658191
O8    O     O_R   0.680710 0.547310 0.468650 -0.642878
O9    O     O_R   0.315580 0.534430 0.534450 -0.642111
O10   O     O_R   0.456860 0.545290 0.655940 -0.632755
O11   O     O_R   0.446440 0.450430 0.339790 -0.620242
O12   O     O_R   0.557290 0.347960 0.537250 -0.595272
O13   O     O_R   0.539410 0.656320 0.467010 -0.633346
C1    C     C_R   0.508514 0.310782 0.492538 0.910153
C2    C     C_R   0.492602 0.689669 0.508158 0.834499
C3    C     C_R   0.508775 0.508223 0.689910 0.948524
C4    C     C_R   0.489624 0.493215 0.309297 0.904563
C5    C     C_R   0.724069 0.510039 0.509772 0.807194
C6    C     C_R   0.275891 0.489928 0.490268 0.823066
C7    C     C_1   0.813469 0.513158 0.511456 -0.111532
C8    C     C_2   0.977905 0.521173 0.509263 -0.248951
C9    C     C_2   0.023600 0.464189 0.496331 0.528288
C10   C     C_1   0.112883 0.474214 0.492802 -0.160570
C11   C     C_1   0.888431 0.516511 0.511023 0.095104
C12   C     C_1   0.187169 0.481956 0.490709 -0.149868
H1    H     H_    0.007787 0.572667 0.518969 0.124742
C13   C     C_R   0.496321 0.766896 0.517306 -0.171222
C14   C     C_R   0.566100 0.805255 0.498730 0.361355
C15   C     C_R   0.565972 0.879050 0.505569 0.201831
C16   C     C_R   0.498824 0.913840 0.535714 0.165743
C17   C     C_R   0.433276 0.875469 0.558169 -0.229441
C18   C     C_R   0.431253 0.802787 0.548130 -0.248116
C19   C     C_R   0.474516 0.130610 0.552909 0.423817
C20   C     C_R   0.486125 0.203799 0.555500 0.174883
C21   C     C_R   0.490872 0.088141 0.491154 0.162733
N1    N     N_2   0.495999 0.987598 0.543849 -0.072193
N2    N     N_2   0.490997 0.013655 0.486302 -0.140881
C22   C     C_R   0.504088 0.234722 0.494072 -0.179356
H2    H     H_    0.382245 0.902293 0.581757 0.169602
H3    H     H_    0.378285 0.774560 0.564269 0.199215
C23   C     C_R   0.513097 0.192765 0.432079 -0.260159
C24   C     C_R   0.508161 0.120257 0.431157 -0.198154
H4    H     H_    0.525873 0.216277 0.384577 0.190069
H5    H     H_    0.518467 0.088600 0.383285 0.194718
C25   C     C_R   0.478688 0.495433 0.231526 -0.320538
C26   C     C_R   0.514694 0.551188 0.199550 0.304958
C27   C     C_R   0.507698 0.552004 0.125995 0.160773
C28   C     C_R   0.463934 0.497146 0.083700 0.021319
C29   C     C_R   0.422787 0.444499 0.115164 0.144905
C30   C     C_R   0.427873 0.444703 0.189065 0.312213
C31   C     C_R   0.482227 0.447158 0.868552 0.228269
C32   C     C_R   0.470841 0.452812 0.795598 0.315433
C33   C     C_R   0.525125 0.501388 0.912415 0.096177
N3    N     N_2   0.460453 0.493560 0.009258 -0.036850
N4    N     N_2   0.529964 0.503111 0.986642 -0.060269
C34   C     C_R   0.509646 0.509047 0.766328 -0.299173
C35   C     C_R   0.555890 0.561359 0.810394 0.226810
C36   C     C_R   0.562685 0.556547 0.883026 -0.222417
H6    H     H_    0.596198 0.597062 0.917605 0.242447
O14   O     O_3   0.983616 0.398875 0.481458 -0.625290
C37   C     C_3   0.032777 0.343864 0.506795 0.102314
H7    H     H_    0.989528 0.305233 0.525501 0.176485
H8    H     H_    0.077036 0.361184 0.553199 0.134326
C38   C     C_3   0.078772 0.306738 0.447821 -0.341773
H9    H     H_    0.032187 0.283658 0.405666 0.241709
H10   H     H_    0.118732 0.344644 0.424585 0.231422
C39   C     C_3   0.133923 0.248824 0.475168 -0.934414
H11   H     H_    0.182200 0.271079 0.516334 0.269907
H12   H     H_    0.166021 0.222611 0.431370 0.275682
H13   H     H_    0.095306 0.209185 0.497472 0.270520
O15   O     O_3   0.634207 0.771388 0.472618 -0.598803
C40   C     C_3   0.686147 0.745746 0.528104 0.119472
H14   H     H_    0.712373 0.695571 0.507359 0.182700
H15   H     H_    0.652152 0.733601 0.574177 0.122147
C41   C     C_3   0.758723 0.797132 0.552162 -0.324109
H16   H     H_    0.791336 0.810195 0.505973 0.266674
H17   H     H_    0.734032 0.846054 0.577220 0.248699
C42   C     C_3   0.821401 0.766137 0.605004 -0.905969
H18   H     H_    0.790308 0.753446 0.652058 0.287277
H19   H     H_    0.872918 0.804707 0.621789 0.280810
H20   H     H_    0.848573 0.717827 0.580839 0.257609
O16   O     O_3   0.429170 0.398825 0.753192 -0.550737
C43   C     C_3   0.353458 0.422637 0.720173 0.171670
H21   H     H_    0.363835 0.432487 0.665302 0.153273
H22   H     H_    0.330018 0.471666 0.746993 0.104313
C44   C     C_3   0.285309 0.365732 0.718154 -0.231661
H23   H     H_    0.310301 0.314014 0.700587 0.270836
H24   H     H_    0.264952 0.362653 0.771715 0.251066
C45   C     C_3   0.209504 0.381020 0.668425 -1.010500
H25   H     H_    0.182768 0.432365 0.684936 0.278611
H26   H     H_    0.160844 0.339495 0.669264 0.272104
H27   H     H_    0.227696 0.381678 0.613883 0.265301
N5    N     N_R   0.454312 0.385026 0.897598 0.273218
O17   O     O_R   0.501750 0.356912 0.945756 -0.301958
O18   O     O_R   0.383733 0.354087 0.873788 -0.306477
N6    N     N_R   0.377580 0.389188 0.071991 0.251523
O19   O     O_R   0.325724 0.403506 0.019344 -0.335916
O20   O     O_R   0.386688 0.324349 0.086069 -0.295753
O21   O     O_3   0.385043 0.393939 0.220109 -0.568115
C46   C     C_3   0.297193 0.403430 0.210213 0.146759
H28   H     H_    0.268592 0.355202 0.181189 0.203320
H29   H     H_    0.278042 0.448414 0.179299 0.108654
C47   C     C_3   0.261361 0.413985 0.281609 -0.324871
H30   H     H_    0.282095 0.371132 0.314327 0.261224
H31   H     H_    0.285092 0.464729 0.308716 0.223446
C48   C     C_3   0.165878 0.414841 0.273912 -0.944341
H32   H     H_    0.143641 0.457357 0.241404 0.274939
H33   H     H_    0.142289 0.424238 0.326571 0.270823
H34   H     H_    0.140154 0.363789 0.249047 0.277030
N7    N     N_R   0.597720 0.618682 0.782754 0.221775
O22   O     O_R   0.663699 0.648560 0.817632 -0.352096
O23   O     O_R   0.566131 0.645913 0.726670 -0.393799
N8    N     N_R   0.542521 0.610128 0.094706 0.235255
O24   O     O_R   0.498006 0.641026 0.046761 -0.375880
O25   O     O_R   0.616728 0.635156 0.116979 -0.310846
O26   O     O_3   0.557048 0.605800 0.240022 -0.551550
C49   C     C_3   0.499648 0.659246 0.255162 0.106544
H35   H     H_    0.451272 0.640204 0.287771 0.105262
H36   H     H_    0.468016 0.677361 0.206004 0.155556
C50   C     C_3   0.547071 0.721486 0.295940 -0.227719
H37   H     H_    0.581910 0.703809 0.343681 0.275322
H38   H     H_    0.593098 0.742653 0.262641 0.252101
C51   C     C_3   0.487656 0.779416 0.317608 -0.909741
H39   H     H_    0.451785 0.797614 0.270585 0.268394
H40   H     H_    0.524212 0.824478 0.345460 0.298517
H41   H     H_    0.443355 0.760154 0.353430 0.246549
N9    N     N_R   0.475006 0.246233 0.619446 0.222206
O27   O     O_R   0.431363 0.302922 0.618038 -0.444286
O28   O     O_R   0.503548 0.225834 0.679856 -0.274214
O29   O     O_3   0.446609 0.101827 0.610815 -0.574728
C52   C     C_3   0.359920 0.085040 0.598364 0.092110
H42   H     H_    0.346219 0.043170 0.632634 0.183847
H43   H     H_    0.341428 0.063129 0.543374 0.114118
C53   C     C_3   0.306522 0.148625 0.617436 -0.338797
H44   H     H_    0.326889 0.171051 0.671644 0.275390
H45   H     H_    0.314797 0.189305 0.580545 0.220742
C54   C     C_3   0.213758 0.128665 0.613183 -0.933356
H46   H     H_    0.191782 0.106960 0.559100 0.267770
H47   H     H_    0.177029 0.175900 0.626721 0.273010
H48   H     H_    0.202723 0.089197 0.650752 0.279153
N10   N     N_R   0.634790 0.918209 0.483679 0.213617
O30   O     O_R   0.665120 0.973658 0.521647 -0.360068
O31   O     O_R   0.669385 0.897326 0.426828 -0.347865

loop_
_geom_bond_atom_site_label_1
_geom_bond_atom_site_label_2
_geom_bond_distance
_ccdc_geom_bond_type
C52   C53   1.535034 S    
C31   C32   1.408777 A    
C45   H25   1.110784 S    
C10   C12   1.203342 T    
C17   C18   1.390171 A    
C40   C41   1.530469 S    
C43   H21   1.110810 S    
C2    C13   1.476102 S    
C14   O15   1.386209 S    
C46   H29   1.118110 S    
N5    O17   1.301481 A    
C52   H42   1.110984 S    
C21   N2    1.423251 S    
N9    O28   1.301298 A    
C29   C30   1.412339 A    
O6    C5    1.278993 A    
C8    C11   1.440092 S    
C9    C10   1.450571 S    
O4    C3    1.271772 A    
Zn1   O1    1.928386 S    
C6    C12   1.430046 S    
C40   H15   1.116818 S    
C20   C22   1.412349 A    
N8    O25   1.301274 A    
C33   N4    1.416605 S    
C25   C30   1.416676 A    
C19   O29   1.386232 S    
O8    C5    1.275673 A    
C39   H12   1.110369 S    
O9    C6    1.274246 A    
C16   C17   1.394785 A    
C9    O14   1.396542 S    
C48   H32   1.110822 S    
C49   C50   1.527477 S    
Zn3   O8    1.906105 S    
C1    C22   1.461987 S    
N5    O18   1.300389 A    
C44   H24   1.110465 S    
C38   H9    1.111446 S    
C37   H8    1.114325 S    
C47   H30   1.111809 S    
C3    C34   1.463267 S    
Zn2   O12   1.923942 S    
C45   H26   1.110418 S    
C47   H31   1.110754 S    
C4    C25   1.490972 S    
C46   H28   1.111161 S    
N10   O31   1.301289 A    
N10   O30   1.301390 A    
C23   H4    1.083727 S    
C29   N6    1.437518 S    
O2    C1    1.270500 A    
C24   H5    1.083312 S    
C27   C28   1.413427 A    
O10   C3    1.272847 A    
C30   O21   1.387903 S    
C33   C36   1.393981 A    
C40   H14   1.111034 S    
Zn4   O2    1.927517 S    
C54   H48   1.110733 S    
C41   H17   1.110460 S    
O16   C43   1.418419 S    
C26   C27   1.406906 A    
C8    C9    1.340242 D    
C23   C24   1.389964 A    
C42   H18   1.110982 S    
C32   C34   1.418287 A    
C34   C35   1.414923 A    
C22   C23   1.397577 A    
O15   C40   1.418405 S    
C51   H40   1.109923 S    
C19   C20   1.409488 A    
Zn3   O5    1.925490 S    
C41   C42   1.526163 S    
C32   O16   1.388467 S    
C13   C14   1.419188 A    
C37   C38   1.533331 S    
C31   N5    1.439470 S    
C36   H6    1.083562 S    
N6    O20   1.301244 A    
C15   C16   1.413529 A    
C28   C29   1.405115 A    
C28   N3    1.419855 S    
Zn4   O7    1.905280 S    
C48   H34   1.110762 S    
C49   H35   1.114503 S    
C15   N10   1.439422 S    
C21   C24   1.396603 A    
C38   H10   1.109302 S    
N1    N2    1.245985 D    
C37   H7    1.110947 S    
C45   H27   1.111091 S    
C42   H19   1.110341 S    
C31   C33   1.413605 A    
C27   N8    1.438707 S    
C47   C48   1.525948 S    
C26   O26   1.384148 S    
C18   H3    1.083185 S    
Zn2   O1    1.933441 S    
Zn1   O9    1.904146 S    
C51   H39   1.110739 S    
Zn2   O6    1.904071 S    
C35   N7    1.442685 S    
C17   H2    1.083264 S    
O26   C49   1.413996 S    
C44   C45   1.525747 S    
C50   H38   1.111605 S    
C8    H1    1.087067 S    
C52   H43   1.115923 S    
Zn1   O3    1.925924 S    
Zn2   O4    1.925325 S    
C7    C11   1.203892 T    
Zn4   O1    1.926441 S    
Zn3   O1    1.929415 S    
C53   C54   1.525355 S    
C39   H13   1.110738 S    
N7    O23   1.300919 A    
N7    O22   1.301637 A    
O29   C52   1.418648 S    
C53   H45   1.110477 S    
C42   H20   1.111105 S    
O3    C2    1.276332 A    
C14   C15   1.409861 A    
Zn4   O11   1.927061 S    
C54   H47   1.110675 S    
N3    N4    1.247638 D    
C51   H41   1.110945 S    
C39   H11   1.111205 S    
C19   C21   1.425185 A    
N8    O24   1.301436 A    
C20   N9    1.439184 S    
O5    C4    1.278918 A    
C44   H23   1.110668 S    
C38   C39   1.526525 S    
O14   C37   1.417348 S    
O7    C6    1.275230 A    
N6    O19   1.301140 A    
O13   C2    1.274271 A    
Zn3   O13   1.925412 S    
C5    C7    1.431662 S    
C35   C36   1.398760 A    
C48   H33   1.110285 S    
C49   H36   1.114981 S    
C53   H44   1.111456 S    
C41   H16   1.111523 S    
O11   C4    1.277550 A    
O12   C1    1.274200 A    
C25   C26   1.417548 A    
C43   C44   1.531098 S    
C50   C51   1.526173 S    
O21   C46   1.420994 S    
C43   H22   1.117899 S    
C13   C18   1.402364 A    
C16   N1    1.411229 S    
Zn1   O10   1.927764 S    
C54   H46   1.110910 S    
C46   C47   1.529211 S    
N9    O27   1.300322 A    
C50   H37   1.110573 S    
