data_mof_unit_10186.cif
_audit_creation_date              2012-12-10T17:08:44-0500
_audit_creation_method            fapswitch 2.2
_symmetry_space_group_name_H-M    P1
_symmetry_Int_Tables_number       1
_space_group_crystal_system       triclinic
_cell_length_a                    27.784104
_cell_length_b                    10.985774
_cell_length_c                    10.007812
_cell_angle_alpha                 112.498983
_cell_angle_beta                  99.22468
_cell_angle_gamma                 92.506102
_cell_volume                      2767.13044006

loop_
_atom_site_label
_atom_site_type_symbol
_atom_type_description
_atom_site_fract_x
_atom_site_fract_y
_atom_site_fract_z
_atom_type_partial_charge
C1    C     C_R   0.494661 0.252348 0.437916 0.795736
C2    C     C_R   0.503590 0.748150 0.561881 0.806089
C3    C     C_R   0.101264 0.498924 0.488912 -0.050503
C4    C     C_R   0.898665 0.502470 0.509570 -0.050390
C5    C     C_R   0.122888 0.380188 0.452967 -0.093798
C6    C     C_R   0.877063 0.621265 0.545886 -0.093112
C7    C     C_R   0.093270 0.260256 0.405138 -0.228725
C8    C     C_R   0.906699 0.741184 0.593813 -0.228974
C9    C     C_R   0.130590 0.617498 0.518101 -0.003605
C10   C     C_R   0.869324 0.383850 0.480135 -0.004366
C11   C     C_R   0.354503 0.500311 0.497540 -0.087332
C12   C     C_R   0.645522 0.500411 0.502191 -0.089692
C13   C     C_R   0.970753 0.380891 0.471343 0.088066
C14   C     C_R   0.029165 0.620460 0.526995 0.088120
C15   C     C_R   0.979023 0.624173 0.542112 -0.058481
C16   C     C_R   0.020907 0.377198 0.456352 -0.058409
C17   C     C_R   0.949610 0.502485 0.506136 0.003620
C18   C     C_R   0.050314 0.498887 0.492283 0.003668
C19   C     C_R   0.941408 0.268419 0.462378 -0.141548
C20   C     C_R   0.058490 0.732894 0.535789 -0.141667
C21   C     C_R   0.891420 0.268421 0.460874 -0.174496
C22   C     C_R   0.108474 0.732879 0.537173 -0.174881
C23   C     C_R   0.407582 0.500422 0.499593 0.786856
C24   C     C_R   0.592434 0.499860 0.500417 0.787877
C25   C     C_R   0.042367 0.255886 0.400355 0.475233
C26   C     C_R   0.957588 0.745504 0.598305 0.475061
C27   C     C_2   0.487859 0.107900 0.397633 -0.087240
C28   C     C_2   0.502910 0.892397 0.597486 -0.081882
C29   C     C_2   0.481668 0.065293 0.503876 -0.210261
C30   C     C_2   0.482481 0.926581 0.486543 -0.187815
C31   C     C_2   0.500054 0.521584 0.083738 0.552019
C32   C     C_2   0.497502 0.482994 0.916529 0.569908
C33   C     C_R   0.173691 0.383121 0.456686 0.605694
C34   C     C_R   0.826272 0.618363 0.542455 0.601566
C35   C     C_R   0.181191 0.616270 0.520013 0.567477
C36   C     C_R   0.818726 0.385077 0.478185 0.571343
C37   C     C_R   0.286462 0.546327 0.626927 -0.199055
C38   C     C_R   0.713575 0.460951 0.372455 -0.199974
C39   C     C_R   0.336716 0.545707 0.629687 -0.239437
C40   C     C_R   0.663333 0.461376 0.370123 -0.233950
C41   C     C_R   0.321196 0.455736 0.362518 -0.327748
C42   C     C_R   0.678829 0.539323 0.636633 -0.325739
C43   C     C_R   0.270312 0.452608 0.358753 0.549637
C44   C     C_R   0.729681 0.542927 0.640119 0.549248
C45   C     C_R   0.253329 0.500575 0.492329 0.286480
C46   C     C_R   0.746662 0.500836 0.506574 0.286866
Cu1   Cu    Cu3+1 0.508480 0.521810 0.644910 0.972850
Cu2   Cu    Cu3+1 0.491520 0.478190 0.355090 0.973108
H1    H     H_    0.334753 0.424124 0.260414 0.152869
H2    H     H_    0.665346 0.566028 0.738512 0.152339
H3    H     H_    0.109498 0.168762 0.362278 0.193860
H4    H     H_    0.890497 0.832693 0.636894 0.194093
H5    H     H_    0.638471 0.429549 0.264895 0.164286
H6    H     H_    0.361613 0.582542 0.735177 0.160388
H7    H     H_    0.726937 0.429758 0.269905 0.159689
H8    H     H_    0.273122 0.582260 0.729554 0.160129
H9    H     H_    0.870407 0.178114 0.448734 0.185165
H10   H     H_    0.129472 0.823150 0.549151 0.185138
H11   H     H_    0.956374 0.180021 0.463098 0.180867
H12   H     H_    0.043503 0.821256 0.535019 0.180785
H13   H     H_    0.467642 0.850686 0.378261 0.204734
H14   H     H_    0.479374 0.136957 0.612062 0.216926
N1    N     N_R   0.201694 0.500302 0.491297 -0.447451
N2    N     N_R   0.798260 0.501110 0.507328 -0.447491
N3    N     N_2   0.478780 0.445430 0.137360 -0.025899
N4    N     N_2   0.521220 0.554570 0.862640 -0.024553
O1    O     O_R   0.504520 0.332330 0.577400 -0.541261
O2    O     O_R   0.495480 0.667670 0.422600 -0.550829
O3    O     O_R   0.490210 0.295500 0.332650 -0.568931
O4    O     O_R   0.509790 0.704500 0.667350 -0.568454
O5    O     O_R   0.437420 0.518430 0.622370 -0.586400
O6    O     O_R   0.562580 0.481570 0.377630 -0.588831
O7    O     O_R   0.423110 0.481600 0.377610 -0.597987
O8    O     O_R   0.576890 0.518400 0.622390 -0.596112
O9    O     O_2   0.195001 0.269912 0.426198 -0.554196
O10   O     O_2   0.804988 0.731663 0.573874 -0.554387
O11   O     O_2   0.790251 0.271652 0.448444 -0.537025
O12   O     O_2   0.209624 0.729628 0.549235 -0.538440
C47   C     C_3   0.524402 0.001840 0.749231 -0.395216
C48   C     C_3   0.557496 0.961166 0.858858 -0.361104
C49   C     C_3   0.582613 0.082628 0.994336 -0.842368
H15   H     H_    0.608244 0.142932 0.962977 0.255931
H16   H     H_    0.554962 0.145233 0.046233 0.277903
H17   H     H_    0.603857 0.050159 0.076151 0.241673
H18   H     H_    0.535190 0.899354 0.896950 0.275599
H19   H     H_    0.586300 0.905772 0.804855 0.210158
H20   H     H_    0.547321 0.078232 0.732027 0.230741
H21   H     H_    0.493694 0.049346 0.800421 0.228025
C50   C     C_3   0.487891 0.013293 0.240012 -0.363890
C51   C     C_3   0.435224 0.959628 0.154403 -0.346433
C52   C     C_3   0.434435 0.869248 0.994104 -0.792932
H22   H     H_    0.450876 0.925163 0.937477 0.253638
H23   H     H_    0.454956 0.783436 0.988020 0.288731
H24   H     H_    0.395910 0.831233 0.936208 0.228361
H25   H     H_    0.416484 0.902998 0.206221 0.221435
H26   H     H_    0.414055 0.043670 0.156905 0.205304
H27   H     H_    0.506132 0.065699 0.183037 0.215024
H28   H     H_    0.509804 0.930681 0.238412 0.238399
O13   O     O_3   0.475396 0.357957 0.819335 -0.589351
C53   C     C_3   0.424022 0.356699 0.781514 -0.233397
H29   H     H_    0.409264 0.450185 0.844445 0.110014
H30   H     H_    0.405166 0.273570 0.796283 0.167511
H31   H     H_    0.413389 0.329792 0.661635 0.177890
O14   O     O_3   0.518029 0.650861 0.179191 -0.593882
C54   C     C_3   0.569224 0.662489 0.231068 -0.179316
H32   H     H_    0.586728 0.752140 0.225117 0.167251
H33   H     H_    0.587710 0.575675 0.169967 0.106003
H34   H     H_    0.576868 0.684148 0.350153 0.172512
O15   O     O_3   0.540134 0.678465 0.956279 -0.521657
C55   C     C_3   0.588698 0.696523 0.937515 -0.202387
H35   H     H_    0.589678 0.712907 0.836165 0.188020
H36   H     H_    0.609369 0.612255 0.938885 0.131632
H37   H     H_    0.608005 0.787840 0.029420 0.127097
O16   O     O_3   0.465729 0.317247 0.045804 -0.501737
C56   C     C_3   0.418244 0.281333 0.061608 -0.153714
H38   H     H_    0.392550 0.353744 0.051587 0.112597
H39   H     H_    0.418077 0.269653 0.165943 0.184337
H40   H     H_    0.403806 0.183069 0.972691 0.124125
O17   O     O_3   0.236414 0.413879 0.227774 -0.572179
C57   C     C_3   0.243964 0.288418 0.126644 -0.274400
H41   H     H_    0.252068 0.217350 0.180095 0.174113
H42   H     H_    0.273496 0.298237 0.067420 0.143704
H43   H     H_    0.209757 0.245613 0.042929 0.203833
O18   O     O_3   0.763480 0.576428 0.770390 -0.572366
C58   C     C_3   0.756859 0.701247 0.874848 -0.277581
H44   H     H_    0.726683 0.691608 0.931990 0.143851
H45   H     H_    0.750231 0.775476 0.825001 0.176118
H46   H     H_    0.790959 0.739943 0.959746 0.203457
O19   O     O_3   0.012574 0.137094 0.316347 -0.568827
C59   C     C_3   0.028910 0.031420 0.352666 -0.359207
H47   H     H_    0.044199 0.063107 0.472388 0.140730
H48   H     H_    0.056114 0.982755 0.285469 0.196345
H49   H     H_    0.997076 0.955672 0.324378 0.192021
O20   O     O_3   0.987413 0.864261 0.682224 -0.568854
C60   C     C_3   0.971054 0.969963 0.646002 -0.358919
H50   H     H_    0.943877 0.018628 0.713314 0.196483
H51   H     H_    0.955723 0.938306 0.526309 0.140606
H52   H     H_    0.002884 0.045702 0.674218 0.192081

loop_
_geom_bond_atom_site_label_1
_geom_bond_atom_site_label_2
_ccdc_geom_bond_type
C60   H52   S    
C27   C29   D    
C8    C26   A    
N3    O16   S    
C14   C18   A    
Cu2   O3    S    
C25   O19   S    
C47   H20   S    
O16   C56   S    
C60   H50   S    
C54   H33   S    
C29   C30   S    
C26   O20   S    
C19   C21   A    
C23   O7    A    
O19   C59   S    
C2    O2    A    
C36   O11   S    
C9    C35   A    
C9    C22   A    
C39   H6    S    
C56   H38   S    
C3    C18   A    
C31   N3    D    
C41   H1    S    
C28   C47   S    
C55   H35   S    
C47   H21   S    
C12   C42   A    
C37   H8    S    
C33   O9    S    
C38   H7    S    
C31   C32   S    
C44   C46   A    
C56   H39   S    
C5    C33   A    
C58   H46   S    
C48   H19   S    
C27   C50   S    
Cu2   N3    S    
C20   H12   S    
C8    H4    S    
Cu1   N4    S    
C57   H43   S    
C1    C27   S    
C60   H51   S    
C41   C43   A    
C42   C44   A    
Cu2   O6    S    
Cu1   O1    S    
O14   C54   S    
C49   H16   S    
C57   H42   S    
C49   H15   S    
C10   C21   A    
C54   H34   S    
C43   O17   S    
C13   C19   A    
Cu1   Cu2   S    
C14   C20   A    
C51   H25   S    
C4    C6    A    
C52   H22   S    
C5    C7    A    
C15   C26   A    
C6    C8    A    
C19   H11   S    
C45   N1    S    
C53   H31   S    
C1    O3    A    
C6    C34   A    
C50   H27   S    
C10   C36   A    
C12   C40   A    
C59   H48   S    
Cu1   O4    S    
C21   H9    S    
C48   H18   S    
C3    C9    A    
C23   O5    A    
C52   H23   S    
O13   C53   S    
C33   N1    A    
C56   H40   S    
C34   N2    A    
Cu2   O2    S    
C11   C39   A    
C43   C45   A    
C55   H37   S    
Cu1   O5    S    
C42   H2    S    
C4    C17   A    
C20   C22   A    
C58   H44   S    
C13   C16   A    
C59   H49   S    
C37   C45   A    
C49   H17   S    
C57   H41   S    
C24   O6    A    
C32   N4    D    
C53   H30   S    
C16   C25   A    
C15   C17   A    
C29   H14   S    
Cu2   O7    S    
Cu1   O8    S    
C48   C49   S    
C3    C5    A    
C22   H10   S    
C35   N1    A    
O17   C57   S    
C51   H26   S    
O20   C60   S    
C54   H32   S    
C12   C24   S    
C35   O12   S    
C7    C25   A    
C32   O13   S    
C13   C17   A    
C50   H28   S    
C31   O14   S    
C28   C30   D    
C59   H47   S    
C7    H3    S    
C37   C39   A    
C36   N2    A    
O15   C55   S    
C52   H24   S    
C38   C40   A    
C24   O8    A    
C51   C52   S    
C11   C23   S    
C53   H29   S    
C1    O1    A    
C44   O18   S    
C11   C41   A    
N4    O15   S    
C55   H36   S    
C38   C46   A    
C47   C48   S    
C16   C18   A    
C40   H5    S    
C30   H13   S    
C46   N2    S    
C58   H45   S    
C14   C15   A    
C2    C28   S    
C50   C51   S    
C2    O4    A    
C4    C10   A    
C34   O10   S    
O18   C58   S    
