data_mof_unit_65714.cif
_audit_creation_date              2012-12-10T16:43:26-0500
_audit_creation_method            fapswitch 2.2
_symmetry_space_group_name_H-M    P1
_symmetry_Int_Tables_number       1
_space_group_crystal_system       triclinic
_cell_length_a                    18.469681
_cell_length_b                    18.44221
_cell_length_c                    18.429186
_cell_angle_alpha                 119.721679
_cell_angle_beta                  90.520556
_cell_angle_gamma                 119.723439
_cell_volume                      4455.67737445

loop_
_atom_site_label
_atom_site_type_symbol
_atom_type_description
_atom_site_fract_x
_atom_site_fract_y
_atom_site_fract_z
_atom_type_partial_charge
C1    C     C_R   0.361677 0.001397 0.138834 0.857896
C2    C     C_2   0.803249 0.998695 0.691008 -0.282670
C3    C     C_2   0.720230 0.939262 0.776474 -0.159965
C4    C     C_R   0.638754 0.000302 0.861673 0.858948
C5    C     C_2   0.696268 0.004014 0.808533 -0.282384
C6    C     C_2   0.280900 0.443754 0.723512 -0.156343
C7    C     C_2   0.192218 0.387734 0.691087 -0.287408
C8    C     C_2   0.337118 0.556109 0.777198 -0.160599
C9    C     C_2   0.304597 0.612277 0.808997 -0.283998
C10   C     C_2   0.276353 0.067119 0.333594 -0.342680
C11   C     C_2   0.192889 0.986493 0.305463 0.293515
C12   C     C_R   0.170700 0.107320 0.826247 -0.192946
C13   C     C_2   0.337316 0.062619 0.283008 0.497449
C14   C     C_2   0.306316 0.009383 0.193901 -0.265079
C15   C     C_2   0.766540 0.932222 0.221414 -0.214817
C16   C     C_R   0.639768 0.277051 0.138593 0.865763
C17   C     C_2   0.819281 0.013576 0.304888 0.334418
C18   C     C_2   0.717341 0.935821 0.162771 -0.140023
C19   C     C_2   0.683326 0.989806 0.195244 -0.199627
C20   C     C_2   0.778740 0.555525 0.222952 -0.200117
C21   C     C_2   0.784945 0.614696 0.307662 -0.009184
C22   C     C_2   0.715542 0.444155 0.164647 -0.173389
C23   C     C_R   0.211076 0.055954 0.789855 -0.094198
C24   C     C_2   0.701717 0.387385 0.194848 -0.325290
C25   C     C_R   0.138380 0.277030 0.638244 0.857580
C26   C     C_R   0.858720 0.722883 0.361515 0.812145
C27   C     C_R   0.861071 0.999688 0.638220 0.855033
C28   C     C_R   0.361442 0.722973 0.861812 0.854934
C29   C     C_R   0.138283 0.998066 0.361304 0.744769
C30   C     C_R   0.862380 0.002034 0.360330 0.722060
C31   C     C_R   0.139908 0.999449 0.639478 0.809744
C32   C     C_R   0.637804 0.998266 0.139646 0.829388
C33   C     C_R   0.360066 0.000294 0.860309 1.035249
C34   C     C_R   0.267404 0.060254 0.846732 -0.057949
C35   C     C_R   0.285265 0.120816 0.940491 0.380758
C36   C     C_R   0.248809 0.178339 0.975992 -0.053113
C37   C     C_R   0.186496 0.164779 0.916872 0.416556
C38   C     C_3   0.715469 0.578132 0.348721 -0.396076
C39   C     C_3   0.675959 0.640412 0.380693 -0.352332
C40   C     C_3   0.607951 0.604378 0.422985 -0.871900
C41   C     C_3   0.282107 0.260116 0.075482 -0.422115
C42   C     C_3   0.380503 0.346742 0.108365 -0.301599
C43   C     C_3   0.412831 0.430273 0.207047 -0.897377
C44   C     C_3   0.224773 0.896540 0.561504 -0.424121
C45   C     C_R   0.304169 0.003804 0.807528 -0.121949
C46   C     C_3   0.137652 0.789381 0.504364 -0.371274
C47   C     C_3   0.124436 0.740772 0.405695 -0.851675
C48   C     C_R   0.286975 0.946787 0.715493 0.361990
C49   C     C_R   0.235407 0.948097 0.659841 -0.007847
C50   C     C_R   0.196071 0.000863 0.697351 -0.075685
C51   C     C_2   0.778639 0.941426 0.722584 -0.153592
H1    H     H_    0.719348 0.063167 0.797698 0.153403
H2    H     H_    0.687020 0.027299 0.264233 0.201630
H3    H     H_    0.824842 0.589871 0.195228 0.165065
H4    H     H_    0.685394 0.408622 0.094951 0.187570
H5    H     H_    0.736336 0.423083 0.263403 0.163381
H6    H     H_    0.125217 0.103175 0.784430 0.169585
H7    H     H_    0.801182 0.892867 0.707930 0.177738
H8    H     H_    0.780410 0.045899 0.701949 0.152855
H9    H     H_    0.697245 0.882572 0.790855 0.175755
H10   H     H_    0.282221 0.828808 0.622518 0.337965
H11   H     H_    0.101541 0.840534 0.221824 0.346829
H12   H     H_    0.314559 0.406368 0.709594 0.177405
H13   H     H_    0.435820 0.149197 0.391955 0.330367
H14   H     H_    0.324483 0.138270 0.050118 0.326619
H15   H     H_    0.882743 0.160079 0.395622 0.344802
H16   H     H_    0.554016 0.521993 0.375254 0.263075
H17   H     H_    0.640233 0.616745 0.483005 0.266983
H18   H     H_    0.578636 0.648459 0.442884 0.254850
H19   H     H_    0.728437 0.722796 0.430749 0.232355
H20   H     H_    0.643449 0.632071 0.323385 0.214727
H21   H     H_    0.658760 0.497470 0.301118 0.225167
H22   H     H_    0.746962 0.585008 0.405557 0.211729
H23   H     H_    0.156227 0.421706 0.701267 0.152711
H24   H     H_    0.374651 0.464056 0.219969 0.269678
H25   H     H_    0.405410 0.398485 0.246443 0.262032
H26   H     H_    0.483830 0.491573 0.228520 0.256932
H27   H     H_    0.422146 0.317469 0.097794 0.250435
H28   H     H_    0.389939 0.380813 0.070606 0.230821
H29   H     H_    0.245927 0.296209 0.092482 0.225065
H30   H     H_    0.270526 0.225757 0.113112 0.184187
H31   H     H_    0.120788 0.199652 0.991389 0.326141
H32   H     H_    0.121447 0.787714 0.386273 0.255478
H33   H     H_    0.179619 0.733757 0.390506 0.268300
H34   H     H_    0.408083 0.593358 0.791638 0.175914
H35   H     H_    0.061211 0.663334 0.366108 0.250750
H36   H     H_    0.137931 0.739734 0.521671 0.223856
H37   H     H_    0.080657 0.793418 0.516959 0.240364
H38   H     H_    0.227254 0.943926 0.539831 0.217040
H39   H     H_    0.281550 0.891963 0.548923 0.222775
H40   H     H_    0.234727 0.578416 0.798288 0.154122
H41   H     H_    0.302636 0.138777 0.397649 0.135979
H42   H     H_    0.237671 0.972575 0.159244 0.164076
H43   H     H_    0.759053 0.860537 0.194745 0.137084
H44   H     H_    0.707110 0.891347 0.092313 0.170579
O1    O     O_3   0.500000 0.000000 0.000000 -0.506910
O2    O     O_R   0.054120 0.939900 0.325040 -0.642586
O3    O     O_R   0.884120 0.060070 0.444330 -0.643676
O4    O     O_R   0.325020 0.939940 0.054210 -0.647539
O5    O     O_R   0.175860 0.060090 0.615830 -0.640872
O6    O     O_R   0.884120 0.939900 0.324160 -0.652769
O7    O     O_R   0.055710 0.939940 0.615850 -0.646495
O8    O     O_R   0.885720 0.939940 0.614980 -0.646057
O9    O     O_R   0.174930 0.060060 0.445830 -0.652671
O10   O     O_R   0.054120 0.229160 0.614300 -0.640998
O11   O     O_R   0.885050 0.770830 0.325070 -0.650796
O12   O     O_R   0.614240 0.229150 0.054160 -0.637600
O13   O     O_R   0.614240 0.060060 0.885070 -0.640842
O14   O     O_R   0.614900 0.229170 0.174980 -0.638497
O15   O     O_R   0.445840 0.770840 0.885740 -0.646382
O16   O     O_R   0.615830 0.060100 0.175880 -0.631227
O17   O     O_R   0.324090 0.939910 0.884220 -0.631659
O18   O     O_R   0.615830 0.939930 0.055710 -0.650778
O19   O     O_R   0.444240 0.060060 0.884190 -0.622045
O20   O     O_3   0.322716 0.891225 0.682602 -0.793799
O21   O     O_3   0.161393 0.892009 0.228318 -0.779242
O22   O     O_3   0.426329 0.116259 0.327571 -0.732872
O23   O     O_R   0.325020 0.770840 0.885120 -0.640997
O24   O     O_3   0.340813 0.125885 0.996299 -0.810137
O25   O     O_3   0.837753 0.108419 0.335296 -0.770276
O26   O     O_3   0.141031 0.208730 0.945086 -0.763618
O27   O     O_R   0.445840 0.060100 0.175010 -0.571495
O28   O     O_R   0.614900 0.939900 0.885710 -0.645367
O29   O     O_3   0.999960 0.000000 0.500040 -0.482675
O30   O     O_R   0.174930 0.229160 0.614920 -0.640721
O31   O     O_R   0.885720 0.770850 0.445880 -0.646966
O32   O     O_R   0.885050 0.060100 0.614330 -0.638227
Zn1   Zn    Zn3+2 0.542440 0.085830 0.956610 1.010813
Zn2   Zn    Zn3+2 0.543390 0.085850 0.129220 1.019661
Zn3   Zn    Zn3+2 0.543390 0.914160 0.957530 0.964985
Zn4   Zn    Zn3+2 0.370780 0.914160 0.956640 1.006404
Zn5   Zn    Zn3+2 0.957510 0.914170 0.543430 0.959392
Zn6   Zn    Zn3+2 0.956570 0.085840 0.542520 0.980057
Zn7   Zn    Zn3+2 0.956570 0.914150 0.370820 0.963048
Zn8   Zn    Zn3+2 0.129180 0.085840 0.543400 0.969384

loop_
_geom_bond_atom_site_label_1
_geom_bond_atom_site_label_2
_ccdc_geom_bond_type
C44   C49   S    
C15   C18   S    
C21   C26   S    
C18   H44   S    
O9    Zn8   S    
C33   C45   S    
C41   C42   S    
C35   O24   S    
C35   C36   A    
C1    O4    A    
C15   H43   S    
C25   O10   A    
O6    Zn7   S    
C4    O13   A    
C12   C23   A    
O29   Zn5   S    
C33   O19   A    
O29   Zn6   S    
O10   Zn6   S    
C36   C37   A    
C32   O16   A    
O7    Zn5   S    
O12   Zn1   S    
C34   C35   A    
C38   C39   S    
O1    Zn1   S    
C8    H34   S    
C26   O31   A    
C12   C37   A    
C25   O30   A    
C1    O27   A    
O23   Zn4   S    
C16   O12   A    
C27   O32   A    
O16   Zn2   S    
C21   C38   S    
C8    C9    D    
C40   H16   S    
H10   O20   S    
C5    H1    S    
C2    C27   S    
C47   H32   S    
C32   O18   A    
O8    Zn5   S    
C14   H42   S    
C17   O25   S    
O5    Zn8   S    
C3    H9    S    
C19   H2    S    
C10   H41   S    
C42   H28   S    
C16   C24   S    
H15   O25   S    
C13   C14   D    
C17   C30   S    
C9    H40   S    
C36   C41   S    
O2    Zn7   S    
C41   H29   S    
C19   C32   S    
C44   C46   S    
C16   O14   A    
C7    H23   S    
C46   H37   S    
O27   Zn2   S    
C43   H24   S    
C38   H21   S    
O18   Zn3   S    
C31   O7    A    
C20   H3    S    
C40   H18   S    
C39   C40   S    
C33   O17   A    
C3    C51   S    
C2    H8    S    
C18   C19   D    
C23   C50   A    
C6    C8    S    
C28   O15   A    
C47   H33   S    
H13   O22   S    
C4    O28   A    
C6    H12   S    
C47   H35   S    
H11   O21   S    
C26   O11   A    
O19   Zn1   S    
O3    Zn6   S    
O31   Zn5   S    
C23   C34   A    
C41   H30   S    
H14   O24   S    
C51   H7    S    
C31   O5    A    
O13   Zn1   S    
C11   O21   S    
C11   C29   S    
C22   H4    S    
C34   C45   A    
C48   O20   S    
C37   O26   S    
C12   H6    S    
C48   C49   A    
C20   C22   S    
C42   H27   S    
C10   C11   D    
O1    Zn4   S    
O28   Zn3   S    
O14   Zn2   S    
C22   C24   D    
C24   H5    S    
C42   C43   S    
C31   C50   S    
C44   H39   S    
O1    Zn3   S    
C46   H36   S    
C45   C48   A    
C43   H25   S    
C15   C17   D    
C46   C47   S    
H31   O26   S    
O29   Zn8   S    
O32   Zn6   S    
C4    C5    S    
C3    C5    D    
C10   C13   S    
C13   O22   S    
C6    C7    D    
C29   O2    A    
C43   H26   S    
C30   O3    A    
C7    C25   S    
O4    Zn4   S    
C28   O23   A    
O30   Zn8   S    
C30   O6    A    
C27   O8    A    
C39   H19   S    
O15   Zn3   S    
O17   Zn4   S    
C2    C51   D    
O29   Zn7   S    
O11   Zn7   S    
C20   C21   D    
C29   O9    A    
C49   C50   A    
C40   H17   S    
C39   H20   S    
C1    C14   S    
C44   H38   S    
C9    C28   S    
O1    Zn2   S    
C38   H22   S    
