data_mof_unit_5936.cif
_audit_creation_date              2012-12-11T15:47:12-0500
_audit_creation_method            fapswitch 2.2
_symmetry_space_group_name_H-M    P1
_symmetry_Int_Tables_number       1
_space_group_crystal_system       triclinic
_cell_length_a                    20.229184
_cell_length_b                    7.262129
_cell_length_c                    13.613148
_cell_angle_alpha                 90.000615
_cell_angle_beta                  103.590242
_cell_angle_gamma                 89.999617
_cell_volume                      1943.87178715

loop_
_atom_site_label
_atom_site_type_symbol
_atom_type_description
_atom_site_fract_x
_atom_site_fract_y
_atom_site_fract_z
_atom_type_partial_charge
O1    O     O_R   0.449560 0.506810 0.599700 -0.538762
O2    O     O_R   0.550440 0.006810 0.400300 -0.538744
O3    O     O_R   0.587960 0.180060 0.595760 -0.544289
O4    O     O_R   0.412040 0.680060 0.404240 -0.544281
C1    C     C_R   0.614777 0.344118 0.617823 0.685796
C2    C     C_R   0.385221 0.844118 0.382182 0.685781
O5    O     O_R   0.452380 0.177430 0.611700 -0.539729
O6    O     O_R   0.547620 0.677430 0.388300 -0.539757
O7    O     O_R   0.413900 0.001890 0.416350 -0.545863
O8    O     O_R   0.586100 0.501890 0.583650 -0.545839
C3    C     C_R   0.433697 0.345113 0.634029 0.716039
C4    C     C_R   0.566302 0.845112 0.365970 0.716072
O9    O     O_3   0.487530 0.337490 0.435890 -0.380154
O10   O     O_3   0.512470 0.837490 0.564110 -0.380167
V1    V     V_3+5 0.502310 0.064660 0.511890 1.382059
V2    V     V_3+5 0.497690 0.564660 0.488110 1.382032
C5    C     C_R   0.615820 0.797666 0.120587 -0.166418
C6    C     C_R   0.384173 0.297698 0.879398 -0.166446
H1    H     H_    0.522897 0.812382 0.168564 0.116528
H2    H     H_    0.477098 0.312327 0.831425 0.116535
H3    H     H_    0.698181 0.730768 0.000119 0.123598
H4    H     H_    0.301810 0.230848 0.999851 0.123610
H5    H     H_    0.589619 0.766524 0.043362 0.121841
H6    H     H_    0.410369 0.266538 0.956614 0.121859
C7    C     C_R   0.609831 0.849038 0.293625 -0.032526
C8    C     C_R   0.390171 0.349057 0.706380 -0.032558
C9    C     C_R   0.934902 0.950284 0.313802 0.139840
C10   C     C_R   0.065097 0.450299 0.686203 0.139805
C11   C     C_R   0.895396 0.028007 0.375036 -0.116567
C12   C     C_R   0.104604 0.528108 0.624993 -0.116542
C13   C     C_R   0.824931 0.013379 0.348669 -0.239805
C14   C     C_R   0.175072 0.513537 0.651379 -0.239840
C15   C     C_R   0.791698 0.901592 0.267355 0.076794
C16   C     C_R   0.208301 0.401682 0.732649 0.076883
C17   C     C_R   0.829438 0.847451 0.196434 0.058694
C18   C     C_R   0.170560 0.347495 0.803559 0.058706
C19   C     C_R   0.720635 0.859537 0.248517 0.039445
C20   C     C_R   0.279364 0.359633 0.751480 0.039536
C21   C     C_R   0.686671 0.811034 0.148130 0.120170
C22   C     C_R   0.313323 0.311106 0.851856 0.120117
C23   C     C_R   0.723757 0.773066 0.075923 -0.194123
C24   C     C_R   0.276236 0.273142 0.924056 -0.194143
C25   C     C_R   0.794229 0.782284 0.101040 -0.185675
C26   C     C_R   0.205766 0.282343 0.898942 -0.185702
C27   C     C_R   0.682291 0.856176 0.324974 0.077051
C28   C     C_R   0.317714 0.356278 0.675030 0.077153
C29   C     C_R   0.577812 0.823112 0.191951 -0.216128
C30   C     C_R   0.422184 0.323104 0.808043 -0.216126
C31   C     C_R   0.901017 0.872340 0.219839 -0.131339
C32   C     C_R   0.098982 0.372351 0.780159 -0.131336
H7    H     H_    0.796657 0.089419 0.393537 0.130351
H8    H     H_    0.203354 0.589661 0.606562 0.130358
H9    H     H_    0.918224 0.105276 0.442300 0.138953
H10   H     H_    0.081770 0.605423 0.557746 0.138958
H11   H     H_    0.820446 0.744416 0.043337 0.128083
H12   H     H_    0.179548 0.244471 0.956638 0.128077
C33   C     C_R   0.224168 0.019334 0.202914 -0.153306
C34   C     C_R   0.775844 0.519401 0.797045 -0.153316
H13   H     H_    0.205361 0.149056 0.168040 0.118872
H14   H     H_    0.794665 0.649190 0.831866 0.118850
C35   C     C_R   0.289635 0.014439 0.265942 -0.177382
C36   C     C_R   0.710374 0.514500 0.734029 -0.177422
H15   H     H_    0.319197 0.140202 0.277958 0.122591
H16   H     H_    0.680824 0.640321 0.721971 0.122572
C37   C     C_R   0.316383 0.849598 0.313035 -0.037549
C38   C     C_R   0.683611 0.349591 0.686983 -0.037517
C39   C     C_R   0.276409 0.688918 0.293890 -0.158817
C40   C     C_R   0.723563 0.188834 0.706194 -0.158821
H17   H     H_    0.295226 0.559277 0.328900 0.120384
H18   H     H_    0.704733 0.059131 0.671235 0.120378
C41   C     C_R   0.211148 0.693449 0.230223 -0.156419
C42   C     C_R   0.788823 0.193363 0.769865 -0.156401
C43   C     C_R   0.183976 0.858952 0.184350 -0.034348
C44   C     C_R   0.816018 0.358944 0.815665 -0.034305
O11   O     O_R   0.913920 0.203370 0.916260 -0.536175
O12   O     O_R   0.086080 0.703370 0.083740 -0.536170
O13   O     O_R   0.047620 0.535540 0.888290 -0.538466
O14   O     O_R   0.952380 0.035540 0.111710 -0.538465
C45   C     C_R   0.062562 0.369132 0.861470 0.677633
C46   C     C_R   0.937439 0.869132 0.138531 0.677637
O15   O     O_R   0.912040 0.532780 0.904220 -0.549096
O16   O     O_R   0.087960 0.032780 0.095780 -0.549090
O17   O     O_R   0.949550 0.708160 0.099720 -0.539077
O18   O     O_R   0.050450 0.208160 0.900280 -0.539073
C47   C     C_R   0.885410 0.364934 0.883243 0.666919
C48   C     C_R   0.114588 0.864935 0.116762 0.666919
O19   O     O_3   0.012480 0.375300 0.064060 -0.378357
O20   O     O_3   0.987520 0.875300 0.935940 -0.378360
V3    V     V_3+5 0.997690 0.648180 0.988110 1.399474
V4    V     V_3+5 0.002310 0.148180 0.011890 1.399484
H19   H     H_    0.181784 0.567352 0.217839 0.122615
H20   H     H_    0.818168 0.067197 0.782306 0.122592
C49   C     C_3   0.717957 0.840158 0.437427 -0.429303
C50   C     C_3   0.695261 0.677616 0.492032 -0.714002
H21   H     H_    0.656163 0.726424 0.530535 0.236014
H22   H     H_    0.676169 0.562111 0.439515 0.233872
H23   H     H_    0.738523 0.625461 0.551666 0.207006
H24   H     H_    0.772846 0.813201 0.448184 0.207413
H25   H     H_    0.711332 0.970427 0.476982 0.172746
C51   C     C_3   0.282081 0.340312 0.562563 -0.429528
C52   C     C_3   0.304643 0.177454 0.508064 -0.714213
H26   H     H_    0.343776 0.225915 0.469559 0.236121
H27   H     H_    0.323655 0.061959 0.560642 0.233858
H28   H     H_    0.261347 0.125441 0.448427 0.207062
H29   H     H_    0.227175 0.313901 0.551687 0.207481
H30   H     H_    0.288900 0.470367 0.522999 0.172774
C53   C     C_3   0.012516 0.961128 0.341987 -0.361527
C54   C     C_3   0.044953 0.020323 0.450546 -0.777677
H31   H     H_    0.034192 0.167537 0.461747 0.227635
H32   H     H_    0.026187 0.934290 0.505584 0.224965
H33   H     H_    0.101006 0.003717 0.465303 0.223369
H34   H     H_    0.032897 0.822469 0.330820 0.165160
H35   H     H_    0.029973 0.058040 0.290253 0.190959
C55   C     C_3   0.987486 0.461144 0.658032 -0.361470
C56   C     C_3   0.955038 0.520382 0.549474 -0.777498
H36   H     H_    0.965800 0.667619 0.538278 0.227585
H37   H     H_    0.973797 0.434334 0.494416 0.224951
H38   H     H_    0.898982 0.503781 0.534732 0.223314
H39   H     H_    0.967105 0.322474 0.669189 0.165131
H40   H     H_    0.970039 0.558052 0.709787 0.190949

loop_
_geom_bond_atom_site_label_1
_geom_bond_atom_site_label_2
_ccdc_geom_bond_type
C34   C36   A    
C38   C40   A    
C49   C50   S    
O12   C48   A    
C9    C11   A    
C53   H34   S    
O1    C3    A    
O2    C4    A    
C32   C45   S    
C2    O7    A    
C55   C56   S    
C18   C32   A    
C21   C23   A    
O14   V4    S    
O5    C3    A    
C12   H10   S    
O13   V3    S    
C51   H29   S    
C5    H5    S    
O18   V4    S    
C6    H6    S    
C20   C22   A    
C45   O18   A    
C42   H20   S    
H1    C29   S    
C33   H13   S    
C34   H14   S    
C56   H36   S    
C54   H31   S    
C5    C21   A    
C33   C43   A    
C35   H15   S    
C6    C22   A    
C53   H35   S    
C36   H16   S    
O11   V4    S    
O19   V4    S    
C10   C32   A    
O11   C47   A    
C2    C37   S    
C14   H8    S    
C56   H37   S    
C17   C31   A    
C53   C54   S    
C13   C15   A    
C17   C25   A    
C49   H25   S    
C39   C41   A    
C55   H39   S    
C8    C30   A    
O12   V3    S    
O15   V3    S    
C22   C24   A    
C27   C49   S    
O6    V2    S    
C11   C13   A    
C23   C25   A    
C24   C26   A    
C46   O17   A    
O13   C45   A    
O17   V3    S    
C36   C38   A    
C52   H26   S    
C42   C44   A    
C41   C43   A    
C3    C8    S    
C37   C39   A    
O16   C48   A    
C15   C19   A    
C40   C42   A    
C39   H17   S    
C14   C16   A    
O4    V2    S    
C26   H12   S    
C9    C53   S    
O6    C4    A    
C56   H38   S    
O14   C46   A    
O1    V2    S    
O16   V4    S    
C50   H22   S    
O2    V1    S    
H2    C30   S    
C10   C55   S    
H3    C23   S    
C25   H11   S    
C52   H28   S    
C18   C26   A    
O4    C2    A    
C19   C27   A    
C7    C27   A    
O3    V1    S    
C34   C44   A    
C28   C51   S    
C7    C29   A    
C16   C20   A    
C5    C29   A    
C13   H7    S    
C1    C38   S    
O3    C1    A    
C6    C30   A    
C54   H33   S    
C33   C35   A    
C51   H30   S    
C50   H23   S    
C31   C46   S    
C4    C7    S    
C10   C12   A    
O7    V1    S    
C1    O8    A    
C19   C21   A    
O8    V2    S    
C12   C14   A    
H4    C24   S    
C11   H9    S    
O5    V1    S    
C51   C52   S    
C15   C17   A    
C54   H32   S    
C16   C18   A    
C44   C47   S    
C50   H21   S    
C55   H40   S    
C43   C48   S    
C20   C28   A    
C8    C28   A    
C35   C37   A    
C41   H19   S    
O20   V3    S    
C52   H27   S    
O9    V2    S    
C40   H18   S    
O10   V1    S    
C49   H24   S    
O15   C47   A    
C9    C31   A    
