data_mof_unit_28806.cif
_audit_creation_date              2012-12-10T17:36:19-0500
_audit_creation_method            fapswitch 2.2
_symmetry_space_group_name_H-M    P1
_symmetry_Int_Tables_number       1
_space_group_crystal_system       triclinic
_cell_length_a                    12.328974
_cell_length_b                    13.106634
_cell_length_c                    15.860615
_cell_angle_alpha                 77.52765
_cell_angle_beta                  101.247888
_cell_angle_gamma                 116.925108
_cell_volume                      2217.21801278

loop_
_atom_site_label
_atom_site_type_symbol
_atom_type_description
_atom_site_fract_x
_atom_site_fract_y
_atom_site_fract_z
_atom_type_partial_charge
C1    C     C_R   0.854657 0.285414 0.510550 0.752530
C2    C     C_3   0.101955 0.449305 0.075160 -0.006140
C3    C     C_3   0.992769 0.477371 0.086136 0.036726
C4    C     C_3   0.011429 0.597709 0.032560 -0.434815
C5    C     C_3   0.995925 0.592484 0.933601 -0.201380
C6    C     C_1   0.993399 0.485525 0.177271 -0.062046
C7    C     C_1   0.993498 0.484118 0.825731 -0.088517
C8    C     C_1   0.995535 0.492223 0.749359 -0.210495
C9    C     C_R   0.281968 0.018580 0.369775 -0.187415
C10   C     C_R   0.229334 0.835669 0.464346 -0.051542
C11   C     C_R   0.808887 0.079701 0.579498 -0.013998
C12   C     C_R   0.999172 0.498803 0.659517 0.821380
C13   C     C_R   0.728268 0.960597 0.588446 0.178310
C14   C     C_R   0.609554 0.925574 0.545894 -0.239117
C15   C     C_R   0.568413 0.005548 0.493382 0.044345
C16   C     C_R   0.655099 0.119343 0.470539 0.019833
C17   C     C_R   0.443262 0.975057 0.462818 0.063953
C18   C     C_R   0.407834 0.052470 0.399094 0.083571
C19   C     C_R   0.498613 0.160552 0.365847 0.087314
C20   C     C_R   0.621155 0.190564 0.401046 -0.165239
C21   C     C_R   0.351739 0.870627 0.497427 -0.227987
C22   C     C_R   0.193956 0.910677 0.401427 -0.174399
C23   C     C_R   0.145402 0.713946 0.486154 0.793584
C24   C     C_R   0.773163 0.159608 0.518568 -0.210286
C25   C     C_R   0.364867 0.364294 0.659829 0.064327
C26   C     C_R   0.757445 0.642732 0.381131 0.069067
C27   C     C_R   0.658711 0.670730 0.353796 -0.249101
C28   C     C_R   0.555512 0.615212 0.398514 -0.150493
C29   C     C_R   0.549802 0.530595 0.471948 0.000243
C30   C     C_R   0.653338 0.505353 0.497588 0.235046
C31   C     C_R   0.447309 0.473283 0.522150 -0.089780
C32   C     C_R   0.453834 0.398339 0.601180 0.057187
C33   C     C_R   0.548801 0.361598 0.617967 0.083927
C34   C     C_R   0.999475 0.498976 0.340573 0.820637
C35   C     C_R   0.648524 0.420054 0.569399 -0.183741
C36   C     C_R   0.338301 0.488753 0.497541 0.029194
C37   C     C_R   0.258472 0.379274 0.628943 0.100641
C38   C     C_3   0.111462 0.467682 0.973457 -0.097647
C39   C     C_3   0.871900 0.372005 0.953164 -0.005137
C40   C     C_3   0.863302 0.388196 0.047383 -0.070168
C41   C     C_1   0.995978 0.492570 0.251765 -0.159363
C42   C     C_3   0.992306 0.475476 0.919343 0.141130
Cu1   Cu    Cu3+1 0.098280 0.475420 0.519630 0.945329
Cu2   Cu    Cu3+1 0.901720 0.524580 0.480370 0.916042
H1    H     H_    0.184469 0.556335 0.956811 0.136503
H2    H     H_    0.947232 0.626800 0.049062 0.231418
H3    H     H_    0.099108 0.884297 0.374340 0.147068
H4    H     H_    0.250071 0.073132 0.320613 0.148981
H5    H     H_    0.373138 0.813708 0.550882 0.145050
H6    H     H_    0.550410 0.834110 0.554428 0.137189
H7    H     H_    0.691565 0.269262 0.372982 0.181026
H8    H     H_    0.188372 0.351649 0.671270 0.141021
H9    H     H_    0.324324 0.540707 0.437675 0.143617
H10   H     H_    0.836968 0.685792 0.345836 0.130153
H11   H     H_    0.482979 0.642098 0.375118 0.147458
H12   H     H_    0.662255 0.735878 0.297872 0.150834
H13   H     H_    0.720232 0.393628 0.588980 0.216874
H14   H     H_    0.792528 0.381319 0.910670 0.151011
H15   H     H_    0.803626 0.434120 0.037281 0.219060
H16   H     H_    0.078214 0.665870 0.906839 0.116974
H17   H     H_    0.103577 0.665297 0.051119 0.147786
N1    N     N_R   0.246300 0.438200 0.549400 -0.206087
N2    N     N_R   0.754300 0.561180 0.451130 -0.204050
O1    O     O_R   0.972520 0.318130 0.524690 -0.563008
O2    O     O_R   0.806530 0.359650 0.491530 -0.598564
O3    O     O_R   0.083030 0.479240 0.637150 -0.595429
O4    O     O_R   0.917040 0.520750 0.603990 -0.592553
O5    O     O_R   0.193470 0.640350 0.508470 -0.583648
O6    O     O_R   0.027480 0.681870 0.475310 -0.580389
O7    O     O_R   0.082960 0.479250 0.396010 -0.559686
O8    O     O_R   0.916970 0.520760 0.362850 -0.592108
C43   C     C_2   0.079433 0.327563 0.122672 0.432125
H18   H     H_    0.012410 0.284291 0.168605 0.058816
O9    O     O_2   0.145886 0.282441 0.119720 -0.559941
C44   C     C_2   0.223232 0.534228 0.118023 0.359595
H19   H     H_    0.267792 0.622948 0.086915 0.045377
O10   O     O_2   0.272196 0.505433 0.187763 -0.534047
C45   C     C_3   0.462838 0.243162 0.295125 -0.384651
C46   C     C_3   0.566479 0.360546 0.267014 -0.793296
H20   H     H_    0.611541 0.408562 0.323218 0.266937
H21   H     H_    0.634834 0.349428 0.238130 0.238299
H22   H     H_    0.528179 0.412843 0.217040 0.261141
H23   H     H_    0.418236 0.199748 0.236532 0.212706
H24   H     H_    0.395298 0.261429 0.318942 0.228482
C47   C     C_2   0.925741 0.121670 0.637654 0.388751
H25   H     H_    0.948263 0.192152 0.673147 0.046522
O11   O     O_2   0.999262 0.081196 0.644170 -0.558975
C48   C     C_3   0.761118 0.868705 0.648015 -0.375253
C49   C     C_3   0.750445 0.866126 0.742868 -0.799932
H26   H     H_    0.815647 0.949156 0.766016 0.251043
H27   H     H_    0.655836 0.849357 0.750434 0.242432
H28   H     H_    0.771354 0.795770 0.784033 0.265439
H29   H     H_    0.698715 0.781528 0.630048 0.186855
H30   H     H_    0.854015 0.881330 0.640339 0.247723
C50   C     C_3   0.159788 0.392075 0.941853 -0.339755
C51   C     C_3   0.297249 0.428764 0.968330 -0.791749
H31   H     H_    0.350426 0.517797 0.936033 0.227386
H32   H     H_    0.321080 0.426640 0.039507 0.300398
H33   H     H_    0.325104 0.369237 0.947554 0.243157
H34   H     H_    0.109398 0.298724 0.963777 0.242875
H35   H     H_    0.148485 0.402028 0.869952 0.199213
C52   C     C_3   0.542617 0.253909 0.681319 -0.425998
C53   C     C_3   0.562584 0.168987 0.640708 -0.810441
H36   H     H_    0.506629 0.155339 0.576677 0.274306
H37   H     H_    0.660680 0.201223 0.633332 0.236715
H38   H     H_    0.534916 0.084397 0.683804 0.240263
H39   H     H_    0.611794 0.279760 0.738426 0.191931
H40   H     H_    0.451329 0.203720 0.703775 0.243576
C54   C     C_3   0.389847 0.339357 0.758162 -0.456691
C55   C     C_3   0.295716 0.221893 0.797157 -0.814354
H41   H     H_    0.207620 0.225632 0.797550 0.247919
H42   H     H_    0.278034 0.152219 0.760033 0.268379
H43   H     H_    0.329909 0.199465 0.865416 0.240987
H44   H     H_    0.483901 0.347369 0.779773 0.211737
H45   H     H_    0.385495 0.407479 0.786925 0.209340
C56   C     C_3   0.853672 0.247767 0.946207 -0.370013
C57   C     C_3   0.850976 0.225428 0.854797 -0.871417
H46   H     H_    0.794544 0.261725 0.806627 0.251406
H47   H     H_    0.944475 0.261863 0.835660 0.248171
H48   H     H_    0.810099 0.130746 0.853625 0.240719
H49   H     H_    0.921050 0.223321 0.991432 0.206589
H50   H     H_    0.762891 0.184651 0.966284 0.217796
C58   C     C_3   0.792312 0.275371 0.109341 -0.439994
C59   C     C_3   0.653097 0.229274 0.086852 -0.859132
H51   H     H_    0.621356 0.291581 0.098180 0.257578
H52   H     H_    0.624836 0.215301 0.017974 0.249982
H53   H     H_    0.607079 0.145932 0.129003 0.252475
H54   H     H_    0.819457 0.205614 0.109444 0.202934
H55   H     H_    0.811261 0.291662 0.177583 0.219076
C60   C     C_2   0.887793 0.613942 0.883157 0.334081
H56   H     H_    0.881308 0.631512 0.812731 0.087066
O12   O     O_2   0.807708 0.611827 0.919215 -0.574669

loop_
_geom_bond_atom_site_label_1
_geom_bond_atom_site_label_2
_ccdc_geom_bond_type
C5    C42   S    
C23   O6    A    
C19   C20   A    
C26   N2    A    
C3    C6    S    
C21   H5    S    
C37   N1    A    
C7    C8    T    
C4    H2    S    
C47   H25   S    
C10   C22   A    
C26   C27   A    
C56   H50   S    
C30   C35   A    
C28   C29   A    
C38   C42   S    
C20   H7    S    
C57   H47   S    
C36   N1    A    
C9    C22   A    
C15   C16   A    
C51   H33   S    
C11   C24   A    
C56   C57   S    
Cu2   O8    S    
C18   C19   A    
C7    C42   S    
C55   H41   S    
C38   H1    S    
C36   H9    S    
C25   C37   A    
C45   H23   S    
C50   C51   S    
Cu1   O5    S    
C6    C41   T    
C51   H32   S    
C38   C50   S    
C1    O2    A    
C52   H40   S    
C8    C12   S    
C49   H27   S    
C34   O7    A    
C31   C36   A    
C25   C54   S    
C25   C32   A    
C22   H3    S    
Cu2   N2    S    
C40   H15   S    
C13   C14   A    
C58   H55   S    
Cu2   O2    S    
C34   C41   S    
C2    C43   S    
C26   H10   S    
C28   H11   S    
Cu1   O1    S    
C39   C42   S    
C47   O11   D    
C10   C21   A    
C12   O4    A    
C48   H30   S    
C56   H49   S    
C33   C52   S    
C58   C59   S    
C50   H34   S    
C43   O9    D    
C57   H48   S    
C39   C40   S    
C46   H21   S    
C37   H8    S    
C27   H12   S    
C43   H18   S    
C39   H14   S    
C12   O3    A    
C4    H17   S    
C17   C21   A    
C23   O5    A    
C19   C45   S    
C60   O12   D    
C44   H19   S    
C29   C30   A    
C2    C38   S    
C31   C32   A    
C16   C20   A    
C51   H31   S    
C17   C18   A    
Cu2   O6    S    
C53   H37   S    
C49   H28   S    
C44   O10   D    
C55   H43   S    
C54   H44   S    
C9    H4    S    
C59   H53   S    
C5    C60   S    
C3    C40   S    
Cu1   O7    S    
Cu1   Cu2   S    
C3    C4    S    
C1    O1    A    
C52   H39   S    
C53   H36   S    
C59   H52   S    
C15   C17   A    
C40   C58   S    
C48   H29   S    
C5    H16   S    
C45   C46   S    
C4    C5    S    
C46   H22   S    
C10   C23   S    
C57   H46   S    
C35   H13   S    
C32   C33   A    
C2    C3    S    
C29   C31   A    
C54   C55   S    
C11   C13   A    
C58   H54   S    
C14   H6    S    
C11   C47   S    
Cu1   O3    S    
C13   C48   S    
C33   C35   A    
C60   H56   S    
C53   H38   S    
C52   C53   S    
C55   H42   S    
C54   H45   S    
C46   H20   S    
C45   H24   S    
C9    C18   A    
C48   C49   S    
C1    C24   S    
C16   C24   A    
C39   C56   S    
C27   C28   A    
C14   C15   A    
Cu2   O4    S    
C49   H26   S    
C30   N2    A    
C34   O8    A    
C2    C44   S    
C50   H35   S    
Cu1   N1    S    
C59   H51   S    
