data_mof_unit_59062.cif
_audit_creation_date              2012-12-10T17:51:26-0500
_audit_creation_method            fapswitch 2.2
_symmetry_space_group_name_H-M    P1
_symmetry_Int_Tables_number       1
_space_group_crystal_system       triclinic
_cell_length_a                    9.9145
_cell_length_b                    10.708431
_cell_length_c                    16.484848
_cell_angle_alpha                 93.678679
_cell_angle_beta                  85.794399
_cell_angle_gamma                 90.762609
_cell_volume                      1741.80133882

loop_
_atom_site_label
_atom_site_type_symbol
_atom_type_description
_atom_site_fract_x
_atom_site_fract_y
_atom_site_fract_z
_atom_type_partial_charge
C1    C     C_R   0.501182 0.738685 0.492234 0.889555
C2    C     C_R   0.347516 0.438524 0.778160 -0.298796
C3    C     C_R   0.404149 0.453818 0.133913 0.539678
C4    C     C_R   0.407213 0.492920 0.216719 -0.332516
C5    C     C_R   0.645284 0.441920 0.214183 -0.190697
C6    C     C_R   0.645519 0.408195 0.131576 -0.246911
C7    C     C_R   0.525569 0.410449 0.092015 0.084647
C8    C     C_2   0.437701 0.310508 0.967829 -0.113248
C9    C     C_2   0.533641 0.377287 0.004635 -0.168518
C10   C     C_R   0.525369 0.481763 0.257409 -0.091214
C11   C     C_R   0.266146 0.874628 0.438870 -0.203703
C12   C     C_R   0.482169 0.485425 0.652140 0.916604
C13   C     C_R   0.139038 0.930561 0.447957 0.074978
C14   C     C_R   0.123452 0.045704 0.491650 -0.211508
C15   C     C_R   0.236768 0.109641 0.518808 -0.185593
C16   C     C_R   0.368328 0.058943 0.502399 0.105321
C17   C     C_R   0.378835 0.933663 0.473970 0.078189
C18   C     C_R   0.500860 0.871330 0.484417 -0.112518
C19   C     C_R   0.617622 0.937968 0.503105 -0.206129
C20   C     C_R   0.613628 0.065480 0.513967 -0.214081
C21   C     C_R   0.490745 0.127160 0.512213 -0.122259
C22   C     C_R   0.841745 0.678864 0.595281 -0.138112
C23   C     C_R   0.497384 0.260478 0.505897 0.870343
C24   C     C_R   0.897152 0.784249 0.631609 -0.244308
C25   C     C_R   0.034554 0.794927 0.631742 -0.205649
C26   C     C_R   0.118738 0.697073 0.599403 0.005510
C27   C     C_R   0.066061 0.593338 0.548462 0.105607
C28   C     C_R   0.920779 0.589994 0.547460 0.176211
C29   C     C_R   0.933122 0.413589 0.454722 -0.107025
C30   C     C_R   0.075959 0.413406 0.454839 -0.134171
C31   C     C_R   0.517920 0.498767 0.346059 0.883766
C32   C     C_R   0.471292 0.429352 0.731354 -0.175754
C33   C     C_R   0.573134 0.349235 0.754612 -0.068636
C34   C     C_R   0.554195 0.292450 0.828995 -0.077074
C35   C     C_R   0.435638 0.316038 0.879417 -0.044762
C36   C     C_R   0.326528 0.376606 0.849618 0.554160
H1    H     H_    0.738977 0.377584 0.098512 0.151623
H2    H     H_    0.712206 0.891841 0.510192 0.186957
H3    H     H_    0.276008 0.785402 0.404247 0.159617
H4    H     H_    0.024244 0.087127 0.503610 0.144589
H5    H     H_    0.218409 0.196144 0.555070 0.178623
H6    H     H_    0.707286 0.115585 0.523915 0.177668
H7    H     H_    0.883110 0.342849 0.417542 0.141728
H8    H     H_    0.735683 0.670452 0.606520 0.216351
H9    H     H_    0.832901 0.855047 0.663802 0.166837
H10   H     H_    0.318200 0.530993 0.250530 0.160545
H11   H     H_    0.074181 0.876249 0.665397 0.158452
H12   H     H_    0.133179 0.342641 0.417774 0.155259
H13   H     H_    0.737773 0.433703 0.244490 0.168406
H14   H     H_    0.618989 0.415745 0.968771 0.154322
H15   H     H_    0.265245 0.492187 0.758585 0.180167
H16   H     H_    0.351053 0.273148 0.002620 0.171871
N1    N     N_R   0.857140 0.501200 0.500750 -0.111449
N2    N     N_R   0.142740 0.501280 0.500770 -0.120409
O1    O     O_R   0.385310 0.683220 0.500000 -0.628159
O2    O     O_R   0.614640 0.683250 0.500010 -0.634232
O3    O     O_R   0.371780 0.500010 0.615800 -0.620962
O4    O     O_R   0.601110 0.500030 0.615800 -0.631993
O5    O     O_R   0.385360 0.316750 0.499990 -0.633649
O6    O     O_R   0.614690 0.316780 0.500000 -0.615016
O7    O     O_R   0.398890 0.499970 0.384200 -0.621133
O8    O     O_R   0.628220 0.499990 0.384200 -0.609081
Zn1   Zn    Zn3+2 0.346870 0.499980 0.499990 0.934006
Zn2   Zn    Zn3+2 0.653130 0.500020 0.500010 0.949244
C37   C     C_1   0.695697 0.322350 0.703035 0.215745
N3    N     N_1   0.793560 0.300641 0.662123 -0.223681
C38   C     C_1   0.023712 0.866667 0.415998 0.131627
N4    N     N_1   0.931156 0.815086 0.390358 -0.204089
C39   C     C_1   0.244881 0.711593 0.636574 0.279227
N5    N     N_1   0.342510 0.732876 0.669746 -0.235642
O9    O     O_3   0.201399 0.384473 0.892790 -0.627310
C40   C     C_3   0.135528 0.266230 0.885936 0.055515
H17   H     H_    0.058211 0.261669 0.937996 0.162902
H18   H     H_    0.205321 0.186845 0.891703 0.128264
C41   C     C_3   0.063272 0.249200 0.806342 -0.338149
H19   H     H_    0.965570 0.299801 0.814001 0.229234
H20   H     H_    0.124815 0.288975 0.755090 0.221204
C42   C     C_3   0.037724 0.111121 0.782874 -0.926573
H21   H     H_    0.135345 0.063265 0.765633 0.254755
H22   H     H_    0.974437 0.102326 0.729892 0.268560
H23   H     H_    0.985073 0.064260 0.834498 0.279661
O10   O     O_3   0.290645 0.467038 0.089822 -0.635129
C43   C     C_3   0.165576 0.440730 0.133245 0.099101
H24   H     H_    0.085222 0.451927 0.090764 0.187282
H25   H     H_    0.141601 0.510920 0.184544 0.130994
C44   C     C_3   0.155380 0.305738 0.160430 -0.409433
H26   H     H_    0.170715 0.238857 0.106281 0.219110
H27   H     H_    0.234138 0.288689 0.202855 0.222664
C45   C     C_3   0.017393 0.280494 0.203834 -0.947017
H28   H     H_    0.999532 0.346460 0.258273 0.257532
H29   H     H_    0.013628 0.183449 0.223973 0.272689
H30   H     H_    0.936176 0.290971 0.161943 0.259842
C46   C     C_1   0.655835 0.210822 0.855253 0.172318
N6    N     N_1   0.735849 0.145325 0.876913 -0.222768

loop_
_geom_bond_atom_site_label_1
_geom_bond_atom_site_label_2
_ccdc_geom_bond_type
C16   C21   A    
C31   O7    A    
C35   C36   A    
C34   C46   S    
C27   N2    A    
C33   C37   S    
C4    H10   S    
C23   O5    A    
C30   N2    A    
C1    C18   S    
C46   N6    T    
C24   H9    S    
C30   H12   S    
C1    O2    A    
C18   C19   A    
C3    C7    A    
C5    C6    A    
N1    Zn2   S    
C44   H27   S    
N2    Zn1   S    
C15   C16   A    
C2    C32   A    
C34   C35   A    
O7    Zn1   S    
O8    Zn2   S    
C10   C31   S    
C22   H8    S    
C19   C20   A    
C8    C9    D    
O1    Zn1   S    
O2    Zn2   S    
C45   H29   S    
C8    H16   S    
C36   O9    S    
C12   O4    A    
C22   C28   A    
C13   C14   A    
C12   C32   S    
C31   O8    A    
C5    H13   S    
C40   C41   S    
O3    Zn1   S    
O4    Zn2   S    
C23   O6    A    
C38   N4    T    
C24   C25   A    
C15   H5    S    
C40   H18   S    
C44   H26   S    
C16   C17   A    
C25   C26   A    
C8    C35   S    
C41   H19   S    
C29   C30   A    
C19   H2    S    
C43   H24   S    
C3    O10   S    
C17   C18   A    
C26   C27   A    
C6    H1    S    
C45   H30   S    
C11   H3    S    
C41   H20   S    
C12   O3    A    
C43   H25   S    
C37   N3    T    
C21   C23   S    
C22   C24   A    
C4    C10   A    
C3    C4    A    
C13   C38   S    
C2    C36   A    
C7    C9    S    
C25   H11   S    
C11   C17   A    
C42   H21   S    
C9    H14   S    
C40   H17   S    
C44   C45   S    
C20   H6    S    
C28   N1    A    
C6    C7    A    
O5    Zn1   S    
O6    Zn2   S    
C32   C33   A    
C1    O1    A    
O9    C40   S    
C11   C13   A    
C42   H23   S    
C29   N1    A    
C33   C34   A    
C42   H22   S    
C39   N5    T    
C41   C42   S    
C2    H15   S    
C14   H4    S    
C5    C10   A    
C43   C44   S    
C20   C21   A    
O10   C43   S    
C27   C28   A    
C26   C39   S    
C14   C15   A    
C45   H28   S    
C29   H7    S    
