data_mof_unit_43787.cif
_audit_creation_date              2012-12-10T21:03:38-0500
_audit_creation_method            fapswitch 2.2
_symmetry_space_group_name_H-M    P1
_symmetry_Int_Tables_number       1
_space_group_crystal_system       triclinic
_cell_length_a                    15.847882
_cell_length_b                    15.065825
_cell_length_c                    23.427257
_cell_angle_alpha                 90.001281
_cell_angle_beta                  90.183063
_cell_angle_gamma                 90.01634
_cell_volume                      5593.49629452

loop_
_atom_site_label
_atom_site_type_symbol
_atom_type_description
_atom_site_fract_x
_atom_site_fract_y
_atom_site_fract_z
_atom_type_partial_charge
C1    C     C_R   0.339012 0.499968 0.500141 0.910729
C2    C     C_R   0.660988 0.499995 0.499855 0.910718
C3    C     C_R   0.514025 0.575339 0.237074 -0.116200
C4    C     C_R   0.486027 0.575360 0.762924 -0.116138
C5    C     C_R   0.515914 0.576546 0.296326 -0.225437
C6    C     C_R   0.484118 0.576554 0.703672 -0.225431
C7    C     C_R   0.497385 0.499116 0.326989 -0.033991
C8    C     C_R   0.502647 0.499131 0.673011 -0.033994
C9    C     C_R   0.476685 0.420557 0.297950 -0.222557
C10   C     C_R   0.523381 0.420597 0.702049 -0.222575
C11   C     C_R   0.474605 0.419537 0.238774 -0.123561
C12   C     C_R   0.525482 0.419590 0.761225 -0.123549
C13   C     C_R   0.493588 0.496772 0.208456 0.342868
C14   C     C_R   0.506488 0.496814 0.791544 0.342774
C15   C     C_R   0.955869 0.581864 0.498069 -0.056716
C16   C     C_R   0.044070 0.418262 0.501593 -0.058950
C17   C     C_R   0.044230 0.581815 0.501794 -0.056697
C18   C     C_R   0.955810 0.418315 0.497860 -0.058951
C19   C     C_R   0.912912 0.500045 0.496371 0.030264
C20   C     C_R   0.087078 0.499947 0.503322 0.030332
C21   C     C_1   0.823677 0.499902 0.497347 -0.034945
C22   C     C_1   0.176315 0.499755 0.502454 -0.035005
C23   C     C_1   0.250962 0.499835 0.501329 -0.171224
C24   C     C_1   0.749034 0.499938 0.498572 -0.171151
C25   C     C_R   0.499535 0.499888 0.389061 0.869117
C26   C     C_R   0.500471 0.499891 0.610939 0.869105
C27   C     C_R   0.466754 0.952951 0.452951 -0.047191
C28   C     C_R   0.532879 0.047587 0.547188 -0.046900
C29   C     C_R   0.533218 0.952971 0.547047 -0.047191
C30   C     C_R   0.467129 0.047570 0.452802 -0.046885
C31   C     C_R   0.499987 0.905139 0.499999 -0.055457
C32   C     C_R   0.500009 0.095169 0.499996 -0.053823
C33   C     C_1   0.499992 0.807016 0.499999 0.088485
C34   C     C_1   0.500008 0.193092 0.500000 0.082656
C35   C     C_R   0.580004 0.494270 0.881306 0.483583
C36   C     C_R   0.420066 0.494341 0.118697 0.483607
C37   C     C_R   0.429272 0.491307 0.879074 0.502209
C38   C     C_R   0.570792 0.491157 0.120927 0.502215
C39   C     C_R   0.425866 0.489061 0.938472 -0.019082
C40   C     C_R   0.574194 0.488920 0.061529 -0.019090
C41   C     C_R   0.501705 0.488381 0.969948 -0.032754
C42   C     C_R   0.498354 0.488372 0.030053 -0.032760
C43   C     C_R   0.580634 0.488449 0.941384 -0.059674
C44   C     C_R   0.419424 0.488553 0.058618 -0.059668
C45   C     C_R   0.348140 0.486508 0.966535 -0.222652
C46   C     C_R   0.651914 0.486251 0.033466 -0.222654
C47   C     C_R   0.343759 0.484821 0.025953 -0.014164
C48   C     C_R   0.656292 0.484577 0.974047 -0.014131
H1    H     H_    0.289873 0.484484 0.942147 0.189434
H2    H     H_    0.710177 0.484121 0.057854 0.189426
H3    H     H_    0.529096 0.634912 0.213331 0.126664
H4    H     H_    0.470949 0.634924 0.786666 0.126718
H5    H     H_    0.533094 0.637228 0.318166 0.156093
H6    H     H_    0.466920 0.637219 0.681833 0.156133
H7    H     H_    0.462040 0.360169 0.320933 0.174530
H8    H     H_    0.538035 0.360218 0.679066 0.174520
H9    H     H_    0.459148 0.358743 0.216383 0.123805
H10   H     H_    0.540960 0.358812 0.783617 0.123834
N1    N     N_R   0.505285 0.494461 0.852196 -0.355708
N2    N     N_R   0.494785 0.494417 0.147805 -0.355727
N3    N     N_1   0.500000 0.270550 0.500000 -0.087258
N4    N     N_1   0.500000 0.729450 0.500000 -0.086757
O1    O     O_R   0.378020 0.573650 0.500020 -0.604957
O2    O     O_R   0.621980 0.426350 0.499980 -0.608614
O3    O     O_R   0.621980 0.573650 0.499980 -0.605030
O4    O     O_R   0.378020 0.426350 0.500020 -0.608724
O5    O     O_R   0.499980 0.573680 0.416160 -0.615297
O6    O     O_R   0.500020 0.426320 0.583840 -0.616794
O7    O     O_R   0.500020 0.573680 0.583840 -0.615299
O8    O     O_R   0.499980 0.426320 0.416160 -0.616797
O9    O     O_2   0.652584 0.501801 0.851808 -0.559180
O10   O     O_2   0.347500 0.501949 0.148197 -0.559166
O11   O     O_2   0.357249 0.490437 0.848104 -0.573232
O12   O     O_2   0.642813 0.490177 0.151898 -0.573222
Zn1   Zn    Zn3+2 0.500000 0.598370 0.500000 0.988319
Zn2   Zn    Zn3+2 0.500000 0.401630 0.500000 0.983833
C49   C     C_R   0.258775 0.475083 0.051195 0.191465
C50   C     C_R   0.199653 0.544127 0.046528 -0.141914
C51   C     C_R   0.118462 0.533685 0.068755 -0.136060
C52   C     C_R   0.095728 0.454215 0.095405 -0.102760
C53   C     C_R   0.154065 0.384929 0.099720 -0.136122
C54   C     C_R   0.235265 0.395019 0.077451 -0.082420
H11   H     H_    0.216527 0.605827 0.025752 0.126894
H12   H     H_    0.073100 0.587109 0.065200 0.129251
H13   H     H_    0.032841 0.446226 0.112544 0.130520
H14   H     H_    0.136271 0.323299 0.120147 0.125610
H15   H     H_    0.279825 0.340726 0.080643 0.114280
C55   C     C_R   0.741256 0.474700 0.948803 0.191465
C56   C     C_R   0.800550 0.543608 0.953530 -0.142028
C57   C     C_R   0.881721 0.533029 0.931304 -0.135969
C58   C     C_R   0.904261 0.453557 0.904595 -0.102752
C59   C     C_R   0.845753 0.384405 0.900220 -0.136163
C60   C     C_R   0.764573 0.394630 0.922490 -0.082347
H16   H     H_    0.783826 0.605307 0.974351 0.126908
H17   H     H_    0.927216 0.586348 0.934907 0.129285
H18   H     H_    0.967132 0.445463 0.887456 0.130522
H19   H     H_    0.863397 0.322773 0.879748 0.125602
H20   H     H_    0.719879 0.340439 0.919253 0.114263
C61   C     C_R   0.092083 0.666931 0.503106 0.134220
C62   C     C_R   0.139495 0.690261 0.551629 -0.155755
C63   C     C_R   0.184446 0.770105 0.552950 -0.127295
C64   C     C_R   0.182072 0.827354 0.506050 -0.104817
C65   C     C_R   0.135035 0.804659 0.457631 -0.131420
C66   C     C_R   0.090369 0.724615 0.455991 -0.125461
H21   H     H_    0.141374 0.646688 0.588382 0.127334
H22   H     H_    0.220918 0.787734 0.590411 0.124449
H23   H     H_    0.216534 0.889348 0.507323 0.111477
H24   H     H_    0.133120 0.849141 0.421390 0.118323
H25   H     H_    0.054460 0.707561 0.418140 0.125004
C67   C     C_R   0.908400 0.333029 0.496105 0.139717
C68   C     C_R   0.864962 0.307865 0.446318 -0.153392
C69   C     C_R   0.823114 0.226237 0.443819 -0.124532
C70   C     C_R   0.824479 0.169251 0.490877 -0.124707
C71   C     C_R   0.866736 0.194295 0.540801 -0.147920
C72   C     C_R   0.908505 0.275964 0.543533 -0.128266
H26   H     H_    0.864425 0.351017 0.409343 0.126784
H27   H     H_    0.790068 0.206907 0.405275 0.129126
H28   H     H_    0.792566 0.105792 0.488719 0.114098
H29   H     H_    0.867274 0.150311 0.577329 0.127321
H30   H     H_    0.941411 0.294514 0.582326 0.123993
C73   C     C_R   0.908129 0.667023 0.496922 0.134226
C74   C     C_R   0.860748 0.690606 0.448444 -0.155744
C75   C     C_R   0.815936 0.770513 0.447260 -0.127384
C76   C     C_R   0.818411 0.827567 0.494258 -0.104784
C77   C     C_R   0.865402 0.804610 0.542641 -0.131475
C78   C     C_R   0.909937 0.724505 0.544140 -0.125500
H31   H     H_    0.858797 0.647188 0.411614 0.127324
H32   H     H_    0.779497 0.788344 0.409829 0.124446
H33   H     H_    0.784065 0.889615 0.493088 0.111441
H34   H     H_    0.867388 0.848936 0.578960 0.118357
H35   H     H_    0.945822 0.707250 0.581959 0.125027
C79   C     C_R   0.091344 0.332911 0.503108 0.139711
C80   C     C_R   0.091106 0.276152 0.455526 -0.128507
C81   C     C_R   0.132624 0.194352 0.458052 -0.147726
C82   C     C_R   0.174763 0.168869 0.507923 -0.124807
C83   C     C_R   0.176282 0.225557 0.555130 -0.124909
C84   C     C_R   0.134684 0.307317 0.552837 -0.153270
H36   H     H_    0.058262 0.295028 0.416779 0.124054
H37   H     H_    0.131967 0.150598 0.421408 0.127431
H38   H     H_    0.206462 0.105297 0.509924 0.114104
H39   H     H_    0.209238 0.205886 0.593633 0.129076
H40   H     H_    0.135313 0.350222 0.589932 0.126764
C85   C     C_R   0.433922 0.097096 0.402644 0.123323
C86   C     C_R   0.361409 0.149982 0.407863 -0.153597
C87   C     C_R   0.330308 0.196856 0.360801 -0.127164
C88   C     C_R   0.371352 0.191183 0.308216 -0.137227
C89   C     C_R   0.443761 0.138956 0.302718 -0.138332
C90   C     C_R   0.475107 0.092085 0.349744 -0.125564
H41   H     H_    0.329386 0.154975 0.448414 0.131948
H42   H     H_    0.274489 0.237660 0.365124 0.138376
H43   H     H_    0.347343 0.227643 0.271820 0.130173
H44   H     H_    0.475721 0.134977 0.262042 0.129462
H45   H     H_    0.531519 0.052225 0.345060 0.120762
C91   C     C_R   0.570007 0.904116 0.596116 0.133161
C92   C     C_R   0.517383 0.858733 0.634371 -0.162029
C93   C     C_R   0.551951 0.815949 0.681957 -0.134241
C94   C     C_R   0.639128 0.817024 0.691111 -0.093123
C95   C     C_R   0.691858 0.861792 0.653032 -0.129236
C96   C     C_R   0.657475 0.905615 0.605781 -0.127766
H46   H     H_    0.449700 0.857868 0.627816 0.118585
H47   H     H_    0.511132 0.782633 0.712035 0.121439
H48   H     H_    0.665740 0.783675 0.727913 0.133830
H49   H     H_    0.759279 0.863133 0.660416 0.120815
H50   H     H_    0.698713 0.941209 0.576990 0.110144
C97   C     C_R   0.566127 0.097128 0.597333 0.123460
C98   C     C_R   0.638765 0.149867 0.592122 -0.153703
C99   C     C_R   0.669902 0.196769 0.639170 -0.127114
C100  C     C_R   0.628767 0.191273 0.691731 -0.137068
C101  C     C_R   0.556238 0.139184 0.697222 -0.138427
C102  C     C_R   0.524859 0.092280 0.650209 -0.125586
H51   H     H_    0.670862 0.154713 0.551590 0.131862
H52   H     H_    0.725821 0.237456 0.634854 0.138179
H53   H     H_    0.652802 0.227758 0.728116 0.130168
H54   H     H_    0.524212 0.135338 0.737879 0.129464
H55   H     H_    0.468359 0.052523 0.654886 0.120748
C103  C     C_R   0.429888 0.904076 0.403905 0.133155
C104  C     C_R   0.482439 0.858620 0.365654 -0.162110
C105  C     C_R   0.447801 0.815844 0.318078 -0.134134
C106  C     C_R   0.360624 0.816999 0.308931 -0.093084
C107  C     C_R   0.307966 0.861837 0.347007 -0.129321
C108  C     C_R   0.342419 0.905650 0.394249 -0.127750
H56   H     H_    0.550123 0.857697 0.372199 0.118603
H57   H     H_    0.488566 0.782480 0.288000 0.121456
H58   H     H_    0.333958 0.783661 0.272137 0.133835
H59   H     H_    0.240546 0.863242 0.339626 0.120782
H60   H     H_    0.301235 0.941298 0.423036 0.110120

loop_
_geom_bond_atom_site_label_1
_geom_bond_atom_site_label_2
_ccdc_geom_bond_type
C38   C40   A    
C84   H40   S    
C97   C98   A    
C8    C26   S    
C41   C42   A    
C89   C90   A    
C25   O5    A    
C2    O3    A    
C82   H38   S    
C105  C106  A    
C57   C58   A    
C57   H17   S    
C39   C41   A    
C13   N2    S    
C49   C50   A    
C40   C46   A    
C14   N1    S    
C62   H21   S    
C63   C64   A    
C4    H4    S    
C82   C83   A    
C49   C54   A    
C5    H5    S    
C28   C29   A    
C19   C21   S    
C85   C86   A    
C70   C71   A    
C38   O12   S    
C51   H12   S    
C36   O10   S    
C54   H15   S    
C74   H31   S    
C17   C20   A    
C103  C108  A    
C35   N1    A    
C18   C19   A    
C101  C102  A    
C56   H16   S    
C67   C68   A    
C18   C67   S    
C58   H18   S    
C77   H34   S    
C94   C95   A    
C68   C69   A    
C79   C80   A    
C101  H54   S    
C48   C55   S    
C68   H26   S    
C9    H7    S    
C10   H8    S    
C43   C48   A    
C53   H14   S    
C3    C13   A    
C44   C47   A    
C39   C45   A    
C75   C76   A    
C12   H10   S    
C40   C42   A    
C61   C66   A    
C35   O9    S    
C80   H36   S    
C97   C102  A    
C27   C30   A    
C29   C31   A    
C41   C43   A    
C98   C99   A    
C85   C90   A    
C42   C44   A    
C6    H6    S    
C1    O1    A    
C69   C70   A    
C2    O2    A    
C59   H19   S    
C87   C88   A    
C102  H55   S    
C45   C47   A    
N3    Zn2   S    
C100  H53   S    
C46   C48   A    
C92   C93   A    
C73   C74   A    
C27   C31   A    
C100  C101  A    
C28   C32   A    
C4    C6    A    
C81   H37   S    
C5    C7    A    
C3    H3    S    
C50   C51   A    
C33   N4    T    
C6    C8    A    
C94   H48   S    
C36   N2    A    
C79   C84   A    
C34   N3    T    
C53   C54   A    
C30   C85   S    
C51   C52   A    
C88   H43   S    
C32   C34   S    
C95   C96   A    
C105  H57   S    
C15   C19   A    
C52   H13   S    
C80   C81   A    
C9    C11   A    
C61   C62   A    
C45   H1    S    
C16   C20   A    
O4    Zn2   S    
C31   C33   S    
C1    O4    A    
O2    Zn2   S    
C64   H23   S    
C17   C61   S    
C91   C92   A    
C37   N1    A    
C10   C12   A    
C28   C97   S    
C104  C105  A    
C38   N2    A    
C95   H49   S    
C8    C10   A    
C103  C104  A    
C12   C14   A    
C93   H47   S    
C1    C23   S    
C2    C24   S    
C77   C78   A    
N4    Zn1   S    
C36   C44   A    
O5    Zn1   S    
C90   H45   S    
C47   C49   S    
O8    Zn2   S    
C99   C100  A    
C35   C43   A    
C107  C108  A    
C88   C89   A    
C106  H58   S    
C63   H22   S    
C15   C17   A    
C37   O11   S    
C55   C60   A    
C93   C94   A    
C15   C73   S    
C86   H41   S    
C92   H46   S    
C96   H50   S    
C87   H42   S    
C20   C22   S    
C52   C53   A    
C3    C5    A    
O3    Zn1   S    
C27   C103  S    
C50   H11   S    
C108  H60   S    
C71   C72   A    
C99   H52   S    
C106  C107  A    
O6    Zn2   S    
C46   H2    S    
C81   C82   A    
C7    C25   S    
C69   H27   S    
C86   C87   A    
C26   O6    A    
C89   H44   S    
C56   C57   A    
C73   C78   A    
C37   C39   A    
C30   C32   A    
C11   C13   A    
C75   H32   S    
C66   H25   S    
C71   H29   S    
O1    Zn1   S    
C78   H35   S    
C67   C72   A    
C59   C60   A    
C83   H39   S    
C76   H33   S    
O7    Zn1   S    
C4    C14   A    
C64   C65   A    
C16   C79   S    
C98   H51   S    
C107  H59   S    
C70   H28   S    
C7    C9    A    
C91   C96   A    
C76   C77   A    
C55   C56   A    
C16   C18   A    
C72   H30   S    
C21   C24   T    
C65   C66   A    
C26   O7    A    
C22   C23   T    
C83   C84   A    
C65   H24   S    
C62   C63   A    
C25   O8    A    
C74   C75   A    
C11   H9    S    
C60   H20   S    
C58   C59   A    
C104  H56   S    
C29   C91   S    
