data_mof_unit_61910.cif
_audit_creation_date              2013-03-05T16:18:10-0500
_audit_creation_method            fapswitch 2.2
_symmetry_space_group_name_H-M    P1
_symmetry_Int_Tables_number       1
_space_group_crystal_system       triclinic
_cell_length_a                    19.321259
_cell_length_b                    18.028685
_cell_length_c                    27.810376
_cell_angle_alpha                 90.263295
_cell_angle_beta                  90.166187
_cell_angle_gamma                 89.996207
_cell_volume                      9687.23690124

loop_
_atom_site_label
_atom_site_type_symbol
_atom_site_description
_atom_site_fract_x
_atom_site_fract_y
_atom_site_fract_z
_atom_type_partial_charge
O1    O     O_R   0.400150 0.561970 0.500010 -0.586218
O2    O     O_R   0.599850 0.438030 0.499990 -0.586218
O3    O     O_R   0.599850 0.561970 0.499990 -0.585782
O4    O     O_R   0.400150 0.438030 0.500010 -0.585781
C1    C     C_R   0.367069 0.500001 0.499948 0.830792
C2    C     C_R   0.632931 0.499999 0.500052 0.830793
O5    O     O_R   0.500010 0.561950 0.430260 -0.586843
O6    O     O_R   0.499990 0.438050 0.569740 -0.586841
O7    O     O_R   0.499990 0.561950 0.569740 -0.587335
O8    O     O_R   0.500010 0.438050 0.430260 -0.587333
C3    C     C_R   0.499925 0.499804 0.407245 0.813889
C4    C     C_R   0.500075 0.500196 0.592755 0.813887
Cu1   Cu    Cu3+1 0.500000 0.573360 0.500000 0.955377
Cu2   Cu    Cu3+1 0.500000 0.426640 0.500000 0.955380
C5    C     C_R   0.443313 0.471075 0.177392 0.558004
C6    C     C_R   0.556690 0.528918 0.822607 0.558005
O9    O     O_2   0.386859 0.448898 0.201919 -0.522031
O10   O     O_2   0.613147 0.551089 0.798078 -0.522015
N1    N     N_R   0.500504 0.495802 0.201782 -0.469776
N2    N     N_R   0.499496 0.504199 0.798217 -0.469787
C7    C     C_R   0.559035 0.516983 0.177924 0.546490
C8    C     C_R   0.440963 0.483026 0.822075 0.546493
C9    C     C_R   0.501813 0.564720 0.278245 -0.090697
C10   C     C_R   0.501838 0.569639 0.721019 -0.089553
C11   C     C_R   0.501647 0.565822 0.328416 -0.204562
C12   C     C_R   0.501922 0.568703 0.670907 -0.204065
C13   C     C_R   0.498050 0.431298 0.329093 -0.204074
C14   C     C_R   0.498381 0.434177 0.671584 -0.204550
C15   C     C_R   0.498134 0.430362 0.278981 -0.089544
C16   C     C_R   0.498214 0.435280 0.721755 -0.090706
C17   C     C_R   0.500007 0.497006 0.253367 0.341579
C18   C     C_R   0.499993 0.502995 0.746632 0.341604
C19   C     C_R   0.501154 0.494308 0.101632 -0.046395
C20   C     C_R   0.498847 0.505695 0.898366 -0.046393
C21   C     C_R   0.443047 0.468822 0.126904 -0.060322
C22   C     C_R   0.556956 0.531175 0.873095 -0.060324
C23   C     C_R   0.388240 0.436674 0.101533 -0.141821
C24   C     C_R   0.611765 0.563319 0.898465 -0.141820
C25   C     C_R   0.560590 0.516138 0.127471 -0.018040
C26   C     C_R   0.439408 0.483871 0.872528 -0.018043
C27   C     C_R   0.499841 0.499057 0.354291 -0.046939
C28   C     C_R   0.500159 0.500943 0.645709 -0.046940
H1    H     H_    0.496623 0.378984 0.348052 0.163239
H2    H     H_    0.497021 0.381179 0.653114 0.163750
H3    H     H_    0.497026 0.377814 0.259976 0.151150
H4    H     H_    0.496859 0.383546 0.741357 0.150911
H5    H     H_    0.346576 0.409829 0.120783 0.211315
H6    H     H_    0.653431 0.590160 0.879215 0.211314
C29   C     C_R   0.440026 0.477814 0.974198 0.061067
C30   C     C_R   0.559975 0.522192 0.025801 0.061067
C31   C     C_R   0.558126 0.530673 0.975060 -0.009182
C32   C     C_R   0.441875 0.469330 0.024939 -0.009184
C33   C     C_R   0.499465 0.503765 0.949412 0.051423
C34   C     C_R   0.500535 0.496239 0.050586 0.051422
C35   C     C_R   0.378610 0.467728 0.947497 -0.156461
C36   C     C_R   0.621389 0.532283 0.052503 -0.156463
C37   C     C_R   0.378806 0.467504 0.897552 -0.125934
C38   C     C_R   0.621191 0.532510 0.102447 -0.125935
O11   O     O_2   0.384300 0.461879 0.797044 -0.520910
O12   O     O_2   0.615695 0.538138 0.202955 -0.520924
C39   C     C_R   0.389495 0.431646 0.051518 0.119867
C40   C     C_R   0.610508 0.568353 0.948480 0.119865
H7    H     H_    0.503326 0.621018 0.651947 0.163243
H8    H     H_    0.503029 0.618820 0.346886 0.163757
H9    H     H_    0.502925 0.622187 0.740025 0.151127
H10   H     H_    0.503190 0.616453 0.258644 0.150933
H11   H     H_    0.330738 0.456464 0.878686 0.197966
H12   H     H_    0.669258 0.543555 0.121315 0.197967
H13   H     H_    0.329000 0.463277 0.964753 0.181436
H14   H     H_    0.671000 0.536736 0.035248 0.181437
C41   C     C_R   0.254296 0.567173 0.499857 -0.197768
C42   C     C_R   0.745704 0.432827 0.500143 -0.197768
C43   C     C_R   0.745695 0.567173 0.500264 -0.196116
C44   C     C_R   0.254305 0.432827 0.499736 -0.196116
H15   H     H_    0.281645 0.619607 0.500140 0.176491
H16   H     H_    0.718355 0.380393 0.499859 0.176491
H17   H     H_    0.718343 0.619609 0.500569 0.176552
H18   H     H_    0.281657 0.380391 0.499432 0.176552
C45   C     C_R   0.182116 0.567582 0.499832 0.157562
C46   C     C_R   0.817883 0.432418 0.500168 0.157562
C47   C     C_R   0.817874 0.567583 0.500277 0.157895
C48   C     C_R   0.182126 0.432417 0.499724 0.157895
C49   C     C_R   0.145543 0.499998 0.499798 -0.047584
C50   C     C_R   0.854457 0.500002 0.500202 -0.047584
C51   C     C_R   0.290918 0.500001 0.499848 -0.112748
C52   C     C_R   0.709082 0.499999 0.500152 -0.112748
N3    N     N_R   0.034690 0.470251 0.537256 -0.176927
N4    N     N_R   0.965310 0.529749 0.462744 -0.176927
N5    N     N_R   0.965845 0.470258 0.537359 -0.178387
N6    N     N_R   0.034155 0.529742 0.462641 -0.178388
C53   C     C_R   0.930106 0.500009 0.500104 0.453871
C54   C     C_R   0.069894 0.499991 0.499896 0.453871
C55   C     C_R   0.543600 0.278681 0.529853 0.090856
C56   C     C_R   0.456400 0.721319 0.470147 0.090853
C57   C     C_R   0.456419 0.278277 0.470127 0.089979
C58   C     C_R   0.543581 0.721723 0.529872 0.089976
H19   H     H_    0.578058 0.309165 0.553454 0.124896
H20   H     H_    0.421942 0.690835 0.446547 0.124901
H21   H     H_    0.421986 0.308447 0.446517 0.124915
H22   H     H_    0.578014 0.691553 0.553482 0.124920
C59   C     C_R   0.544425 0.200597 0.530408 -0.250903
C60   C     C_R   0.455575 0.799403 0.469592 -0.250904
C61   C     C_R   0.455590 0.200181 0.469566 -0.250209
C62   C     C_R   0.544410 0.799819 0.530434 -0.250209
H23   H     H_    0.579703 0.172557 0.554564 0.165523
H24   H     H_    0.420297 0.827443 0.445436 0.165524
H25   H     H_    0.420318 0.171808 0.445404 0.165951
H26   H     H_    0.579682 0.828192 0.554596 0.165953
C63   C     C_R   0.500003 0.159742 0.499989 0.052695
C64   C     C_R   0.499997 0.840257 0.500011 0.052694
N7    N     N_R   0.500000 0.316380 0.500000 -0.173250
N8    N     N_R   0.500000 0.683620 0.500000 -0.173252
N9    N     N_R   0.456952 0.036882 0.470539 -0.223346
N10   N     N_R   0.543048 0.963118 0.529461 -0.223346
N11   N     N_R   0.543049 0.037304 0.529454 -0.223438
N12   N     N_R   0.456951 0.962696 0.470546 -0.223438
C65   C     C_R   0.499999 0.923853 0.500007 0.435500
C66   C     C_R   0.500001 0.076147 0.499993 0.435501
I1    I     I_    0.131944 0.672394 0.502236 -0.240751
I2    I     I_    0.868056 0.327606 0.497762 -0.240751
I3    I     I_    0.868061 0.672389 0.502756 -0.238913
I4    I     I_    0.131939 0.327611 0.497246 -0.238912
I5    I     I_    0.323850 0.345132 0.024643 -0.307750
I6    I     I_    0.676153 0.654870 0.975351 -0.307752

loop_
_geom_bond_atom_site_label_1
_geom_bond_atom_site_label_2
_geom_bond_distance
_ccdc_geom_bond_type
C45   C49   1.408568 A    
C46   I2    2.124590 S    
C13   C15   1.393664 A    
C46   C50   1.408568 A    
O3    C2    1.287132 A    
N1    C17   1.434731 S    
C40   I6    2.141062 S    
N10   N11   1.337471 A    
O5    C3    1.287790 A    
C49   C54   1.461642 S    
C58   N8    1.364506 A    
C30   C34   1.421482 A    
O1    C1    1.287160 A    
C9    H10   1.082828 S    
C6    N2    1.368494 A    
N1    C7    1.368104 A    
C44   C48   1.394602 A    
Cu1   N8    1.987843 S    
C32   C39   1.428727 A    
C57   H21   1.081804 S    
C56   H20   1.081798 S    
C59   C63   1.408892 A    
N12   C65   1.361883 A    
C43   C47   1.394602 A    
O7    Cu1   1.951311 S    
C4    C28   1.472642 S    
C41   C51   1.402539 A    
C57   C61   1.408075 A    
C45   I1    2.124590 S    
C60   H24   1.082524 S    
C50   C53   1.461642 S    
C23   H5    1.083417 S    
C24   H6    1.083416 S    
O3    Cu1   1.940113 S    
C42   H16   1.083008 S    
N9    N12   1.337471 A    
C1    C51   1.471328 S    
C29   C32   1.420423 A    
Cu1   Cu2   2.645167 S    
C15   C17   1.400127 A    
O2    C2    1.287159 A    
C31   C40   1.428728 A    
C37   H11   1.083382 S    
C64   C65   1.507123 S    
C5    C21   1.404483 A    
C32   C34   1.421580 A    
C63   C66   1.507123 S    
C59   H23   1.082525 S    
Cu2   N7    1.987843 S    
C16   C18   1.400823 A    
C7    O12   1.349709 S    
O8    Cu2   1.951314 S    
C55   C59   1.408003 A    
C8    O11   1.349714 S    
C29   C35   1.409335 A    
C25   C38   1.396103 A    
C14   H2    1.083014 S    
C30   C36   1.409335 A    
C41   C45   1.394618 A    
C15   H3    1.082889 S    
C31   C33   1.421579 A    
C11   H8    1.083013 S    
C9    C17   1.400828 A    
C5    N1    1.368504 A    
C12   H7    1.083036 S    
C10   C18   1.400122 A    
C13   C27   1.405917 A    
N6    C54   1.356025 A    
C7    C25   1.403530 A    
N4    C53   1.356082 A    
O6    C4    1.287790 A    
N11   C66   1.361883 A    
C8    C26   1.403538 A    
C30   C31   1.420427 A    
C19   C25   1.408093 A    
C35   H13   1.076360 S    
C10   H9    1.082895 S    
C55   N7    1.364518 A    
C38   H12   1.083383 S    
N4    N6    1.330185 A    
C36   H14   1.076357 S    
C35   C37   1.388982 A    
C20   C26   1.408092 A    
C62   C64   1.408932 A    
C60   C64   1.408893 A    
N5    C53   1.356025 A    
C11   C27   1.405710 A    
C55   H19   1.081800 S    
C62   H26   1.082524 S    
C47   C50   1.408535 A    
C12   C28   1.405918 A    
N2    C18   1.434720 S    
C19   C34   1.420203 A    
C5    O9    1.349751 S    
C58   C62   1.408075 A    
O6    Cu2   1.949431 S    
C26   C37   1.396100 A    
C14   C28   1.405712 A    
C21   C23   1.395382 A    
C16   H4    1.082834 S    
C10   C12   1.393664 A    
N2    C8    1.368097 A    
O4    C1    1.287133 A    
C23   C39   1.393744 A    
C42   C52   1.402540 A    
C2    C52   1.471328 S    
C39   I5    2.141061 S    
C61   C63   1.408931 A    
N3    N5    1.330185 A    
C14   C16   1.395329 A    
C42   C46   1.394616 A    
C57   N7    1.364508 A    
C6    C22   1.404493 A    
C41   H15   1.083008 S    
C29   C33   1.421477 A    
C58   H22   1.081804 S    
C22   C24   1.395376 A    
C19   C21   1.404680 A    
C36   C38   1.388979 A    
C3    C27   1.472642 S    
C20   C22   1.404676 A    
C9    C11   1.395329 A    
C44   C51   1.402561 A    
O4    Cu2   1.940113 S    
O2    Cu2   1.940140 S    
O7    C4    1.286773 A    
C43   C52   1.402561 A    
N10   C65   1.361882 A    
O8    C3    1.286773 A    
N9    C66   1.361882 A    
C13   H1    1.083035 S    
O5    Cu1   1.949434 S    
O1    Cu1   1.940140 S    
C56   C60   1.408003 A    
C20   C33   1.420210 A    
C6    O10   1.349758 S    
C48   C49   1.408535 A    
C44   H18   1.083014 S    
C47   I3    2.124608 S    
C43   H17   1.083016 S    
C61   H25   1.082524 S    
N3    C54   1.356081 A    
C48   I4    2.124608 S    
C56   N8    1.364521 A    
C24   C40   1.393748 A    
