data_mof_unit_13596.cif
_audit_creation_date              2012-12-10T17:15:40-0500
_audit_creation_method            fapswitch 2.2
_symmetry_space_group_name_H-M    P1
_symmetry_Int_Tables_number       1
_space_group_crystal_system       triclinic
_cell_length_a                    17.320152
_cell_length_b                    13.069053
_cell_length_c                    11.791015
_cell_angle_alpha                 98.19583
_cell_angle_beta                  91.872543
_cell_angle_gamma                 92.497806
_cell_volume                      2637.17922965

loop_
_atom_site_label
_atom_site_type_symbol
_atom_type_description
_atom_site_fract_x
_atom_site_fract_y
_atom_site_fract_z
_atom_type_partial_charge
C1    C     C_R   0.504001 0.299683 0.480271 0.791323
C2    C     C_R   0.501015 0.699465 0.519207 0.811379
C3    C     C_R   0.496065 0.810489 0.525507 -0.103484
C4    C     C_R   0.515793 0.187005 0.471747 -0.139593
C5    C     C_R   0.564900 0.027388 0.374291 -0.188928
C6    C     C_R   0.433497 0.965920 0.596265 -0.204769
C7    C     C_R   0.555015 0.134092 0.377940 0.099954
C8    C     C_R   0.435207 0.858691 0.586187 0.086595
C9    C     C_R   0.489832 0.130989 0.559353 0.077444
C10   C     C_R   0.546457 0.866277 0.460619 0.087103
C11   C     C_R   0.485198 0.022940 0.537781 0.057532
C12   C     C_R   0.532850 0.971607 0.456316 0.054755
C13   C     C_R   0.436868 0.388094 0.026136 0.110155
C14   C     C_R   0.580058 0.593463 0.974274 0.085395
C15   C     C_R   0.430219 0.413949 0.147160 0.301416
C16   C     C_R   0.568168 0.590375 0.852369 0.315556
C17   C     C_R   0.536649 0.534890 0.154983 -0.026007
C18   C     C_R   0.470960 0.455347 0.845905 -0.028647
C19   C     C_R   0.532222 0.529672 0.032602 -0.018985
C20   C     C_R   0.479652 0.457256 0.967467 -0.077032
C21   C     C_R   0.350849 0.501073 0.513799 0.787989
C22   C     C_R   0.649180 0.501556 0.486745 0.783163
C23   C     C_R   0.266686 0.502742 0.521108 -0.080767
C24   C     C_R   0.733390 0.513570 0.483126 -0.071020
C25   C     C_R   0.220814 0.520594 0.427042 -0.208113
C26   C     C_R   0.777647 0.540946 0.585287 -0.210063
C27   C     C_R   0.141181 0.520660 0.433826 -0.132994
C28   C     C_R   0.856935 0.558237 0.582300 -0.145367
C29   C     C_R   0.105653 0.506310 0.536265 0.092524
C30   C     C_R   0.893475 0.547973 0.477332 0.089407
C31   C     C_R   0.151495 0.490208 0.633088 0.017266
C32   C     C_R   0.849890 0.520276 0.373298 0.026045
C33   C     C_R   0.231881 0.487950 0.623792 -0.170973
C34   C     C_R   0.769619 0.503373 0.377623 -0.182414
C35   C     C_2   0.020759 0.502788 0.538785 -0.231875
C36   C     C_2   0.977781 0.560783 0.479142 -0.247938
Cu1   Cu    Cu3+1 0.505800 0.507690 0.615350 0.919490
Cu2   Cu    Cu3+1 0.494200 0.492310 0.384650 0.910335
H1    H     H_    0.246078 0.535305 0.348147 0.149562
H2    H     H_    0.751069 0.550082 0.667742 0.150248
H3    H     H_    0.735296 0.481691 0.298799 0.182652
H4    H     H_    0.267579 0.475178 0.697186 0.187626
H5    H     H_    0.004013 0.614569 0.427827 0.146174
H6    H     H_    0.992274 0.449229 0.588385 0.152606
H7    H     H_    0.890169 0.579480 0.662332 0.142237
H8    H     H_    0.107416 0.530374 0.357552 0.133903
H9    H     H_    0.592761 0.986768 0.302506 0.149373
H10   H     H_    0.389053 0.005499 0.644579 0.152865
H11   H     H_    0.427034 0.405385 0.796525 0.131888
H12   H     H_    0.578708 0.584653 0.207903 0.151578
N1    N     N_R   0.514530 0.519260 0.788680 -0.202703
N2    N     N_R   0.485470 0.480740 0.211320 -0.226395
O1    O     O_R   0.504120 0.354440 0.581590 -0.568822
O2    O     O_R   0.495880 0.645560 0.418410 -0.583441
O3    O     O_R   0.494320 0.341440 0.386760 -0.607948
O4    O     O_R   0.505680 0.658560 0.613240 -0.599500
O5    O     O_R   0.391870 0.507230 0.608700 -0.587416
O6    O     O_R   0.608130 0.492770 0.391300 -0.592296
O7    O     O_R   0.382070 0.494240 0.413880 -0.609406
O8    O     O_R   0.617930 0.505760 0.586120 -0.610510
C37   C     C_3   0.615384 0.669925 0.797209 -0.358157
C38   C     C_3   0.583995 0.778703 0.822389 -0.843572
H13   H     H_    0.521780 0.777236 0.797504 0.267234
H14   H     H_    0.589792 0.811182 0.914363 0.231904
H15   H     H_    0.615848 0.832013 0.772901 0.243348
H16   H     H_    0.677424 0.670692 0.823658 0.158026
H17   H     H_    0.619147 0.651523 0.705618 0.249336
C39   C     C_3   0.356742 0.383932 0.204374 -0.344046
C40   C     C_3   0.286810 0.329636 0.134718 -0.910380
H18   H     H_    0.272299 0.369291 0.060055 0.275276
H19   H     H_    0.295160 0.246035 0.109568 0.268077
H20   H     H_    0.235808 0.334159 0.189729 0.252896
H21   H     H_    0.370572 0.338795 0.274436 0.235951
H22   H     H_    0.333370 0.459293 0.235680 0.223672
C41   C     C_3   0.411313 0.280844 0.964062 -0.407322
C42   C     C_3   0.443298 0.193850 0.023224 -0.836829
H23   H     H_    0.424273 0.117786 0.973477 0.238742
H24   H     H_    0.507532 0.200157 0.026749 0.253399
H25   H     H_    0.422779 0.196346 0.111561 0.257065
H26   H     H_    0.348334 0.270581 0.946618 0.214614
H27   H     H_    0.434455 0.268865 0.878644 0.193089
C43   C     C_3   0.645585 0.660960 0.042830 -0.482872
C44   C     C_3   0.712673 0.595502 0.070872 -0.744590
H28   H     H_    0.692904 0.530274 0.115054 0.257678
H29   H     H_    0.740287 0.563474 0.990595 0.256806
H30   H     H_    0.756523 0.644439 0.127416 0.250437
H31   H     H_    0.670863 0.723375 0.000293 0.220802
H32   H     H_    0.623781 0.704862 0.121818 0.184909
C45   C     C_2   0.117124 0.478855 0.744912 0.330159
H33   H     H_    0.056827 0.493283 0.759151 0.073103
O9    O     O_2   0.156258 0.454103 0.823763 -0.554666
C46   C     C_2   0.887538 0.504761 0.260969 0.330205
H34   H     H_    0.949303 0.519451 0.255745 0.075368
O10   O     O_2   0.850001 0.474092 0.172257 -0.560762
C47   C     C_3   0.617492 0.815766 0.406597 -0.417117
C48   C     C_3   0.676374 0.792520 0.497811 -0.818546
H35   H     H_    0.693377 0.864268 0.557385 0.253362
H36   H     H_    0.652879 0.733505 0.547536 0.235284
H37   H     H_    0.728854 0.762062 0.455856 0.244301
H38   H     H_    0.600344 0.744115 0.347651 0.211875
H39   H     H_    0.649794 0.864779 0.353851 0.195065
C49   C     C_3   0.483594 0.181810 0.682874 -0.390707
C50   C     C_3   0.564276 0.215942 0.736752 -0.744020
H40   H     H_    0.598002 0.264111 0.683962 0.263148
H41   H     H_    0.559711 0.260920 0.823160 0.232349
H42   H     H_    0.597452 0.146514 0.745924 0.234963
H43   H     H_    0.442775 0.244709 0.687717 0.198120
H44   H     H_    0.459155 0.128707 0.739058 0.188498
C51   C     C_3   0.372699 0.794232 0.636947 -0.355275
C52   C     C_3   0.302307 0.851632 0.682099 -0.856188
H45   H     H_    0.319144 0.909287 0.758457 0.245654
H46   H     H_    0.274925 0.890257 0.614100 0.255970
H47   H     H_    0.259003 0.795284 0.708472 0.253477
H48   H     H_    0.350599 0.730839 0.569166 0.196355
H49   H     H_    0.398386 0.758455 0.708236 0.219713
C53   C     C_3   0.590871 0.193370 0.288063 -0.344081
C54   C     C_3   0.645345 0.134518 0.205316 -0.882081
H50   H     H_    0.693001 0.103299 0.253410 0.260271
H51   H     H_    0.613034 0.070986 0.148014 0.246167
H52   H     H_    0.671255 0.188302 0.150525 0.256997
H53   H     H_    0.543855 0.220344 0.235340 0.225576
H54   H     H_    0.624937 0.262163 0.333192 0.213835

loop_
_geom_bond_atom_site_label_1
_geom_bond_atom_site_label_2
_ccdc_geom_bond_type
C4    C9    A    
C27   C29   A    
C47   C48   S    
C35   C36   D    
C16   N1    A    
C5    H9    S    
Cu1   Cu2   S    
C6    H10   S    
C33   H4    S    
C24   C26   A    
C21   O7    A    
C54   H51   S    
C22   O8    A    
Cu1   N1    S    
Cu2   N2    S    
C39   H22   S    
C43   H31   S    
C48   H37   S    
C53   C54   S    
C40   H19   S    
C1    O1    A    
C52   H45   S    
C38   H14   S    
Cu2   O6    S    
Cu1   O4    S    
C37   H16   S    
Cu2   O3    S    
C19   C20   A    
C9    C49   S    
C31   C45   S    
C48   H36   S    
C42   H25   S    
C49   H44   S    
C45   O9    D    
C41   H26   S    
C18   C20   A    
C38   H15   S    
Cu1   O1    S    
C37   C38   S    
C34   H3    S    
C4    C7    A    
C17   N2    A    
C18   N1    A    
C28   H7    S    
C53   H53   S    
C49   C50   S    
C13   C41   S    
C42   H23   S    
C5    C12   A    
C3    C8    A    
C2    O2    A    
C54   H52   S    
C6    C11   A    
C5    C7    A    
C47   H38   S    
C41   H27   S    
C6    C8    A    
C23   C33   A    
C39   H21   S    
C24   C34   A    
C32   C34   A    
C7    C53   S    
C40   H20   S    
C41   C42   S    
C21   O5    A    
C38   H13   S    
C37   H17   S    
C44   H28   S    
Cu2   O2    S    
C48   H35   S    
C46   O10   D    
C49   H43   S    
C50   H41   S    
C15   N2    A    
C35   H6    S    
C9    C11   A    
C52   H47   S    
C10   C12   A    
C51   H48   S    
C27   H8    S    
C44   H29   S    
C21   C23   S    
C14   C16   A    
C16   C37   S    
C14   C43   S    
C53   H54   S    
C31   C33   A    
C13   C20   A    
C14   C19   A    
C39   C40   S    
C42   H24   S    
C17   H12   S    
C22   O6    A    
C11   C12   A    
C25   C27   A    
C29   C35   S    
C26   C28   A    
C30   C36   S    
C1    C4    S    
C13   C15   A    
C2    C3    S    
C1    O3    A    
C29   C31   A    
C3    C10   A    
C2    O4    A    
C54   H50   S    
C25   H1    S    
C30   C32   A    
C26   H2    S    
C32   C46   S    
C10   C47   S    
C43   H32   S    
C15   C39   S    
C28   C30   A    
C46   H34   S    
C17   C19   A    
C50   H42   S    
C22   C24   S    
C23   C25   A    
C40   H18   S    
C52   H46   S    
Cu1   O8    S    
C51   H49   S    
Cu2   O7    S    
C44   H30   S    
C43   C44   S    
C51   C52   S    
C50   H40   S    
C36   H5    S    
C45   H33   S    
C8    C51   S    
Cu1   O5    S    
C47   H39   S    
C18   H11   S    
