data_mof_unit_60273.cif
_audit_creation_date              2012-12-10T16:43:56-0500
_audit_creation_method            fapswitch 2.2
_symmetry_space_group_name_H-M    P1
_symmetry_Int_Tables_number       1
_space_group_crystal_system       triclinic
_cell_length_a                    23.681299
_cell_length_b                    31.505409
_cell_length_c                    19.196094
_cell_angle_alpha                 89.999945
_cell_angle_beta                  126.861102
_cell_angle_gamma                 90.000052
_cell_volume                      11458.9148568

loop_
_atom_site_label
_atom_site_type_symbol
_atom_type_description
_atom_site_fract_x
_atom_site_fract_y
_atom_site_fract_z
_atom_type_partial_charge
C1    C     C_R   0.806167 0.191823 0.118127 0.860977
C2    C     C_R   0.193860 0.808052 0.881790 0.858322
C3    C     C_R   0.193831 0.191823 0.881872 0.860959
C4    C     C_R   0.806140 0.808052 0.118210 0.858330
C5    C     C_R   0.306167 0.691823 0.118127 0.860981
C6    C     C_R   0.693860 0.308052 0.881790 0.858331
C7    C     C_R   0.693832 0.691823 0.881872 0.860980
C8    C     C_R   0.306140 0.308052 0.118210 0.858333
C9    C     C_R   0.642041 0.250260 0.000286 0.816810
C10   C     C_R   0.357945 0.749755 0.999686 0.818029
C11   C     C_R   0.357959 0.250260 0.999714 0.816818
C12   C     C_R   0.642055 0.749755 0.000314 0.818027
C13   C     C_R   0.142041 0.750260 0.000286 0.816812
C14   C     C_R   0.857945 0.249755 0.999686 0.818027
C15   C     C_R   0.857959 0.750260 0.999714 0.816809
C16   C     C_R   0.142055 0.249755 0.000314 0.818027
C17   C     C_1   0.581299 0.250823 0.000563 -0.172485
C18   C     C_1   0.418682 0.749208 0.999396 -0.171961
C19   C     C_1   0.418701 0.250823 0.999436 -0.172486
C20   C     C_1   0.581318 0.749208 0.000604 -0.171961
C21   C     C_1   0.081299 0.750823 0.000563 -0.172489
C22   C     C_1   0.918682 0.249208 0.999396 -0.171960
C23   C     C_1   0.918701 0.750823 0.999436 -0.172490
C24   C     C_1   0.081318 0.249208 0.000604 -0.171962
C25   C     C_1   0.530082 0.251051 0.000276 0.002221
C26   C     C_1   0.469908 0.748992 0.999704 0.002759
C27   C     C_1   0.469918 0.251051 0.999724 0.002222
C28   C     C_1   0.530092 0.748992 0.000296 0.002759
C29   C     C_1   0.030082 0.751051 0.000276 0.002216
C30   C     C_1   0.969908 0.248992 0.999704 0.002759
C31   C     C_1   0.969918 0.751051 0.999724 0.002216
C32   C     C_1   0.030092 0.248992 0.000296 0.002759
C33   C     C_2   0.844076 0.088682 0.243281 0.362703
C34   C     C_2   0.162161 0.905748 0.746750 0.373188
C35   C     C_2   0.155918 0.088675 0.756735 0.362750
C36   C     C_2   0.837840 0.905749 0.253247 0.373178
C37   C     C_2   0.344079 0.588681 0.243279 0.362705
C38   C     C_2   0.662160 0.405749 0.746753 0.373184
C39   C     C_2   0.655921 0.588682 0.756720 0.362694
C40   C     C_2   0.337840 0.405749 0.253247 0.373180
C41   C     C_2   0.911703 0.091730 0.315283 0.217429
C42   C     C_2   0.091243 0.911004 0.691210 0.207176
C43   C     C_2   0.088297 0.091730 0.684717 0.217458
C44   C     C_2   0.908758 0.911005 0.308790 0.207149
C45   C     C_2   0.411704 0.591731 0.315286 0.217420
C46   C     C_2   0.591243 0.411005 0.691211 0.207151
C47   C     C_2   0.588295 0.591731 0.684713 0.217415
C48   C     C_2   0.408757 0.411005 0.308788 0.207146
C49   C     C_2   0.817794 0.119336 0.170975 -0.235471
C50   C     C_2   0.191954 0.877655 0.823420 -0.223931
C51   C     C_2   0.182185 0.119332 0.829034 -0.235568
C52   C     C_2   0.808048 0.877655 0.176579 -0.223870
C53   C     C_2   0.317797 0.619336 0.170974 -0.235455
C54   C     C_2   0.691953 0.377655 0.823421 -0.223871
C55   C     C_2   0.682203 0.619336 0.829025 -0.235449
C56   C     C_2   0.308046 0.377654 0.176579 -0.223860
C57   C     C_2   0.831235 0.160843 0.186994 -0.305055
C58   C     C_2   0.166721 0.838341 0.811601 -0.311680
C59   C     C_2   0.168768 0.160841 0.813009 -0.304940
C60   C     C_2   0.833279 0.838341 0.188399 -0.311742
C61   C     C_2   0.331235 0.660843 0.186994 -0.305065
C62   C     C_2   0.666721 0.338342 0.811601 -0.311735
C63   C     C_2   0.668764 0.660843 0.813006 -0.305080
C64   C     C_2   0.333279 0.338342 0.188399 -0.311742
C65   C     C_R   0.441088 0.441762 0.380805 0.767822
C66   C     C_R   0.558326 0.558580 0.618013 0.776527
C67   C     C_R   0.558912 0.441762 0.619194 0.767819
C68   C     C_R   0.441674 0.558580 0.381987 0.776520
C69   C     C_R   0.941088 0.941761 0.380806 0.767810
C70   C     C_R   0.058327 0.058579 0.618014 0.776499
C71   C     C_R   0.058912 0.941761 0.619193 0.767796
C72   C     C_R   0.941673 0.058580 0.381986 0.776496
Cu1   Cu    Cu3+1 0.780520 0.280530 0.061040 0.957754
Cu2   Cu    Cu3+1 0.219480 0.719470 0.938960 0.952034
Cu3   Cu    Cu3+1 0.219480 0.280530 0.938960 0.957761
Cu4   Cu    Cu3+1 0.780520 0.719470 0.061040 0.952034
Cu5   Cu    Cu3+1 0.280520 0.780530 0.061040 0.957742
Cu6   Cu    Cu3+1 0.719480 0.219470 0.938960 0.952037
Cu7   Cu    Cu3+1 0.719480 0.780530 0.938960 0.957753
Cu8   Cu    Cu3+1 0.280520 0.219470 0.061040 0.952010
Cu9   Cu    Cu3+1 0.944230 0.000000 0.500020 0.995320
Cu10  Cu    Cu3+1 0.055770 0.000000 0.499980 0.995421
Cu11  Cu    Cu3+1 0.444230 0.500000 0.500020 0.995320
Cu12  Cu    Cu3+1 0.555770 0.500000 0.499980 0.995320
O1    O     O_R   0.820280 0.231270 0.140580 -0.593149
O2    O     O_R   0.179720 0.768730 0.859420 -0.597448
O3    O     O_R   0.179720 0.231270 0.859420 -0.593142
O4    O     O_R   0.820280 0.768730 0.140580 -0.597446
O5    O     O_R   0.320280 0.731270 0.140580 -0.593146
O6    O     O_R   0.679720 0.268730 0.859420 -0.597447
O7    O     O_R   0.679720 0.731270 0.859420 -0.593146
O8    O     O_R   0.320280 0.268730 0.140580 -0.597447
O9    O     O_R   0.768770 0.179750 0.037530 -0.582647
O10   O     O_R   0.231230 0.820250 0.962470 -0.574590
O11   O     O_R   0.231230 0.179750 0.962470 -0.582667
O12   O     O_R   0.768770 0.820250 0.037530 -0.574586
O13   O     O_R   0.268770 0.679750 0.037530 -0.582649
O14   O     O_R   0.731230 0.320250 0.962470 -0.574585
O15   O     O_R   0.731230 0.679750 0.962470 -0.582648
O16   O     O_R   0.268770 0.320250 0.037530 -0.574584
O17   O     O_R   0.694370 0.275780 0.051550 -0.575919
O18   O     O_R   0.305630 0.724220 0.948450 -0.576221
O19   O     O_R   0.305630 0.275780 0.948450 -0.575915
O20   O     O_R   0.694370 0.724220 0.051550 -0.576222
O21   O     O_R   0.194370 0.775780 0.051550 -0.575920
O22   O     O_R   0.805630 0.224220 0.948450 -0.576223
O23   O     O_R   0.805630 0.775780 0.948450 -0.575919
O24   O     O_R   0.194370 0.224220 0.051550 -0.576227
O25   O     O_R   0.642860 0.224260 0.948500 -0.584582
O26   O     O_R   0.357140 0.775740 0.051500 -0.583990
O27   O     O_R   0.357140 0.224260 0.051500 -0.584586
O28   O     O_R   0.642860 0.775740 0.948500 -0.583988
O29   O     O_R   0.142860 0.724260 0.948500 -0.584584
O30   O     O_R   0.857140 0.275740 0.051500 -0.583987
O31   O     O_R   0.857140 0.724260 0.051500 -0.584584
O32   O     O_R   0.142860 0.275740 0.948500 -0.583984
O33   O     O_R   0.502640 0.455510 0.411000 -0.587698
O34   O     O_R   0.497360 0.544490 0.589000 -0.577155
O35   O     O_R   0.497360 0.455510 0.589000 -0.587698
O36   O     O_R   0.502640 0.544490 0.411000 -0.577163
O37   O     O_R   0.002640 0.955510 0.411000 -0.587691
O38   O     O_R   0.997360 0.044490 0.589000 -0.577182
O39   O     O_R   0.997360 0.955510 0.589000 -0.587716
O40   O     O_R   0.002640 0.044490 0.411000 -0.577168
O41   O     O_R   0.408410 0.455510 0.411000 -0.550270
O42   O     O_R   0.591590 0.544490 0.589000 -0.571979
O43   O     O_R   0.591590 0.455510 0.589000 -0.550265
O44   O     O_R   0.408410 0.544490 0.411000 -0.571973
O45   O     O_R   0.908410 0.955510 0.411000 -0.550269
O46   O     O_R   0.091590 0.044490 0.589000 -0.571913
O47   O     O_R   0.091590 0.955510 0.589000 -0.550217
O48   O     O_R   0.908410 0.044490 0.411000 -0.571958
O49   O     O_3   0.803950 0.053726 0.234290 -0.575341
C73   C     C_3   0.731135 0.063354 0.182092 0.079123
H1    H     H_    0.709238 0.064280 0.112170 0.143232
H2    H     H_    0.720970 0.094151 0.201404 0.133805
C74   C     C_3   0.692657 0.028774 0.193516 -0.746383
H3    H     H_    0.713660 0.026789 0.262973 0.251701
H4    H     H_    0.635381 0.036102 0.153395 0.180758
H5    H     H_    0.700029 0.997773 0.172431 0.273243
O50   O     O_3   0.206088 0.928277 0.734309 -0.569929
C75   C     C_3   0.261461 0.902100 0.750759 0.060232
H6    H     H_    0.243069 0.869142 0.725828 0.131665
H7    H     H_    0.304768 0.901003 0.821882 0.147057
C76   C     C_3   0.290451 0.920187 0.704546 -0.777156
H8    H     H_    0.314032 0.951885 0.731116 0.242222
H9    H     H_    0.331950 0.898804 0.714344 0.196677
H10   H     H_    0.247463 0.923031 0.633663 0.250564
O51   O     O_3   0.196041 0.053715 0.765721 -0.575368
C77   C     C_3   0.268885 0.063284 0.818175 0.079143
H11   H     H_    0.290629 0.064123 0.888050 0.143230
H12   H     H_    0.279201 0.094105 0.799103 0.133870
C78   C     C_3   0.307398 0.028719 0.806771 -0.746446
H13   H     H_    0.286554 0.026823 0.737361 0.251607
H14   H     H_    0.364701 0.035999 0.847106 0.180782
H15   H     H_    0.299870 0.997691 0.827614 0.273342
O52   O     O_3   0.793908 0.928275 0.265682 -0.569879
C79   C     C_3   0.738584 0.902077 0.249318 0.060365
H16   H     H_    0.757040 0.869139 0.274349 0.131603
H17   H     H_    0.695273 0.900926 0.178200 0.147065
C80   C     C_3   0.709566 0.920187 0.295484 -0.777260
H18   H     H_    0.685882 0.951849 0.268777 0.242171
H19   H     H_    0.668141 0.898775 0.285803 0.196685
H20   H     H_    0.752560 0.923110 0.366348 0.250613
O53   O     O_3   0.303958 0.553721 0.234279 -0.575336
C81   C     C_3   0.231137 0.563349 0.182089 0.079132
H21   H     H_    0.209230 0.564278 0.112158 0.143209
H22   H     H_    0.220972 0.594146 0.201411 0.133776
C82   C     C_3   0.192668 0.528765 0.193520 -0.746268
H23   H     H_    0.213684 0.526777 0.262988 0.251696
H24   H     H_    0.135387 0.536094 0.153408 0.180742
H25   H     H_    0.200037 0.497764 0.172421 0.273235
O54   O     O_3   0.706092 0.428275 0.734317 -0.569881
C83   C     C_3   0.761418 0.402079 0.750684 0.060361
H26   H     H_    0.742965 0.369140 0.725658 0.131607
H27   H     H_    0.804728 0.400929 0.821802 0.147070
C84   C     C_3   0.790434 0.420187 0.704516 -0.777281
H28   H     H_    0.814115 0.451850 0.731218 0.242174
H29   H     H_    0.831861 0.398776 0.714200 0.196693
H30   H     H_    0.747441 0.423107 0.633653 0.250613
O55   O     O_3   0.696043 0.553722 0.765720 -0.575336
C85   C     C_3   0.768861 0.563354 0.817897 0.079124
H31   H     H_    0.790774 0.564291 0.887828 0.143212
H32   H     H_    0.779017 0.594148 0.798558 0.133782
C86   C     C_3   0.807331 0.528767 0.806475 -0.746290
H33   H     H_    0.786312 0.526771 0.737009 0.251702
H34   H     H_    0.864610 0.536098 0.846578 0.180745
H35   H     H_    0.799970 0.497770 0.827590 0.273225
O56   O     O_3   0.293907 0.428275 0.265682 -0.569885
C87   C     C_3   0.238594 0.402074 0.249339 0.060357
H36   H     H_    0.257062 0.369140 0.274389 0.131601
H37   H     H_    0.195281 0.400912 0.178222 0.147069
C88   C     C_3   0.209574 0.420189 0.295497 -0.777269
H38   H     H_    0.185875 0.451846 0.268769 0.242165
H39   H     H_    0.168160 0.398774 0.285837 0.196692
H40   H     H_    0.252569 0.423124 0.366358 0.250620
O57   O     O_3   0.957054 0.120905 0.317708 -0.572226
C89   C     C_3   0.995048 0.143344 0.397470 0.026465
H41   H     H_    0.037115 0.123073 0.451498 0.154052
H42   H     H_    0.959519 0.154906 0.413452 0.101371
C90   C     C_3   0.030127 0.181776 0.390318 -0.750470
H43   H     H_    0.989508 0.203053 0.337426 0.246770
H44   H     H_    0.060256 0.199599 0.452702 0.189352
H45   H     H_    0.066946 0.171431 0.375871 0.255310
O58   O     O_3   0.048989 0.892288 0.710863 -0.567282
C91   C     C_3   0.996368 0.866653 0.640675 0.048631
H46   H     H_    0.017032 0.848324 0.610596 0.092373
H47   H     H_    0.951062 0.886342 0.589794 0.174486
C92   C     C_3   0.968868 0.835149 0.673928 -0.758028
H48   H     H_    0.946285 0.852394 0.702489 0.256522
H49   H     H_    0.927066 0.815098 0.619302 0.191827
H50   H     H_    0.012345 0.814332 0.724459 0.244495
O59   O     O_3   0.042947 0.120913 0.682275 -0.572241
C93   C     C_3   0.004967 0.143348 0.602510 0.026475
H51   H     H_    0.962895 0.123079 0.548483 0.154035
H52   H     H_    0.040504 0.154900 0.586534 0.101383
C94   C     C_3   0.969897 0.181790 0.609650 -0.750511
H53   H     H_    0.010521 0.203065 0.662537 0.246779
H54   H     H_    0.939776 0.199610 0.547262 0.189348
H55   H     H_    0.933072 0.171456 0.624095 0.255312
O60   O     O_3   0.951015 0.892288 0.289143 -0.567267
C95   C     C_3   0.003626 0.866647 0.359330 0.048627
H56   H     H_    0.982947 0.848314 0.389387 0.092367
H57   H     H_    0.048929 0.886333 0.410228 0.174463
C96   C     C_3   0.031137 0.835149 0.326082 -0.757953
H58   H     H_    0.053750 0.852400 0.297561 0.256495
H59   H     H_    0.072920 0.815087 0.380705 0.191817
H60   H     H_    0.987657 0.814342 0.275518 0.244504
O61   O     O_3   0.457055 0.620911 0.317721 -0.572224
C97   C     C_3   0.495042 0.643347 0.397485 0.026459
H61   H     H_    0.537106 0.623076 0.451514 0.154028
H62   H     H_    0.459507 0.654908 0.413458 0.101378
C98   C     C_3   0.530127 0.681780 0.390346 -0.750499
H63   H     H_    0.489512 0.703058 0.337455 0.246778
H64   H     H_    0.560252 0.699602 0.452732 0.189344
H65   H     H_    0.566951 0.671436 0.375906 0.255312
O62   O     O_3   0.548987 0.392289 0.710861 -0.567268
C99   C     C_3   0.496371 0.366651 0.640674 0.048628
H66   H     H_    0.517042 0.348320 0.610605 0.092367
H67   H     H_    0.451066 0.386339 0.589785 0.174476
C100  C     C_3   0.468866 0.335149 0.673925 -0.758000
H68   H     H_    0.446268 0.352397 0.702466 0.256512
H69   H     H_    0.427073 0.315094 0.619300 0.191823
H70   H     H_    0.512344 0.314338 0.724470 0.244503
O63   O     O_3   0.542944 0.620909 0.682279 -0.572218
C101  C     C_3   0.504963 0.643349 0.602519 0.026453
H71   H     H_    0.462907 0.623078 0.548481 0.154006
H72   H     H_    0.540505 0.654917 0.586561 0.101391
C102  C     C_3   0.469864 0.681776 0.609653 -0.750473
H73   H     H_    0.510469 0.703047 0.662572 0.246800
H74   H     H_    0.439762 0.699608 0.547278 0.189343
H75   H     H_    0.433016 0.671423 0.624050 0.255289
O64   O     O_3   0.451012 0.392289 0.289137 -0.567268
C103  C     C_3   0.503629 0.366652 0.359325 0.048631
H76   H     H_    0.482959 0.348321 0.389395 0.092364
H77   H     H_    0.548934 0.386340 0.410213 0.174477
C104  C     C_3   0.531134 0.335150 0.326073 -0.757988
H78   H     H_    0.553730 0.352398 0.297529 0.256510
H79   H     H_    0.572928 0.315094 0.380698 0.191821
H80   H     H_    0.487655 0.314338 0.275528 0.244498
H81   H     H_    0.785906 0.107529 0.104555 0.167508
H82   H     H_    0.236537 0.888468 0.887237 0.164370
H83   H     H_    0.214038 0.107526 0.895455 0.167427
H84   H     H_    0.763464 0.888468 0.112762 0.164405
H85   H     H_    0.285912 0.607528 0.104554 0.167515
H86   H     H_    0.736537 0.388467 0.887238 0.164404
H87   H     H_    0.714089 0.607528 0.895445 0.167519
H88   H     H_    0.263460 0.388467 0.112763 0.164407
H89   H     H_    0.858988 0.172897 0.252886 0.166686
H90   H     H_    0.127827 0.826656 0.745982 0.153436
H91   H     H_    0.141040 0.172894 0.747120 0.166669
H92   H     H_    0.872172 0.826656 0.254018 0.153431
H93   H     H_    0.358985 0.672897 0.252885 0.166692
H94   H     H_    0.627827 0.326657 0.745982 0.153431
H95   H     H_    0.641013 0.672898 0.747114 0.166688
H96   H     H_    0.372174 0.326657 0.254018 0.153431

loop_
_geom_bond_atom_site_label_1
_geom_bond_atom_site_label_2
_ccdc_geom_bond_type
Cu4   O20   S    
Cu8   O24   S    
Cu3   O19   S    
C5    O5    A    
C34   O50   S    
C21   C29   T    
O53   C81   S    
C2    O10   A    
C82   H24   S    
C82   H23   S    
C10   O26   A    
C18   C26   T    
Cu4   Cu7   S    
C12   O28   A    
Cu11  O44   S    
C89   C90   S    
Cu4   O31   S    
C73   C74   S    
C80   H18   S    
Cu7   O23   S    
C81   H22   S    
C86   H35   S    
O59   C93   S    
Cu6   O6    S    
C94   H55   S    
C5    C61   S    
C74   H4    S    
C99   C100  S    
C11   C19   S    
C102  H73   S    
C87   H36   S    
C7    O15   A    
Cu7   O28   S    
C42   O58   S    
C6    O14   A    
Cu11  O34   S    
C71   O39   A    
C104  H78   S    
C96   H59   S    
C1    C57   S    
C62   H94   S    
O64   C103  S    
C78   H15   S    
C93   H52   S    
C11   O19   A    
C86   H34   S    
Cu6   O9    S    
C15   O23   A    
Cu5   O10   S    
C70   O46   A    
C92   H50   S    
C49   C57   D    
Cu3   O32   S    
C97   C98   S    
C14   C22   S    
C100  H68   S    
C90   H43   S    
C46   O62   S    
Cu11  O35   S    
C83   H26   S    
Cu3   O16   S    
C103  H77   S    
C52   C60   D    
C79   C80   S    
C80   H19   S    
C4    O12   A    
C53   C61   D    
O52   C79   S    
C39   C55   S    
C40   O56   S    
Cu12  O33   S    
C84   H29   S    
C77   C78   S    
C55   C63   D    
C68   O36   A    
Cu1   Cu6   S    
C56   C64   D    
C72   O48   A    
C89   H41   S    
C8    O8    A    
C69   O37   A    
C48   C65   S    
Cu10  O46   S    
C19   C27   T    
C98   H63   S    
C68   O44   A    
Cu10  O37   S    
Cu7   O7    S    
C36   C52   S    
Cu2   O18   S    
C37   C53   S    
C88   H40   S    
Cu12  O43   S    
Cu1   O17   S    
C16   C24   S    
C9    O17   A    
O54   C83   S    
O62   C99   S    
C72   O40   A    
C79   H17   S    
C90   H44   S    
C75   C76   S    
C12   C20   S    
C101  C102  S    
C97   H61   S    
C45   O61   S    
Cu11  O41   S    
C16   O32   A    
Cu10  O40   S    
C76   H9    S    
O61   C97   S    
Cu9   Cu10  S    
Cu2   O13   S    
C99   H67   S    
C95   H56   S    
C47   C66   S    
Cu12  O42   S    
Cu1   O14   S    
C52   H84   S    
C74   H5    S    
C101  H72   S    
C34   C42   D    
C102  H74   S    
C3    O3    A    
C50   C58   D    
C10   O18   A    
C55   H87   S    
C13   O21   A    
C49   H81   S    
C91   H46   S    
Cu9   O48   S    
C37   O53   S    
C54   C62   D    
C95   C96   S    
C40   C56   S    
C94   H53   S    
O55   C85   S    
Cu2   O29   S    
C11   O27   A    
Cu2   Cu5   S    
C51   C59   D    
C64   H96   S    
Cu1   O30   S    
C66   O42   A    
Cu4   O15   S    
C9    O25   A    
C23   C31   T    
C79   H16   S    
Cu8   O8    S    
C9    C17   S    
C95   H57   S    
C67   O35   A    
C24   C32   T    
O60   C95   S    
C67   O43   A    
C70   O38   A    
Cu9   O45   S    
Cu11  Cu12  S    
C38   C54   S    
C57   H89   S    
Cu12  O36   S    
C84   H30   S    
C7    O7    A    
C4    C60   S    
C45   C68   S    
C88   H39   S    
C96   H58   S    
C59   H91   S    
C44   C69   S    
C83   H27   S    
C54   H86   S    
Cu2   O2    S    
Cu8   O11   S    
C97   H62   S    
C98   H64   S    
C83   C84   S    
C7    C63   S    
C39   O55   S    
C36   O52   S    
C8    C64   S    
C41   C72   S    
C4    O4    A    
C15   O31   A    
O58   C91   S    
C63   H95   S    
C61   H93   S    
C5    O13   A    
C88   H38   S    
C43   C70   S    
C35   C51   S    
C81   H21   S    
C90   H45   S    
C77   H12   S    
C87   C88   S    
C1    O1    A    
C78   H14   S    
C37   C45   D    
C96   H60   S    
C43   O59   S    
C76   H8    S    
C47   O63   S    
C80   H20   S    
C35   C43   D    
C76   H10   S    
Cu9   O39   S    
C39   C47   D    
Cu1   O1    S    
Cu3   O3    S    
O56   C87   S    
C40   C48   D    
Cu4   O4    S    
C99   H66   S    
C92   H49   S    
C102  H75   S    
C87   H37   S    
C22   C30   T    
C93   H51   S    
O63   C101  S    
C38   O54   S    
C93   C94   S    
C34   C50   S    
C73   H2    S    
C2    C58   S    
C12   O20   A    
C73   H1    S    
Cu5   O5    S    
C94   H54   S    
C20   C28   T    
C74   H3    S    
C58   H90   S    
C26   C28   S    
C92   H48   S    
C103  C104  S    
Cu6   O22   S    
Cu9   O38   S    
C41   O57   S    
C100  H70   S    
C17   C25   T    
C104  H80   S    
C103  H76   S    
Cu5   O21   S    
C48   O64   S    
C33   C41   D    
C46   C67   S    
C29   C31   S    
C14   O30   A    
O50   C75   S    
C13   C21   S    
C38   C46   D    
C30   C32   S    
C101  H71   S    
C50   H82   S    
C91   C92   S    
C6    C62   S    
C86   H33   S    
O49   C73   S    
C51   H83   S    
C10   C18   S    
C69   O45   A    
C53   H85   S    
Cu8   O27   S    
C15   C23   S    
C42   C71   S    
C82   H25   S    
C3    O11   A    
C2    O2    A    
Cu6   O25   S    
C75   H7    S    
C8    O16   A    
O57   C89   S    
C56   H88   S    
C98   H65   S    
C85   H32   S    
C60   H92   S    
C36   C44   D    
C16   O24   A    
C71   O47   A    
C33   O49   S    
Cu7   O12   S    
Cu3   Cu8   S    
C6    O6    A    
C81   C82   S    
C1    O9    A    
C84   H28   S    
C66   O34   A    
C14   O22   A    
C104  H79   S    
C65   O33   A    
C75   H6    S    
C89   H42   S    
C44   O60   S    
C35   O51   S    
C100  H69   S    
Cu10  O47   S    
O51   C77   S    
C91   H47   S    
C33   C49   S    
Cu5   O26   S    
C85   C86   S    
C13   O29   A    
C85   H31   S    
C65   O41   A    
C77   H11   S    
C78   H13   S    
C25   C27   S    
C3    C59   S    
