data_mof_unit_13905.cif
_audit_creation_date              2012-12-10T17:48:50-0500
_audit_creation_method            fapswitch 2.2
_symmetry_space_group_name_H-M    P1
_symmetry_Int_Tables_number       1
_space_group_crystal_system       triclinic
_cell_length_a                    10.834375
_cell_length_b                    14.606719
_cell_length_c                    15.235935
_cell_angle_alpha                 63.928691
_cell_angle_beta                  107.306615
_cell_angle_gamma                 99.49128
_cell_volume                      2066.12228078

loop_
_atom_site_label
_atom_site_type_symbol
_atom_type_description
_atom_site_fract_x
_atom_site_fract_y
_atom_site_fract_z
_atom_type_partial_charge
C1    C     C_R   0.483552 0.119520 0.313611 0.929174
C2    C     C_3   0.871798 0.994695 0.494295 -0.089651
C3    C     C_3   0.964873 0.033662 0.573182 -0.461576
C4    C     C_3   0.882779 0.062045 0.382751 0.143183
C5    C     C_R   0.466456 0.189173 0.206586 -0.092379
C6    C     C_R   0.566199 0.809168 0.798877 -0.256793
C7    C     C_R   0.333663 0.239927 0.034953 0.381811
C8    C     C_R   0.376876 0.164638 0.132130 -0.211538
C9    C     C_R   0.525656 0.286427 0.181244 -0.120713
C10   C     C_R   0.479934 0.366454 0.086604 0.082984
C11   C     C_R   0.379824 0.342578 0.013118 0.012274
C12   C     C_R   0.258348 0.004885 0.495014 0.894139
C13   C     C_R   0.527968 0.469726 0.063717 0.059687
C14   C     C_R   0.479397 0.545301 0.965946 0.115868
C15   C     C_R   0.373270 0.521397 0.898785 -0.163087
C16   C     C_R   0.325606 0.422059 0.921186 -0.137185
C17   C     C_R   0.624389 0.500624 0.133084 -0.214092
C18   C     C_R   0.668790 0.602720 0.107289 0.498957
C19   C     C_R   0.625256 0.675483 0.007110 -0.059763
C20   C     C_R   0.539739 0.643792 0.934964 -0.085343
C21   C     C_R   0.674950 0.776595 0.974641 -0.238699
C22   C     C_R   0.643443 0.844258 0.872044 0.459600
C23   C     C_R   0.531685 0.878870 0.688386 0.816816
C24   C     C_R   0.536859 0.703379 0.832525 0.331203
C25   C     C_R   0.718726 0.259700 0.686727 -0.211816
C26   C     C_R   0.674086 0.184700 0.650558 0.007231
C27   C     C_R   0.548932 0.304453 0.496901 0.544434
C28   C     C_R   0.604438 0.386108 0.526608 -0.168791
C29   C     C_R   0.678996 0.359903 0.627138 0.002234
C30   C     C_R   0.574431 0.491121 0.465334 0.122534
C31   C     C_R   0.576944 0.557041 0.511190 0.029335
C32   C     C_R   0.649704 0.528135 0.611969 -0.287984
C33   C     C_R   0.709064 0.433625 0.667363 0.485818
C34   C     C_R   0.738669 0.996494 0.501241 0.803816
C35   C     C_R   0.544137 0.534359 0.359576 -0.157301
C36   C     C_R   0.465184 0.617704 0.303616 -0.141895
C37   C     C_R   0.434898 0.669878 0.352111 0.078725
C38   C     C_R   0.503702 0.647499 0.453704 -0.073692
C39   C     C_R   0.344709 0.747867 0.299474 0.390027
C40   C     C_R   0.336300 0.810065 0.346541 -0.020622
C41   C     C_R   0.497563 0.717911 0.491575 0.102760
C42   C     C_3   0.050392 0.899579 0.503353 -0.493696
C43   C     C_3   0.914941 0.887264 0.523112 -0.383169
C44   C     C_3   0.106686 0.014251 0.589381 0.317692
C45   C     C_3   0.032161 0.094912 0.386690 0.522199
C46   C     C_3   0.116931 0.008660 0.491363 -0.138070
Cu1   Cu    Cu3+1 0.465900 0.918260 0.475680 1.045694
Cu2   Cu    Cu3+1 0.534100 0.081740 0.524320 1.066888
H1    H     H_    0.110582 0.837477 0.567649 0.180346
H2    H     H_    0.825868 0.129505 0.354962 0.155139
H3    H     H_    0.952616 0.115730 0.549488 0.267855
H4    H     H_    0.245335 0.409096 0.865205 0.207186
H5    H     H_    0.333716 0.088192 0.151914 0.211878
H6    H     H_    0.601869 0.298510 0.239692 0.172948
H7    H     H_    0.041980 0.885399 0.436381 0.290284
H8    H     H_    0.327577 0.580231 0.826949 0.167857
H9    H     H_    0.668550 0.447608 0.208347 0.170047
H10   H     H_    0.740939 0.804087 0.027409 0.186462
H11   H     H_    0.568403 0.719293 0.556718 0.201318
H12   H     H_    0.279717 0.877448 0.304866 0.174434
H13   H     H_    0.429186 0.641219 0.222799 0.184080
H14   H     H_    0.782589 0.238438 0.761891 0.227646
H15   H     H_    0.708407 0.109061 0.695616 0.197037
H16   H     H_    0.846212 0.847484 0.479618 0.252247
H17   H     H_    0.663438 0.577785 0.648979 0.226313
H18   H     H_    0.578776 0.502042 0.320611 0.185316
H19   H     H_    0.919920 0.838435 0.604322 0.179140
H20   H     H_    0.129597 0.937372 0.653141 0.080140
H21   H     H_    0.940281 0.992615 0.647389 0.129961
N1    N     N_R   0.585360 0.204570 0.560800 -0.235924
N2    N     N_R   0.414550 0.795430 0.439160 -0.217838
O1    O     O_R   0.455060 0.022100 0.338110 -0.557143
O2    O     O_R   0.512640 0.160150 0.379180 -0.535861
O3    O     O_R   0.288900 0.930980 0.479450 -0.583698
O4    O     O_R   0.346480 0.069030 0.520520 -0.476614
O5    O     O_R   0.487360 0.839850 0.620820 -0.531198
O6    O     O_R   0.544940 0.977900 0.661890 -0.567172
O7    O     O_R   0.653520 0.930970 0.479480 -0.548303
O8    O     O_R   0.711100 0.069020 0.520550 -0.610145
O9    O     O_3   0.192551 0.088226 0.614901 -0.504558
C47   C     C_3   0.218390 0.064664 0.718885 -0.160754
H22   H     H_    0.273773 0.993941 0.765413 0.123140
H23   H     H_    0.128065 0.057555 0.742267 0.150488
H24   H     H_    0.279303 0.127825 0.733629 0.233020
S1    S     S_3+6 0.579039 0.638928 0.771388 -0.035888
O10   O     O_2   0.461083 0.626094 0.694689 -0.350851
O11   O     O_2   0.684083 0.701045 0.721646 -0.362471
O12   O     O_3   0.636800 0.523464 0.854679 -0.485407
H25   H     H_    0.590631 0.475222 0.824978 0.391884
O13   O     O_3   0.699336 0.941658 0.843588 -0.568168
C48   C     C_3   0.828967 0.936417 0.844492 -0.283873
H26   H     H_    0.875559 0.013986 0.823165 0.192254
H27   H     H_    0.833273 0.907886 0.788724 0.147937
H28   H     H_    0.886977 0.888234 0.920995 0.172538
O14   O     O_3   0.775615 0.623878 0.173899 -0.576234
C49   C     C_3   0.742367 0.682926 0.215569 -0.337150
H29   H     H_    0.642422 0.711747 0.181173 0.153641
H30   H     H_    0.811070 0.749834 0.206333 0.191298
H31   H     H_    0.755768 0.637437 0.297904 0.196286
S2    S     S_3+6 0.216471 0.202866 0.945560 -0.000163
O15   O     O_2   0.089092 0.246517 0.924222 -0.252654
O16   O     O_2   0.257579 0.243125 0.848778 -0.313867
O17   O     O_3   0.197021 0.075070 0.989862 -0.520904
H32   H     H_    0.277156 0.051808 0.988686 0.349570
O18   O     O_3   0.779469 0.407405 0.766640 -0.552388
C50   C     C_3   0.898688 0.463454 0.767793 -0.180535
H33   H     H_    0.885006 0.546274 0.740343 0.158378
H34   H     H_    0.953409 0.450822 0.722878 0.149398
H35   H     H_    0.958487 0.436534 0.846948 0.224764
S3    S     S_3+6 0.412492 0.330804 0.390028 0.054712
O19   O     O_2   0.452448 0.373398 0.293016 -0.394241
O20   O     O_2   0.332926 0.237740 0.394978 -0.149910
O21   O     O_3   0.317391 0.413060 0.386928 -0.490323
H36   H     H_    0.263843 0.442497 0.316415 0.394612
O22   O     O_3   0.278260 0.767931 0.199813 -0.593472
C51   C     C_3   0.147361 0.787914 0.180532 -0.250126
H37   H     H_    0.137309 0.868834 0.163651 0.202079
H38   H     H_    0.103330 0.735539 0.243605 0.169354
H39   H     H_    0.091598 0.775702 0.112316 0.199979
S4    S     S_3+6 0.047757 0.228337 0.377609 0.053365
O23   O     O_2   0.150999 0.243503 0.460910 -0.160810
O24   O     O_2   0.076351 0.302120 0.278929 -0.229951
O25   O     O_3   0.911673 0.267641 0.380547 -0.610299
H40   H     H_    0.928246 0.341263 0.365164 0.386437
S5    S     S_3+6 0.080012 0.103854 0.276344 0.089409
O26   O     O_2   0.099901 0.001726 0.282597 -0.299065
O27   O     O_2   0.981905 0.158829 0.179688 -0.180204
O28   O     O_3   0.220011 0.170453 0.266557 -0.514165
H41   H     H_    0.201618 0.229606 0.199958 0.388301
S6    S     S_3+6 0.789130 0.011090 0.289013 0.022318
O29   O     O_2   0.665417 0.956328 0.312017 -0.295298
O30   O     O_2   0.751036 0.099081 0.187628 -0.227309
O31   O     O_3   0.869506 0.928296 0.279552 -0.511956
H42   H     H_    0.823877 0.925995 0.213682 0.376865

loop_
_geom_bond_atom_site_label_1
_geom_bond_atom_site_label_2
_ccdc_geom_bond_type
C40   H12   S    
C40   N2    A    
C12   O3    A    
C2    C4    S    
O14   C49   S    
C23   O5    A    
O28   H41   S    
C47   H22   S    
O25   H40   S    
S1    O10   D    
C7    C11   A    
C30   C35   A    
C1    C5    S    
Cu2   O8    S    
C28   C29   A    
C3    H21   S    
Cu1   O5    S    
C30   C31   A    
C34   O8    A    
C50   H33   S    
C15   C16   A    
C6    C22   A    
C49   H31   S    
C29   C33   A    
C51   H37   S    
C18   C19   A    
C42   C46   S    
C20   C24   A    
S3    O19   D    
O17   H32   S    
C19   C20   A    
C27   S3    S    
C45   S5    S    
C49   H30   S    
S5    O28   S    
C24   S1    S    
S4    O25   S    
C41   N2    A    
C2    C34   S    
C21   C22   A    
C18   O14   S    
Cu2   O4    S    
C47   H23   S    
S4    O24   D    
C43   H16   S    
C4    C45   S    
S1    O11   D    
C25   C29   A    
C3    C44   S    
C1    O1    A    
C7    S2    S    
C14   C20   A    
C44   O9    S    
C33   O18   S    
C41   H11   S    
C38   C41   A    
C12   C46   S    
C48   H26   S    
C3    H3    S    
C4    S6    S    
C44   C46   S    
C35   H18   S    
C25   C26   A    
C45   C46   S    
S2    O17   S    
C4    H2    S    
C35   C36   A    
Cu2   O6    S    
S6    O30   D    
C26   H15   S    
C5    C9    A    
C37   C38   A    
C42   H7    S    
C48   H27   S    
C11   C16   A    
Cu1   Cu2   S    
C2    C43   S    
C6    C24   A    
C49   H29   S    
S2    O16   D    
C17   C18   A    
C22   O13   S    
C23   O6    A    
S3    O21   S    
Cu1   N2    S    
C27   N1    A    
C45   S4    S    
C39   O22   S    
O31   H42   S    
C26   N1    A    
C44   H20   S    
S6    O31   S    
C42   C43   S    
C36   H13   S    
C39   C40   A    
C47   H24   S    
S4    O23   D    
O21   H36   S    
C9    C10   A    
S1    O12   S    
C36   C37   A    
C19   C21   A    
Cu2   O2    S    
C31   C32   A    
C16   H4    S    
Cu1   O3    S    
Cu2   N1    S    
O9    C47   S    
C10   C13   A    
C8    H5    S    
C5    C8    A    
C51   H39   S    
O18   C50   S    
C31   C38   A    
C13   C17   A    
C1    O2    A    
C32   C33   A    
C28   C30   A    
C2    C3    S    
C21   H10   S    
C37   C39   A    
C34   O7    A    
C48   H28   S    
O13   C48   S    
S5    O26   D    
C50   H34   S    
C6    C23   S    
S2    O15   D    
C51   H38   S    
S6    O29   D    
C25   H14   S    
C15   H8    S    
S3    O20   D    
Cu1   O1    S    
C7    C8    A    
C10   C11   A    
C42   H1    S    
O12   H25   S    
C43   H19   S    
C12   O4    A    
C27   C28   A    
S5    O27   D    
C14   C15   A    
C9    H6    S    
Cu1   O7    S    
C13   C14   A    
O22   C51   S    
C17   H9    S    
C32   H17   S    
C50   H35   S    
