data_mof_unit_25838.cif
_audit_creation_date              2013-03-05T15:58:18-0500
_audit_creation_method            fapswitch 2.2
_symmetry_space_group_name_H-M    P1
_symmetry_Int_Tables_number       1
_space_group_crystal_system       triclinic
_cell_length_a                    14.878479
_cell_length_b                    14.95802
_cell_length_c                    15.119589
_cell_angle_alpha                 110.379898
_cell_angle_beta                  108.724266
_cell_angle_gamma                 109.00743
_cell_volume                      2599.4475415

loop_
_atom_site_label
_atom_site_type_symbol
_atom_site_description
_atom_site_fract_x
_atom_site_fract_y
_atom_site_fract_z
_atom_type_partial_charge
C1    C     C_R   0.971780 0.246548 0.060024 -0.120126
C2    C     C_R   0.092963 0.805662 0.007761 -0.150534
H1    H     H_    0.935243 0.232600 0.108208 0.096850
H2    H     H_    0.152094 0.833504 0.983188 0.101320
N1    N     N_R   0.947560 0.293820 0.002910 -0.042201
N2    N     N_R   0.052440 0.706180 0.997090 -0.042375
C3    C     C_R   0.314989 0.756296 0.224499 -0.131845
C4    C     C_R   0.704261 0.194973 0.793751 -0.158904
H3    H     H_    0.380735 0.773621 0.205859 0.094368
H4    H     H_    0.657977 0.167167 0.830153 0.135789
N3    N     N_R   0.208960 0.706170 0.152110 -0.040887
N4    N     N_R   0.791040 0.293830 0.847890 -0.047557
C5    C     C_R   0.214533 0.409868 0.908996 -0.169922
C6    C     C_R   0.776319 0.592397 0.024750 -0.156987
H5    H     H_    0.187925 0.326376 0.851738 0.105852
H6    H     H_    0.795540 0.676970 0.059763 0.129623
N5    N     N_R   0.154330 0.443160 0.946140 -0.038189
N6    N     N_R   0.845670 0.556840 0.053860 -0.043221
C7    C     C_R   0.991390 0.590321 0.296257 -0.157320
C8    C     C_R   0.943766 0.410148 0.686083 -0.133674
H7    H     H_    0.010348 0.673551 0.344882 0.105705
H8    H     H_    0.899066 0.326375 0.620292 0.102183
N7    N     N_R   0.002190 0.556820 0.208880 -0.041904
N8    N     N_R   0.997810 0.443180 0.791120 -0.040019
C9    C     C_R   0.304247 0.592613 0.002049 -0.126746
C10   C     C_R   0.685795 0.408687 0.931728 -0.013984
H9    H     H_    0.358649 0.676975 0.030067 0.104776
H10   H     H_    0.622232 0.324004 0.879323 0.135224
N9    N     N_R   0.210550 0.556810 0.002910 -0.040250
N10   N     N_R   0.789450 0.443190 0.997090 -0.045664
C11   C     C_R   0.909551 0.408506 0.210074 -0.127146
C12   C     C_R   0.024702 0.593236 0.782280 -0.116690
H11   H     H_    0.860572 0.323469 0.182332 0.116144
H12   H     H_    0.046439 0.677204 0.807909 0.121303
N11   N     N_R   0.945970 0.443180 0.152110 -0.042217
N12   N     N_R   0.054030 0.556820 0.847890 -0.042756
C13   C     C_R   0.218485 0.744628 0.311279 -0.111609
C14   C     C_R   0.790541 0.198986 0.698399 -0.137917
H13   H     H_    0.192144 0.741220 0.368775 0.119149
H14   H     H_    0.818172 0.180675 0.640726 0.133101
N13   N     N_R   0.151530 0.706170 0.208880 -0.044454
N14   N     N_R   0.848470 0.293830 0.791120 -0.042654
C15   C     C_R   0.068221 0.251527 0.972790 -0.134663
C16   C     C_R   0.003038 0.803490 0.099519 -0.135569
H15   H     H_    0.125082 0.248638 0.944509 0.127992
H16   H     H_    0.985889 0.828197 0.164833 0.125927
N15   N     N_R   0.004980 0.293810 0.946140 -0.042906
N16   N     N_R   0.995020 0.706190 0.053860 -0.042996
C17   C     C_R   0.049793 0.220396 0.044841 0.055894
C18   C     C_R   0.063292 0.869159 0.072358 0.065270
C19   C     C_R   0.322810 0.782234 0.326001 0.049339
C20   C     C_R   0.701272 0.131793 0.699230 0.063614
C21   C     C_R   0.308011 0.502180 0.943721 0.060677
C22   C     C_R   0.675548 0.500866 0.948768 0.014399
C23   C     C_R   0.935141 0.499515 0.300697 0.074449
C24   C     C_R   0.961480 0.504479 0.679372 0.055209
H17   H     H_    0.220646 0.092136 0.723947 0.132216
H18   H     H_    0.713072 0.811771 0.194495 0.112539
C25   C     C_R   0.169263 0.040373 0.083447 -0.226381
C26   C     C_R   0.059685 0.135972 0.158424 -0.227389
C27   C     C_R   0.107784 0.021949 0.772452 -0.175624
C28   C     C_R   0.884961 0.924806 0.276116 -0.119789
H19   H     H_    0.044530 0.957584 0.690910 0.114462
H20   H     H_    0.900350 0.923145 0.350193 0.130288
Ni1   Ni    Ni4+2 0.869690 0.369690 0.000000 0.233113
Ni2   Ni    Ni4+2 0.130310 0.630310 0.000000 0.216451
Ni3   Ni    Ni4+2 0.001390 0.369680 0.869810 0.215578
Ni4   Ni    Ni4+2 0.998610 0.630320 0.130190 0.214032
C29   C     C_R   0.090213 0.030888 0.859599 -0.160574
C30   C     C_R   0.970686 0.990270 0.268735 -0.193581
H21   H     H_    0.366408 0.229025 0.908055 0.184432
H22   H     H_    0.679157 0.808682 0.021062 0.171902
H23   H     H_    0.582681 0.038094 0.010444 0.187389
H24   H     H_    0.399762 0.917511 0.934312 0.164144
C31   C     C_R   0.620356 0.206625 0.097706 0.407102
C32   C     C_R   0.309512 0.751106 0.799194 0.404782
C33   C     C_R   0.684402 0.304018 0.198824 -0.290322
C34   C     C_R   0.207081 0.669333 0.708551 -0.271180
H25   H     H_    0.680945 0.377663 0.207517 0.169914
H26   H     H_    0.194304 0.588831 0.659635 0.168491
C35   C     C_R   0.759760 0.309339 0.287308 0.073713
C36   C     C_R   0.120110 0.690640 0.680780 0.063098
C37   C     C_R   0.765364 0.214538 0.276740 -0.175262
C38   C     C_R   0.136373 0.795164 0.741863 -0.215277
H27   H     H_    0.824558 0.218286 0.344160 0.118629
H28   H     H_    0.069413 0.811769 0.720740 0.132048
C39   C     C_R   0.699478 0.116621 0.177587 -0.160474
C40   C     C_R   0.237155 0.875926 0.833510 -0.125029
H29   H     H_    0.706067 0.044495 0.169348 0.160641
H30   H     H_    0.248954 0.955447 0.883046 0.172055
C41   C     C_R   0.628611 0.113009 0.087879 -0.233710
C42   C     C_R   0.322971 0.853951 0.862555 -0.201338
C43   C     C_R   0.850328 0.422908 0.484855 -0.250787
C44   C     C_R   0.995828 0.600489 0.490319 -0.247760
H31   H     H_    0.793635 0.354278 0.483542 0.134021
H32   H     H_    0.057522 0.667988 0.495226 0.130244
C45   C     C_R   0.938869 0.512683 0.583076 0.062966
C46   C     C_R   0.917220 0.505077 0.391240 0.055611
C47   C     C_R   0.012445 0.603160 0.585755 0.055335
C48   C     C_R   0.840830 0.415486 0.387726 0.060714
H33   H     H_    0.012753 0.973290 0.844791 0.121368
H34   H     H_    0.051190 0.041871 0.338226 0.109865
H35   H     H_    0.428711 0.409767 0.022281 0.126289
H36   H     H_    0.551702 0.601256 0.843484 0.158370
H37   H     H_    0.340163 0.245392 0.065568 0.134463
H38   H     H_    0.832115 0.912989 0.003045 0.125565
C49   C     C_R   0.173219 0.112938 0.965770 0.095745
C50   C     C_R   0.953190 0.982635 0.169068 0.115829
C51   C     C_R   0.289979 0.175310 0.895851 -0.055567
C52   C     C_R   0.760367 0.858602 0.090009 -0.137159
H39   H     H_    0.083559 0.972770 0.512659 0.103866
H40   H     H_    0.991523 0.123779 0.520895 0.108594
C53   C     C_R   0.218851 0.010828 0.481870 -0.110400
C54   C     C_R   0.914228 0.052770 0.596109 -0.148775
H41   H     H_    0.203698 0.063522 0.452637 0.102320
H42   H     H_    0.990474 0.077813 0.661773 0.126670
C55   C     C_R   0.306310 0.993860 0.485427 -0.121124
C56   C     C_R   0.815988 0.999035 0.593494 -0.146519
H43   H     H_    0.355998 0.031475 0.456068 0.113266
H44   H     H_    0.817322 0.982036 0.657823 0.118838
C57   C     C_R   0.329543 0.928398 0.526439 0.091286
C58   C     C_R   0.718379 0.979367 0.514841 0.115770
C59   C     C_R   0.267042 0.883778 0.568127 -0.125784
C60   C     C_R   0.719283 0.004252 0.433400 -0.178692
H45   H     H_    0.285463 0.835027 0.602188 0.134495
H46   H     H_    0.645157 0.990162 0.372205 0.118209
C61   C     C_R   0.177098 0.898120 0.560866 -0.125606
C62   C     C_R   0.817363 0.055169 0.435275 -0.115990
H47   H     H_    0.126892 0.861769 0.590133 0.122307
H48   H     H_    0.817855 0.075778 0.373667 0.121994
C63   C     C_R   0.152354 0.960662 0.516794 -0.140789
C64   C     C_R   0.915097 0.081417 0.517782 -0.132830
C65   C     C_R   0.518970 0.982789 0.621367 -0.198322
C66   C     C_R   0.521131 0.862504 0.435671 -0.237300
H49   H     H_    0.514190 0.028923 0.691091 0.153747
H50   H     H_    0.522075 0.813189 0.364152 0.125185
C67   C     C_R   0.616614 0.016816 0.617984 0.047527
C68   C     C_R   0.421970 0.848853 0.431527 0.071632
C69   C     C_R   0.619437 0.950206 0.526250 0.031212
C70   C     C_R   0.421410 0.910022 0.526835 0.009883
C71   C     C_R   0.206942 0.095993 0.790632 -0.104864
C72   C     C_R   0.779498 0.860523 0.187552 -0.128114
C73   C     C_R   0.045027 0.038186 0.154968 0.014785
C74   C     C_R   0.155054 0.116045 0.056221 0.031386
H51   H     H_    0.217084 0.007468 0.057969 0.123821
H52   H     H_    0.021927 0.176028 0.194877 0.127945
C75   C     C_R   0.274409 0.183856 0.984034 -0.193448
C76   C     C_R   0.847079 0.918289 0.080185 -0.136570
C77   C     C_R   0.097501 0.986005 0.111547 0.055550
C78   C     C_R   0.095342 0.162957 0.091251 0.061806
C79   C     C_3   0.463637 0.398613 0.875844 -0.160223
C80   C     C_3   0.510525 0.607466 0.984707 -0.159426
C81   C     C_3   0.407802 0.454040 0.827589 -0.135184
C82   C     C_3   0.565359 0.552077 0.032625 -0.147326
H53   H     H_    0.340330 0.414182 0.743967 0.136447
H54   H     H_    0.631155 0.592178 0.117252 0.125521
H55   H     H_    0.445358 0.313173 0.828608 0.137444
H56   H     H_    0.527048 0.692582 0.029558 0.140928
C83   C     C_3   0.400575 0.504247 0.930597 0.146260
C84   C     C_3   0.574034 0.501470 0.930358 0.131832
C85   C     C_3   0.455130 0.449441 0.978615 -0.091866
C86   C     C_3   0.520824 0.557396 0.882307 -0.046882
N17   N     N_R   0.552260 0.205387 0.004822 0.211060
O1    O     O_R   0.490547 0.115687 0.910844 -0.464606
O2    O     O_R   0.556808 0.296252 0.012657 -0.498860
N18   N     N_R   0.399236 0.729931 0.826030 0.225119
O3    O     O_R   0.492015 0.802557 0.914002 -0.483123
O4    O     O_R   0.390602 0.640125 0.759770 -0.450544

loop_
_geom_bond_atom_site_label_1
_geom_bond_atom_site_label_2
_geom_bond_distance
_ccdc_geom_bond_type
C37   C39   1.394828 A    
C65   C67   1.398736 A    
C39   C41   1.395714 A    
N5    N9    1.386673 A    
C36   C47   1.479908 S    
C6    N6    1.330505 A    
C82   C85   1.529852 S    
C2    H2    1.079090 S    
N17   O1    1.301679 A    
C8    C24   1.394756 A    
C56   H44   1.083612 S    
C29   C49   1.405723 A    
C51   C75   1.395196 A    
C3    N3    1.340967 A    
N1    N15   1.391906 A    
H17   C71   1.077307 S    
N8    N12   1.386549 A    
N2    N16   1.391907 A    
C17   C78   1.477727 S    
C1    N1    1.329297 A    
C12   N12   1.313176 A    
C57   C70   1.478000 S    
N17   O2    1.299519 A    
C9    C21   1.364134 A    
C58   C69   1.477940 S    
C14   N14   1.327936 A    
C55   H43   1.083437 S    
C26   C73   1.386150 A    
H36   C86   1.109527 S    
C13   C19   1.377496 A    
N12   Ni2   1.880547 S    
C59   H45   1.083150 S    
C14   C20   1.387228 A    
C50   C76   1.404290 A    
C44   C46   1.395578 A    
C21   C83   1.445350 S    
C7    C23   1.381656 A    
H37   C75   1.082981 S    
C62   C64   1.395414 A    
H38   C76   1.083304 S    
C28   C30   1.397165 A    
C31   N17   1.433601 S    
C56   C58   1.406786 A    
H24   C42   1.079141 S    
C27   H19   1.082021 S    
H18   C72   1.081689 S    
H39   C63   1.082556 S    
C28   H20   1.079771 S    
C2    C18   1.398130 A    
N8    Ni3   1.880311 S    
C35   C37   1.403938 A    
C40   C42   1.394666 A    
C79   C85   1.541001 S    
C73   C77   1.420867 A    
N4    N14   1.392030 A    
C83   C85   1.525661 S    
C32   N18   1.436738 S    
N6    N10   1.386672 A    
C81   H53   1.109953 S    
C15   N15   1.330206 A    
C4    C20   1.388745 A    
C82   H54   1.110891 S    
N3    Ni2   1.880375 S    
C31   C41   1.406012 A    
C60   C62   1.394565 A    
C33   H25   1.083428 S    
C80   C83   1.531338 S    
C43   H31   1.084785 S    
N18   O4    1.300900 A    
C2    N2    1.337821 A    
C26   H52   1.079997 S    
C24   C45   1.443915 S    
C28   C72   1.396864 A    
C52   C76   1.395968 A    
C10   C22   1.380400 A    
N15   Ni3   1.880102 S    
C45   C47   1.414179 A    
C16   H16   1.070469 S    
N13   Ni4   1.876117 S    
C80   H56   1.108616 S    
C25   C77   1.395753 A    
C9    N9    1.326869 A    
H22   C52   1.079663 S    
H35   C85   1.109104 S    
N5    Ni3   1.875972 S    
C8    N8    1.337028 A    
H23   C41   1.080369 S    
N1    Ni1   1.868340 S    
C74   C78   1.418298 A    
C66   C69   1.395937 A    
C15   C17   1.393078 A    
C66   H50   1.083792 S    
C49   C75   1.398926 A    
N16   Ni4   1.880102 S    
C53   H41   1.077901 S    
C1    H1    1.075180 S    
C12   H12   1.071559 S    
N7    Ni4   1.880310 S    
C81   C83   1.531883 S    
C7    N7    1.322829 A    
C61   H47   1.079212 S    
C5    C21   1.375483 A    
C82   C84   1.535277 S    
C52   C72   1.397336 A    
C34   C36   1.401893 A    
C43   C45   1.395278 A    
C59   C61   1.399290 A    
C33   C35   1.399273 A    
C4    N4    1.326065 A    
C11   H11   1.073925 S    
C20   C67   1.475621 S    
C34   H26   1.083260 S    
C26   C78   1.402816 A    
H40   C64   1.082707 S    
C44   H32   1.080678 S    
C15   H15   1.069414 S    
C43   C48   1.389933 A    
C54   C56   1.399841 A    
C68   C70   1.417080 A    
C32   C42   1.405034 A    
C53   C55   1.392937 A    
C25   H51   1.081166 S    
C27   C71   1.393578 A    
C37   H27   1.081453 S    
C40   H30   1.079680 S    
C25   C74   1.385596 A    
C10   N10   1.330131 A    
C36   C38   1.400125 A    
C39   H29   1.082690 S    
N18   O3    1.301087 A    
C11   N11   1.330070 A    
C8    H8    1.079936 S    
C58   C60   1.407684 A    
C79   H55   1.109290 S    
C60   H46   1.083732 S    
C80   C82   1.534857 S    
C27   C29   1.394122 A    
C3    H3    1.079916 S    
C53   C63   1.395910 A    
C6    C22   1.379767 A    
C67   C69   1.421401 A    
C46   C48   1.417745 A    
C54   C64   1.394962 A    
C38   C40   1.395730 A    
C32   C34   1.405064 A    
C62   H48   1.079656 S    
C66   C68   1.399216 A    
C54   H42   1.074243 S    
C30   H34   1.076715 S    
C35   C48   1.476073 S    
C29   H33   1.083442 S    
C9    H9    1.081302 S    
N4    Ni1   1.880376 S    
C10   H10   1.079929 S    
C5    N5    1.335832 A    
C81   C86   1.557200 S    
C79   C84   1.531623 S    
C5    H5    1.082019 S    
C3    C19   1.400173 A    
C13   H13   1.071691 S    
C30   C50   1.400209 A    
C14   H14   1.068428 S    
C18   C77   1.473269 S    
N14   Ni3   1.876114 S    
C1    C17   1.399022 A    
C44   C47   1.367197 A    
C65   C70   1.374733 A    
H21   C51   1.067521 S    
C23   C46   1.456557 S    
N3    N13   1.392029 A    
C6    H6    1.078462 S    
C79   C81   1.546166 S    
C13   N13   1.317765 A    
N7    N11   1.386551 A    
C61   C63   1.398473 A    
C57   C59   1.404462 A    
N10   Ni1   1.868381 S    
C22   C84   1.448971 S    
N9    Ni2   1.868383 S    
C19   C68   1.462547 S    
N2    Ni2   1.868339 S    
C16   C18   1.371473 A    
C4    H4    1.079967 S    
C31   C33   1.406021 A    
C65   H49   1.079820 S    
N11   Ni1   1.880546 S    
C38   H28   1.080911 S    
C51   C71   1.390543 A    
C55   C57   1.403052 A    
C11   C23   1.379810 A    
C49   C74   1.465155 S    
N6    Ni4   1.875969 S    
C12   C24   1.369842 A    
C50   C73   1.474367 S    
C80   C86   1.549493 S    
C16   N16   1.320328 A    
C84   C86   1.529640 S    
C7    H7    1.081960 S    
