data_mof_unit_65823.cif
_audit_creation_date              2012-12-10T19:52:02-0500
_audit_creation_method            fapswitch 2.2
_symmetry_space_group_name_H-M    P1
_symmetry_Int_Tables_number       1
_space_group_crystal_system       triclinic
_cell_length_a                    25.958596
_cell_length_b                    26.060657
_cell_length_c                    22.167869
_cell_angle_alpha                 89.995112
_cell_angle_beta                  125.787512
_cell_angle_gamma                 90.007295
_cell_volume                      12165.0468026

loop_
_atom_site_label
_atom_site_type_symbol
_atom_type_description
_atom_site_fract_x
_atom_site_fract_y
_atom_site_fract_z
_atom_type_partial_charge
C1    C     C_R   0.650295 0.749987 0.300566 0.508008
C2    C     C_3   0.499062 0.796751 0.024797 -0.102142
C3    C     C_R   0.260741 0.525907 0.456341 0.019014
C4    C     C_R   0.749557 0.945558 0.500435 0.029185
C5    C     C_R   0.749590 0.054447 0.500475 0.028876
C6    C     C_R   0.249558 0.445558 0.500436 0.029186
C7    C     C_R   0.249590 0.554447 0.500475 0.028877
C8    C     C_R   0.737761 0.973004 0.546180 -0.154338
C9    C     C_R   0.737781 0.026984 0.546203 -0.153691
C10   C     C_R   0.237763 0.473004 0.546183 -0.154343
C11   C     C_R   0.237783 0.526984 0.546205 -0.153702
C12   C     C_3   0.775783 0.029604 0.401143 -0.264509
C13   C     C_3   0.998055 0.703525 0.024795 -0.102426
C14   C     C_3   0.775749 0.970479 0.401097 -0.263582
C15   C     C_3   0.275779 0.529604 0.401138 -0.264508
C16   C     C_3   0.275745 0.470479 0.401093 -0.263581
C17   C     C_R   0.609039 0.751124 0.498429 0.496249
C18   C     C_R   0.610690 0.251101 0.501739 0.496412
C19   C     C_R   0.109039 0.251123 0.498429 0.496240
C20   C     C_R   0.110690 0.751101 0.501739 0.496398
C21   C     C_R   0.749949 0.890003 0.500030 0.506362
C22   C     C_R   0.749970 0.109998 0.500053 0.507665
C23   C     C_R   0.249949 0.390003 0.500030 0.506362
C24   C     C_3   0.994352 0.295154 0.024807 -0.102135
C25   C     C_R   0.249970 0.609998 0.500053 0.507664
C26   C     C_R   0.750030 0.609983 0.499944 0.514262
C27   C     C_R   0.750034 0.390019 0.499932 0.514301
C28   C     C_R   0.250030 0.109983 0.499944 0.514263
C29   C     C_R   0.250034 0.890019 0.499932 0.514303
C30   C     C_R   0.695940 0.525944 0.452855 0.020274
C31   C     C_R   0.695943 0.474063 0.452828 0.020387
C32   C     C_R   0.195941 0.025944 0.452852 0.020277
C33   C     C_R   0.195943 0.974063 0.452825 0.020385
C34   C     C_R   0.750738 0.554446 0.499976 0.014525
C35   C     C_3   0.940044 0.739118 0.975324 -0.100574
C36   C     C_R   0.750742 0.445560 0.499951 0.015079
C37   C     C_R   0.250738 0.054446 0.499977 0.014525
C38   C     C_R   0.250742 0.945560 0.499951 0.015078
C39   C     C_R   0.807730 0.526981 0.548379 -0.155407
C40   C     C_R   0.807731 0.473030 0.548368 -0.155652
C41   C     C_R   0.307729 0.026981 0.548383 -0.155401
C42   C     C_R   0.307730 0.973030 0.548372 -0.155643
C43   C     C_3   0.939341 0.256987 0.975337 -0.099108
C44   C     C_3   0.439952 0.239529 0.975324 -0.100555
C45   C     C_3   0.440309 0.761853 0.975334 -0.099343
C46   C     C_1   0.889413 0.750014 0.778943 0.003526
C47   C     C_1   0.889406 0.249988 0.778943 0.003982
C48   C     C_1   0.389413 0.250014 0.778943 0.003525
C49   C     C_R   0.650287 0.250007 0.300568 0.509175
C50   C     C_1   0.389406 0.749988 0.778943 0.003987
C51   C     C_1   0.610548 0.249994 0.221071 0.003383
C52   C     C_1   0.610571 0.749995 0.221068 0.003349
C53   C     C_1   0.110548 0.749994 0.221071 0.003380
C54   C     C_1   0.110571 0.249995 0.221068 0.003347
C55   C     C_3   0.020806 0.714436 0.975173 -0.099600
C56   C     C_3   0.017821 0.288134 0.975171 -0.100472
C57   C     C_3   0.520496 0.214150 0.975174 -0.099600
C58   C     C_3   0.521562 0.784865 0.975164 -0.100571
C59   C     C_3   0.963448 0.750028 0.927005 0.047361
C60   C     C_R   0.150294 0.249987 0.300566 0.508010
C61   C     C_3   0.963461 0.249968 0.927004 0.047332
C62   C     C_3   0.463448 0.250028 0.927005 0.047369
C63   C     C_3   0.463461 0.749968 0.927004 0.047268
C64   C     C_3   0.559986 0.260509 0.024697 -0.097540
C65   C     C_3   0.559675 0.738094 0.024684 -0.099101
C66   C     C_3   0.059894 0.760920 0.024697 -0.097531
C67   C     C_3   0.060643 0.242960 0.024682 -0.099192
C68   C     C_3   0.536490 0.250009 0.073015 0.047729
C69   C     C_3   0.536522 0.749980 0.073013 0.047744
C70   C     C_3   0.036490 0.750009 0.073015 0.047736
C71   C     C_R   0.150288 0.750007 0.300568 0.509173
C72   C     C_3   0.036522 0.249980 0.073013 0.047699
C73   C     C_3   0.001883 0.796513 0.975226 -0.096043
C74   C     C_3   0.005631 0.204793 0.975211 -0.096588
C75   C     C_3   0.502286 0.296388 0.975225 -0.096067
C76   C     C_3   0.500921 0.703196 0.975220 -0.096155
C77   C     C_R   0.849680 0.749990 0.699439 0.504247
C78   C     C_R   0.849674 0.250015 0.699441 0.501714
C79   C     C_R   0.349680 0.249990 0.699439 0.504246
C80   C     C_R   0.349674 0.750015 0.699441 0.501715
C81   C     C_3   0.479443 0.285888 0.024850 -0.095718
C82   C     C_3   0.626142 0.470366 0.394146 0.181386
C83   C     C_3   0.478421 0.715082 0.024855 -0.094330
C84   C     C_3   0.979133 0.785602 0.024850 -0.095725
C85   C     C_3   0.982163 0.211813 0.024848 -0.094419
C86   C     C_1   0.922838 0.750026 0.845803 -0.053329
C87   C     C_1   0.922838 0.249973 0.845803 -0.052923
C88   C     C_1   0.422838 0.250026 0.845803 -0.053329
C89   C     C_1   0.422838 0.749973 0.845803 -0.052928
C90   C     C_1   0.577110 0.249998 0.154214 -0.053058
C91   C     C_1   0.577142 0.749990 0.154211 -0.053162
C92   C     C_1   0.077110 0.749998 0.154214 -0.053057
C93   C     C_3   0.626143 0.529664 0.394195 0.181943
C94   C     C_1   0.077142 0.249990 0.154211 -0.053185
C95   C     C_R   0.505961 0.715267 0.458662 -0.003829
C96   C     C_R   0.502222 0.279789 0.451165 -0.011231
C97   C     C_R   0.005972 0.215257 0.458682 -0.003810
C98   C     C_R   0.002213 0.779772 0.451146 -0.011224
C99   C     C_R   0.549610 0.755568 0.491131 0.018082
C100  C     C_R   0.558276 0.256096 0.508482 0.018081
C101  C     C_R   0.049611 0.255566 0.491133 0.018084
C102  C     C_R   0.058274 0.756095 0.508477 0.018078
C103  C     C_R   0.533491 0.799637 0.514855 0.212640
C104  C     C_3   0.126144 0.970366 0.394137 0.181385
C105  C     C_R   0.561807 0.238376 0.571584 0.212066
C106  C     C_R   0.033483 0.299639 0.514839 0.212645
C107  C     C_R   0.061810 0.738391 0.571589 0.212066
C108  C     C_R   0.481425 0.797241 0.518461 -0.088687
C109  C     C_R   0.506145 0.235943 0.567988 -0.089645
C110  C     C_R   0.981416 0.297243 0.518444 -0.088675
C111  C     C_R   0.006148 0.735958 0.567994 -0.089639
C112  C     C_R   0.443092 0.753157 0.494562 -0.020908
C113  C     C_R   0.448230 0.253780 0.504859 -0.020241
C114  C     C_R   0.943092 0.253155 0.494564 -0.020908
C115  C     C_3   0.126145 0.029664 0.394186 0.181949
C116  C     C_R   0.948229 0.753779 0.504856 -0.020242
C117  C     C_R   0.453417 0.714292 0.459616 0.016950
C118  C     C_R   0.448479 0.279150 0.449714 0.010501
C119  C     C_R   0.953427 0.214283 0.459636 0.016955
C120  C     C_R   0.948470 0.779132 0.449695 0.010497
C121  C     C_3   0.457881 0.657599 0.471620 -0.263174
C122  C     C_3   0.405760 0.272736 0.367213 -0.259663
C123  C     C_3   0.957906 0.157593 0.471670 -0.263181
C124  C     C_3   0.905754 0.772690 0.367199 -0.259652
C125  C     C_R   0.890171 0.750112 0.500116 0.506470
C126  C     C_3   0.497652 0.203650 0.024796 -0.102439
C127  C     C_R   0.890040 0.250063 0.499858 0.506295
C128  C     C_R   0.390171 0.250112 0.500116 0.506477
C129  C     C_R   0.390040 0.750063 0.499858 0.506298
C130  C     C_3   0.515858 0.658686 0.470517 -0.264792
C131  C     C_3   0.465089 0.273474 0.368830 -0.260624
C132  C     C_3   0.015883 0.158680 0.470567 -0.264795
C133  C     C_3   0.965083 0.773428 0.368816 -0.260628
C134  C     C_R   0.760717 0.974120 0.456312 0.019624
C135  C     C_R   0.760743 0.025907 0.456342 0.019012
C136  C     C_R   0.260716 0.474120 0.456311 0.019625
H1    H     H_    0.852152 0.546906 0.586375 0.151229
H2    H     H_    0.374733 0.306723 0.338938 0.147016
H3    H     H_    0.969045 0.146930 0.526714 0.133200
H4    H     H_    0.874714 0.806666 0.338900 0.147050
H5    H     H_    0.416850 0.636970 0.423332 0.144985
H6    H     H_    0.380792 0.235125 0.349939 0.139413
H7    H     H_    0.916880 0.136952 0.423393 0.144986
H8    H     H_    0.880799 0.735073 0.349953 0.139399
H9    H     H_    0.560732 0.648655 0.524933 0.133298
H10   H     H_    0.468239 0.307902 0.341528 0.149771
H11   H     H_    0.060759 0.148663 0.524988 0.133291
H12   H     H_    0.852153 0.453109 0.586359 0.150692
H13   H     H_    0.968221 0.807846 0.341490 0.149777
H14   H     H_    0.508204 0.638712 0.421566 0.147246
H15   H     H_    0.474646 0.236277 0.352517 0.139713
H16   H     H_    0.008235 0.138694 0.421627 0.147252
H17   H     H_    0.974653 0.736226 0.352531 0.139700
H18   H     H_    0.728583 0.953051 0.581855 0.156038
H19   H     H_    0.728621 0.046923 0.581897 0.155098
H20   H     H_    0.228587 0.453051 0.581859 0.156036
H21   H     H_    0.228625 0.546922 0.581900 0.155086
H22   H     H_    0.736165 0.046693 0.347665 0.146970
H23   H     H_    0.352151 0.046906 0.586381 0.151232
H24   H     H_    0.736113 0.953433 0.347591 0.146132
H25   H     H_    0.236158 0.546692 0.347661 0.146975
H26   H     H_    0.236106 0.453432 0.347587 0.146163
H27   H     H_    0.823393 0.046645 0.425463 0.139218
H28   H     H_    0.823339 0.953429 0.425384 0.144221
H29   H     H_    0.323388 0.546645 0.425457 0.139219
H30   H     H_    0.323334 0.453429 0.425378 0.144216
H31   H     H_    0.599188 0.452782 0.413683 0.060278
H32   H     H_    0.599205 0.547203 0.413784 0.055053
H33   H     H_    0.099185 0.952782 0.413669 0.060283
H34   H     H_    0.352151 0.953109 0.586366 0.150702
H35   H     H_    0.099203 0.047203 0.413770 0.055064
H36   H     H_    0.890283 0.730161 0.954001 0.111385
H37   H     H_    0.888982 0.262749 0.954022 0.114418
H38   H     H_    0.390114 0.230909 0.954001 0.111437
H39   H     H_    0.390745 0.771613 0.954018 0.113668
H40   H     H_    0.496270 0.165547 0.046203 0.108594
H41   H     H_    0.498822 0.835190 0.046207 0.109084
H42   H     H_    0.997004 0.665320 0.046202 0.108607
H43   H     H_    0.990241 0.332281 0.046224 0.109148
H44   H     H_    0.463099 0.315362 0.046305 0.118083
H45   H     H_    0.471173 0.829903 0.540077 0.168205
H46   H     H_    0.461220 0.686409 0.046316 0.119641
H47   H     H_    0.962534 0.814841 0.046306 0.117997
H48   H     H_    0.968037 0.180455 0.046304 0.120318
H49   H     H_    0.002935 0.834719 0.953822 0.114970
H50   H     H_    0.009744 0.167666 0.953796 0.114140
H51   H     H_    0.503670 0.334491 0.953821 0.114927
H52   H     H_    0.501162 0.664756 0.953813 0.114775
H53   H     H_    0.609825 0.269129 0.046022 0.113788
H54   H     H_    0.609239 0.728334 0.046003 0.111040
H55   H     H_    0.109656 0.769877 0.046023 0.113805
H56   H     H_    0.508384 0.219987 0.614611 0.167235
H57   H     H_    0.111003 0.237198 0.045998 0.110747
H58   H     H_    0.037409 0.685196 0.953724 0.113375
H59   H     H_    0.031952 0.319492 0.953721 0.112091
H60   H     H_    0.536844 0.184675 0.953725 0.113343
H61   H     H_    0.538768 0.813538 0.953708 0.112293
H62   H     H_    0.583629 0.849435 0.505735 0.338433
H63   H     H_    0.652600 0.243272 0.644124 0.337914
H64   H     H_    0.083619 0.349433 0.505706 0.338427
H65   H     H_    0.152603 0.743299 0.644119 0.337922
H66   H     H_    0.607187 0.412115 0.330509 0.333736
H67   H     H_    0.971157 0.329910 0.540046 0.168204
H68   H     H_    0.607034 0.587962 0.330574 0.334025
H69   H     H_    0.107196 0.912115 0.330503 0.333740
H70   H     H_    0.107042 0.087962 0.330568 0.334002
H71   H     H_    0.008391 0.720015 0.614626 0.167232
H72   H     H_    0.469018 0.646921 0.526660 0.133209
O1    O     O_3   0.749980 0.749980 0.500000 -0.440162
O2    O     O_R   0.612630 0.280380 0.456900 -0.549902
O3    O     O_R   0.112630 0.219620 0.456900 -0.548216
O4    O     O_R   0.112630 0.780380 0.456900 -0.549899
O5    O     O_R   0.698160 0.780350 0.335610 -0.541982
O6    O     O_R   0.698160 0.219650 0.335610 -0.538000
O7    O     O_R   0.198160 0.280350 0.335610 -0.541980
O8    O     O_R   0.198160 0.719650 0.335610 -0.538001
O9    O     O_R   0.801810 0.780340 0.664390 -0.531055
O10   O     O_R   0.801810 0.219660 0.664390 -0.536046
O11   O     O_R   0.301810 0.280340 0.664390 -0.531056
O12   O     O_3   0.749980 0.250020 0.500000 -0.440214
O13   O     O_R   0.301810 0.719660 0.664390 -0.536039
O14   O     O_R   0.637440 0.719620 0.335610 -0.538204
O15   O     O_R   0.637440 0.280380 0.335610 -0.540475
O16   O     O_R   0.137440 0.219620 0.335610 -0.538208
O17   O     O_R   0.137440 0.780380 0.335610 -0.540476
O18   O     O_R   0.862520 0.719620 0.664390 -0.539641
O19   O     O_R   0.862520 0.280380 0.664390 -0.538461
O20   O     O_R   0.362520 0.219620 0.664390 -0.539642
O21   O     O_R   0.362520 0.780380 0.664390 -0.538467
O22   O     O_R   0.844240 0.780350 0.456900 -0.537418
O23   O     O_3   0.249980 0.249980 0.500000 -0.440162
O24   O     O_R   0.844240 0.219650 0.456900 -0.536019
O25   O     O_R   0.344240 0.280350 0.456900 -0.537424
O26   O     O_R   0.344240 0.719650 0.456900 -0.536020
O27   O     O_R   0.655730 0.780340 0.543100 -0.525834
O28   O     O_R   0.655730 0.219660 0.543100 -0.524536
O29   O     O_R   0.155730 0.280340 0.543100 -0.525840
O30   O     O_R   0.155730 0.719660 0.543100 -0.524537
O31   O     O_R   0.758800 0.865790 0.456890 -0.543993
O32   O     O_R   0.758800 0.134210 0.456890 -0.545926
O33   O     O_R   0.258800 0.365790 0.456890 -0.543990
O34   O     O_3   0.249980 0.750020 0.500000 -0.440212
O35   O     O_R   0.258800 0.634210 0.456890 -0.545925
O36   O     O_R   0.698070 0.634180 0.456910 -0.554766
O37   O     O_R   0.698070 0.365820 0.456910 -0.554159
O38   O     O_R   0.198070 0.134180 0.456910 -0.554768
O39   O     O_R   0.198070 0.865820 0.456910 -0.554161
O40   O     O_R   0.741170 0.865780 0.543090 -0.548041
O41   O     O_R   0.741170 0.134220 0.543090 -0.542677
O42   O     O_R   0.241170 0.365780 0.543090 -0.548041
O43   O     O_R   0.241170 0.634220 0.543090 -0.542687
O44   O     O_R   0.801880 0.634180 0.543110 -0.544394
O45   O     O_R   0.887330 0.719620 0.543100 -0.545873
O46   O     O_R   0.801880 0.365820 0.543110 -0.546178
O47   O     O_R   0.301880 0.134180 0.543110 -0.544392
O48   O     O_R   0.301880 0.865820 0.543110 -0.546171
O49   O     O_3   0.567430 0.844827 0.536219 -0.677255
O50   O     O_3   0.617423 0.222240 0.636378 -0.677567
O51   O     O_3   0.067413 0.344833 0.536185 -0.677258
O52   O     O_3   0.117430 0.722271 0.636392 -0.677530
O53   O     O_3   0.612656 0.449534 0.327991 -0.609694
O54   O     O_3   0.612654 0.550570 0.328074 -0.609276
O55   O     O_3   0.112664 0.949534 0.327985 -0.609712
O56   O     O_R   0.887330 0.280380 0.543100 -0.546480
O57   O     O_3   0.112662 0.050570 0.328068 -0.609358
O58   O     O_R   0.387330 0.219620 0.543100 -0.545875
O59   O     O_R   0.387330 0.780380 0.543100 -0.546491
O60   O     O_R   0.612630 0.719620 0.456900 -0.548228
Zn1   Zn    Zn3+2 0.824140 0.706600 0.561580 0.941405
Zn2   Zn    Zn3+2 0.737390 0.206640 0.561570 0.950594
Zn3   Zn    Zn3+2 0.237390 0.293360 0.561570 0.950104
Zn4   Zn    Zn3+2 0.237390 0.706640 0.561570 0.950592
Zn5   Zn    Zn3+2 0.675820 0.706600 0.438430 0.927933
Zn6   Zn    Zn3+2 0.675820 0.293400 0.438430 0.926333
Zn7   Zn    Zn3+2 0.175820 0.206600 0.438430 0.927938
Zn8   Zn    Zn3+2 0.175820 0.793400 0.438430 0.926332
Zn9   Zn    Zn3+2 0.824140 0.293400 0.561580 0.938982
Zn10  Zn    Zn3+2 0.324140 0.206600 0.561580 0.941407
Zn11  Zn    Zn3+2 0.324140 0.793400 0.561580 0.938977
Zn12  Zn    Zn3+2 0.762580 0.793360 0.438420 0.932572
Zn13  Zn    Zn3+2 0.762580 0.206640 0.438420 0.936582
Zn14  Zn    Zn3+2 0.262580 0.293360 0.438420 0.932571
Zn15  Zn    Zn3+2 0.262580 0.706640 0.438420 0.936579
Zn16  Zn    Zn3+2 0.737390 0.793360 0.561570 0.950108

loop_
_geom_bond_atom_site_label_1
_geom_bond_atom_site_label_2
_ccdc_geom_bond_type
C99   C103  A    
C55   C59   S    
C103  O49   S    
O23   Zn14  S    
C131  H15   S    
O58   Zn10  S    
C43   C61   S    
O1    Zn16  S    
C124  C133  S    
C68   C81   S    
C18   O2    A    
C60   O7    A    
C18   O28   A    
C63   C76   S    
C71   O8    A    
H70   O57   S    
C131  H10   S    
C42   H34   S    
C80   O13   A    
C49   C51   S    
C12   C135  S    
C68   C90   S    
C2    H41   S    
C112  C129  S    
C70   C84   S    
C59   C73   S    
C76   H52   S    
C72   C94   S    
C17   O27   A    
C77   O18   A    
C35   H36   S    
C71   O17   A    
C76   C83   S    
C82   H31   S    
C75   H51   S    
C43   C85   S    
O8    Zn15  S    
C44   C81   S    
C16   H26   S    
C98   C102  A    
C62   C88   S    
O22   Zn12  S    
C56   H59   S    
C79   O11   A    
O31   Zn12  S    
C82   O53   S    
C67   C74   S    
C31   C82   S    
C85   H48   S    
C132  H16   S    
C62   C75   S    
C53   C71   S    
O40   Zn16  S    
C11   H21   S    
O16   Zn7   S    
O41   Zn2   S    
C15   H25   S    
C81   H44   S    
C46   C77   S    
C35   C84   S    
C98   C120  A    
C119  C123  S    
C61   C74   S    
C24   C56   S    
C33   C38   A    
H65   O52   S    
H63   O50   S    
C25   O43   A    
C77   O9    A    
C30   C31   A    
C20   O30   A    
O11   Zn3   S    
C20   O4    A    
C13   C70   S    
C24   C43   S    
C31   C36   A    
C52   C91   T    
C121  H72   S    
C12   H27   S    
C105  O50   S    
C123  C132  S    
C33   C104  S    
C43   H37   S    
C121  C130  S    
C13   C55   S    
C72   C85   S    
C66   C70   S    
C95   C117  A    
C64   C68   S    
C44   H38   S    
C13   C35   S    
C23   O42   A    
C27   O37   A    
C51   C90   T    
O46   Zn9   S    
O44   Zn1   S    
C13   H42   S    
C123  H3    S    
C127  O56   A    
C3    C136  A    
C118  C122  S    
C61   C87   S    
C29   C38   S    
C130  H14   S    
C95   C130  S    
O24   Zn13  S    
C23   O33   A    
C2    C69   S    
C110  C114  A    
C114  C119  A    
O5    Zn12  S    
C45   C83   S    
O42   Zn3   S    
C24   H43   S    
C2    C45   S    
C30   C34   A    
C34   C39   A    
C101  C106  A    
C39   C40   A    
O20   Zn10  S    
O21   Zn11  S    
C116  C120  A    
O37   Zn6   S    
C47   C87   T    
C97   C119  A    
O30   Zn4   S    
C5    C9    A    
C58   C65   S    
C63   C89   S    
O56   Zn9   S    
C102  C107  A    
C28   O38   A    
C32   C37   A    
O12   Zn13  S    
C26   O44   A    
C96   C131  S    
C21   O31   A    
O6    Zn13  S    
C116  C125  S    
C106  O51   S    
C16   C136  S    
C111  H71   S    
C122  C131  S    
O12   Zn2   S    
C24   C72   S    
C4    C134  A    
C93   O54   S    
C128  O25   A    
C5    C135  A    
C105  C109  A    
C132  H11   S    
C107  C111  A    
C95   C99   A    
C50   C80   S    
O43   Zn4   S    
C73   H49   S    
C134  C135  A    
C129  O26   A    
C28   C37   S    
C96   C100  A    
C127  O24   A    
O2    Zn6   S    
C64   C75   S    
C74   C85   S    
C37   C41   A    
C27   O46   A    
C10   C11   A    
C55   H58   S    
C9    H19   S    
O12   Zn9   S    
C128  O58   A    
C15   H29   S    
C47   C78   S    
C12   H22   S    
C69   C91   S    
C58   H61   S    
C41   C42   A    
C79   O20   A    
O48   Zn11  S    
C28   O47   A    
O33   Zn14  S    
C64   H53   S    
C126  H40   S    
C113  C128  S    
C98   C133  S    
O10   Zn2   S    
C65   C76   S    
C108  H45   S    
C19   O3    A    
C48   C79   S    
O38   Zn7   S    
C17   O60   A    
C3    C7    A    
C19   O29   A    
C112  C117  A    
C109  H56   S    
C78   O19   A    
C35   C59   S    
C93   H32   S    
O45   Zn1   S    
C48   C88   T    
C111  C116  A    
C82   C93   S    
C49   O15   A    
C130  H9    S    
O34   Zn11  S    
C21   O40   A    
C22   O32   A    
C25   O35   A    
C40   H12   S    
C57   H60   S    
O12   Zn6   S    
C121  H5    S    
C122  H2    S    
C115  H35   S    
O9    Zn16  S    
H69   O55   S    
C49   O6    A    
C108  C112  A    
C1    O14   A    
O34   Zn4   S    
C104  C115  S    
C50   C89   T    
O7    Zn14  S    
C17   C99   S    
O13   Zn4   S    
O47   Zn10  S    
C1    O5    A    
C133  H17   S    
O1    Zn12  S    
H66   O53   S    
O34   Zn15  S    
C55   C66   S    
H64   O51   S    
C124  H4    S    
C70   C92   S    
C97   C132  S    
C6    C10   A    
C2    C58   S    
C38   C42   A    
C27   C36   S    
O27   Zn16  S    
C7    C25   S    
C32   C33   A    
O14   Zn5   S    
C45   H39   S    
O34   Zn8   S    
C78   O10   A    
C114  C127  S    
O15   Zn6   S    
C65   C69   S    
O59   Zn11  S    
C32   C115  S    
C1    C52   S    
C65   H54   S    
C56   C61   S    
C110  H67   S    
O39   Zn8   S    
H62   O49   S    
C115  O57   S    
C74   H50   S    
C39   H1    S    
C80   O21   A    
C4    C8    A    
C57   C62   S    
C54   C60   S    
C7    C11   A    
C44   C126  S    
C100  C105  A    
O3    Zn7   S    
C96   C118  A    
C67   C72   S    
C30   C93   S    
O18   Zn1   S    
C26   O36   A    
C20   C102  S    
C15   C16   S    
C29   O48   A    
C117  C121  S    
C6    C136  A    
O35   Zn15  S    
C41   H23   S    
C26   C34   S    
C5    C22   S    
C16   H30   S    
C8    C9    A    
O23   Zn3   S    
O60   Zn5   S    
C103  C108  A    
C104  O55   S    
C8    H18   S    
C73   C84   S    
C129  O59   A    
C109  C113  A    
O1    Zn1   S    
O25   Zn14  S    
C14   H28   S    
C29   O39   A    
C18   C100  S    
C60   O16   A    
O4    Zn8   S    
C36   C40   A    
C133  H13   S    
C22   O41   A    
C125  O22   A    
C10   H20   S    
C57   C126  S    
H68   O54   S    
C75   C81   S    
C14   C134  S    
C44   C62   S    
C66   C73   S    
C45   C63   S    
C83   H46   S    
C14   H24   S    
C107  O52   S    
C69   C83   S    
C66   H55   S    
C53   C92   T    
O28   Zn2   S    
O23   Zn7   S    
O29   Zn3   S    
C125  O45   A    
O19   Zn9   S    
C12   C14   S    
O1    Zn5   S    
O32   Zn13  S    
O36   Zn5   S    
O17   Zn8   S    
C122  H6    S    
C68   C126  S    
C3    C15   S    
C57   C64   S    
C106  C110  A    
C58   C63   S    
O23   Zn10  S    
C84   H47   S    
C56   C67   S    
C59   C86   S    
C4    C21   S    
C19   C101  S    
C6    C23   S    
C54   C94   T    
C113  C118  A    
O26   Zn15  S    
C123  H7    S    
C124  H8    S    
C67   H57   S    
C97   C101  A    
C120  C124  S    
C104  H33   S    
C46   C86   T    
