data_mof_unit_29565.cif
_audit_creation_date              2012-12-10T20:58:07-0500
_audit_creation_method            fapswitch 2.2
_symmetry_space_group_name_H-M    P1
_symmetry_Int_Tables_number       1
_space_group_crystal_system       triclinic
_cell_length_a                    18.201197
_cell_length_b                    18.246572
_cell_length_c                    18.383767
_cell_angle_alpha                 120.061304
_cell_angle_beta                  89.967965
_cell_angle_gamma                 119.894356
_cell_volume                      4321.2713913

loop_
_atom_site_label
_atom_site_type_symbol
_atom_type_description
_atom_site_fract_x
_atom_site_fract_y
_atom_site_fract_z
_atom_type_partial_charge
C1    C     C_R   0.361036 0.220206 0.361158 0.818871
C2    C     C_3   0.759212 0.941737 0.652526 -0.452679
C3    C     C_3   0.698562 0.897662 0.699161 0.120354
C4    C     C_R   0.640932 0.781077 0.640132 0.774551
C5    C     C_3   0.798965 0.102411 0.802867 0.084142
C6    C     C_3   0.818920 0.059257 0.848776 -0.510710
C7    C     C_3   0.818320 0.062348 0.713036 0.420023
C8    C     C_3   0.641910 0.400922 0.204694 -0.542908
C9    C     C_3   0.700898 0.400834 0.144929 0.504174
C10   C     C_3   0.738147 0.596389 0.300779 0.329677
C11   C     C_3   0.775452 0.498152 0.336282 -0.406074
C12   C     C_3   0.348785 0.605105 0.315119 -0.425251
C13   C     C_3   0.698217 0.499200 0.301921 -0.013511
C14   C     C_3   0.799322 0.498292 0.200165 -0.066213
C15   C     C_3   0.800175 0.596965 0.242660 0.242158
C16   C     C_R   0.358818 0.500122 0.640305 0.802973
C17   C     C_3   0.834943 0.497663 0.276459 -0.462493
C18   C     C_R   0.477826 0.199222 0.560910 -0.121330
C19   C     C_R   0.436893 0.150561 0.470818 -0.137739
C20   C     C_R   0.344518 0.103234 0.437434 0.218269
C21   C     C_R   0.293635 0.104612 0.494951 -0.062595
C22   C     C_R   0.334984 0.154093 0.585114 -0.140958
C23   C     C_3   0.299220 0.498256 0.300937 0.074963
C24   C     C_R   0.427006 0.201580 0.618078 -0.131078
C25   C     C_R   0.248534 0.944600 0.286150 0.469211
C26   C     C_R   0.199681 0.892545 0.196543 -0.180097
C27   C     C_R   0.211090 0.949488 0.161123 -0.048492
C28   C     C_R   0.640634 0.499248 0.359402 0.832010
C29   C     C_R   0.265887 0.056197 0.216484 -0.258540
C30   C     C_R   0.308756 0.108113 0.306550 -0.126883
C31   C     C_R   0.300496 0.052327 0.342206 -0.140980
C32   C     C_R   0.219400 0.894473 0.008761 -0.234895
C33   C     C_R   0.180420 0.849797 0.919359 -0.217306
C34   C     C_3   0.196076 0.497408 0.199140 -0.007262
C35   C     C_R   0.091202 0.812998 0.887400 0.675140
C36   C     C_R   0.040657 0.820547 0.944799 -0.230263
C37   C     C_R   0.079388 0.865044 0.034334 -0.222826
C38   C     C_R   0.168966 0.901904 0.066602 0.194221
C39   C     C_R   0.930874 0.679559 0.606773 -0.176626
C40   C     C_R   0.641941 0.501823 0.641648 0.815388
C41   C     C_R   0.878165 0.607913 0.625768 -0.268796
C42   C     C_R   0.844362 0.635523 0.696319 0.063223
C43   C     C_R   0.863925 0.735603 0.747787 0.618376
C44   C     C_R   0.917001 0.807149 0.728959 -0.280691
C45   C     C_3   0.154213 0.482283 0.268919 0.452918
C46   C     C_R   0.950045 0.779383 0.658044 0.567029
C47   C     C_R   0.841604 0.555089 0.770488 -0.249736
C48   C     C_R   0.799961 0.501601 0.808330 -0.071569
C49   C     C_R   0.707425 0.454912 0.796440 0.079533
C50   C     C_R   0.657631 0.456391 0.741339 -0.229211
C51   C     C_R   0.698834 0.507227 0.701390 -0.040454
C52   C     C_R   0.357816 0.499776 0.359254 0.799691
C53   C     C_R   0.792898 0.562417 0.720257 0.059037
C54   C     C_R   0.616642 0.303287 0.803825 -0.322433
C55   C     C_R   0.567422 0.258354 0.845884 0.629009
C56   C     C_3   0.288350 0.605117 0.255639 -0.614541
C57   C     C_R   0.564335 0.320747 0.929023 -0.303082
C58   C     C_R   0.607998 0.426609 0.969241 -0.291981
C59   C     C_R   0.657030 0.472035 0.927744 0.579558
C60   C     C_R   0.660924 0.409788 0.844059 -0.049926
C61   C     C_R   0.379790 0.790751 0.703546 -0.242561
C62   C     C_R   0.364585 0.731496 0.736200 -0.188863
C63   C     C_R   0.286687 0.630270 0.691322 0.156279
C64   C     C_3   0.274078 0.413174 0.201120 -0.466044
C65   C     C_R   0.222728 0.590283 0.615556 -0.232081
C66   C     C_R   0.237605 0.649768 0.583397 -0.196264
C67   C     C_3   0.639269 0.939354 0.721192 -0.400126
C68   C     C_R   0.317273 0.748864 0.624989 0.635279
C69   C     C_R   0.219106 0.563794 0.777965 -0.254101
C70   C     C_R   0.193696 0.496801 0.803942 -0.064969
C71   C     C_R   0.220738 0.428706 0.773448 0.012288
C72   C     C_R   0.275631 0.433050 0.721309 -0.257036
C73   C     C_R   0.301668 0.500686 0.695978 -0.063271
C74   C     C_R   0.271188 0.565302 0.723080 0.009553
C75   C     C_R   0.234793 0.369818 0.866640 -0.197962
C76   C     C_3   0.218660 0.416782 0.141312 0.397549
C77   C     C_R   0.203805 0.292633 0.881170 -0.220123
C78   C     C_3   0.697543 0.058482 0.782792 -0.323089
C79   C     C_R   0.127337 0.190910 0.817160 0.646436
C80   C     C_R   0.082532 0.169949 0.740197 -0.221889
C81   C     C_R   0.113637 0.247060 0.725734 -0.267449
C82   C     C_R   0.189328 0.347545 0.789195 0.168797
C83   C     C_R   0.857033 0.498974 0.142758 0.880007
C84   C     C_R   0.138011 0.498940 0.861025 0.789588
C85   C     C_R   0.856764 0.218990 0.862373 0.802777
C86   C     C_R   0.139122 0.780023 0.141321 0.806995
C87   C     C_R   0.855979 0.500301 0.862467 0.783255
C88   C     C_3   0.210836 0.473433 0.322587 -0.464619
C89   C     C_3   0.759659 0.939226 0.788137 -0.373597
C90   C     C_R   0.138927 0.498915 0.142554 0.825497
C91   C     C_3   0.860276 0.121428 0.623449 -0.373640
C92   C     C_3   0.782567 0.766394 0.398040 -0.364006
C93   C     C_3   0.075167 0.257346 0.081867 -0.145579
C94   C     C_3   0.309170 0.870464 0.306026 -0.266217
C95   C     C_3   0.958264 0.834557 0.570212 -0.253642
C96   C     C_3   0.447245 0.097114 0.736320 -0.330854
C97   C     C_3   0.786009 0.635670 0.017630 -0.199335
C98   C     C_3   0.413235 0.844275 0.578210 -0.390813
C99   C     C_3   0.156016 0.112358 0.869857 -0.270518
F1    F     F_    0.697780 0.311121 0.105201 -0.657215
F2    F     F_    0.771912 0.602890 0.176990 -0.742306
F3    F     F_    0.053988 0.770187 0.800749 -0.700977
F4    F     F_    0.832826 0.764258 0.817055 -0.685472
F5    F     F_    0.064938 0.399530 0.231789 -0.711086
H1    H     H_    0.237448 0.335736 0.188819 0.185078
H2    H     H_    0.805919 0.086919 0.913351 0.194704
H3    H     H_    0.803568 0.914466 0.636945 0.136937
H4    H     H_    0.336294 0.426407 0.184058 0.161668
H5    H     H_    0.716606 0.911669 0.587854 0.181163
H6    H     H_    0.890447 0.090551 0.729626 0.080255
H7    H     H_    0.803545 0.911300 0.774777 0.202637
H8    H     H_    0.891024 0.088363 0.863839 0.207368
H9    H     H_    0.585375 0.398153 0.177183 0.153276
H10   H     H_    0.611895 0.330112 0.203653 0.238134
H11   H     H_    0.673325 0.400894 0.091187 0.137636
H12   H     H_    0.278752 0.667168 0.298656 0.205895
H13   H     H_    0.679856 0.588743 0.269220 0.102916
H14   H     H_    0.265953 0.451310 0.111522 0.104764
H15   H     H_    0.817626 0.567092 0.405980 0.212454
H16   H     H_    0.747019 0.428466 0.336712 0.180257
H17   H     H_    0.835803 0.428178 0.248372 0.241555
H18   H     H_    0.905228 0.566921 0.317923 0.193362
H19   H     H_    0.870254 0.666694 0.284441 0.156215
H20   H     H_    0.458831 0.240274 0.687958 0.120438
H21   H     H_    0.549005 0.235579 0.586486 0.124239
H22   H     H_    0.476905 0.149942 0.427168 0.097532
H23   H     H_    0.226250 0.528261 0.394914 0.165633
H24   H     H_    0.222316 0.068317 0.470056 0.116497
H25   H     H_    0.295753 0.155837 0.629473 0.130912
H26   H     H_    0.273109 0.098929 0.188857 0.185343
H27   H     H_    0.288625 0.922808 0.032908 0.155127
H28   H     H_    0.219456 0.843816 0.874903 0.164994
H29   H     H_    0.971520 0.791910 0.920038 0.191737
H30   H     H_    0.039797 0.870452 0.078312 0.142237
H31   H     H_    0.171782 0.394287 0.307123 0.184306
H32   H     H_    0.957907 0.658146 0.553143 0.151835
H33   H     H_    0.864586 0.531556 0.586358 0.160896
H34   H     H_    0.155138 0.551704 0.316758 0.129810
H35   H     H_    0.933073 0.884624 0.769803 0.180051
H36   H     H_    0.913257 0.594375 0.782120 0.207811
H37   H     H_    0.586457 0.419820 0.731726 0.170967
H38   H     H_    0.619815 0.255323 0.739773 0.159845
H39   H     H_    0.527017 0.286719 0.962052 0.176530
H40   H     H_    0.603650 0.473624 0.032856 0.201733
H41   H     H_    0.439721 0.869083 0.739718 0.147312
H42   H     H_    0.413715 0.763923 0.795754 0.143618
H43   H     H_    0.161616 0.512802 0.581148 0.150436
H44   H     H_    0.187556 0.618096 0.524969 0.151507
H45   H     H_    0.594202 0.908485 0.754162 0.180447
H46   H     H_    0.196830 0.614249 0.798874 0.182443
H47   H     H_    0.296520 0.381211 0.698961 0.175973
H48   H     H_    0.293303 0.447263 0.916278 0.138210
H49   H     H_    0.239119 0.313225 0.942677 0.151692
H50   H     H_    0.367585 0.667026 0.386134 0.197835
H51   H     H_    0.023368 0.092947 0.690867 0.138976
H52   H     H_    0.078441 0.228691 0.665254 0.140085
H53   H     H_    0.411976 0.623347 0.299000 0.171635
H54   H     H_    0.322887 0.624683 0.211717 0.178806
H55   H     H_    0.863353 0.054284 0.578596 0.152197
H56   H     H_    0.596270 0.912550 0.658472 0.175441
H57   H     H_    0.928090 0.191287 0.671711 0.174287
H58   H     H_    0.837307 0.138418 0.581639 0.201447
H59   H     H_    0.713230 0.745999 0.392928 0.161271
H60   H     H_    0.804734 0.781786 0.347877 0.197431
H61   H     H_    0.827880 0.839004 0.465050 0.173246
H62   H     H_    0.023252 0.271314 0.076850 0.216007
H63   H     H_    0.093049 0.268491 0.145868 0.171445
H64   H     H_    0.044376 0.174530 0.028591 0.162691
H65   H     H_    0.377888 0.942918 0.336338 0.136089
H66   H     H_    0.295045 0.817079 0.233657 0.136125
H67   H     H_    0.680034 0.088271 0.750708 0.221304
H68   H     H_    0.307904 0.832200 0.338001 0.186855
H69   H     H_    0.897105 0.832944 0.579428 0.170859
H70   H     H_    0.940127 0.761495 0.507568 0.185054
H71   H     H_    0.001461 0.898761 0.563582 0.182965
H72   H     H_    0.465363 0.092870 0.677230 0.171128
H73   H     H_    0.406290 0.129056 0.753837 0.154118
H74   H     H_    0.404159 0.017071 0.718047 0.239565
H75   H     H_    0.829340 0.660729 0.981071 0.149971
H76   H     H_    0.804804 0.596168 0.036246 0.173395
H77   H     H_    0.801108 0.706502 0.080443 0.200541
H78   H     H_    0.681953 0.084314 0.846069 0.195677
H79   H     H_    0.430592 0.787115 0.550165 0.173045
H80   H     H_    0.466528 0.917034 0.641734 0.185750
H81   H     H_    0.411127 0.863483 0.530097 0.198558
H82   H     H_    0.181379 0.169691 0.943253 0.180762
H83   H     H_    0.212265 0.126642 0.842163 0.147171
H84   H     H_    0.124520 0.035002 0.856701 0.217711
H85   H     H_    0.717631 0.909220 0.823270 0.184945
O1    O     O_3   0.500000 0.500000 0.500000 -0.479925
O2    O     O_R   0.113800 0.731630 0.056520 -0.645278
O3    O     O_R   0.819390 0.439310 0.886160 -0.642600
O4    O     O_R   0.383400 0.268380 0.323710 -0.649358
O5    O     O_R   0.115110 0.560720 0.179280 -0.643915
O6    O     O_R   0.941380 0.560750 0.885620 -0.648733
O7    O     O_R   0.115110 0.439270 0.057830 -0.610919
O8    O     O_R   0.942690 0.268390 0.886930 -0.647414
O9    O     O_R   0.114340 0.731630 0.178520 -0.588222
O10   O     O_R   0.820160 0.439310 0.057830 -0.611401
O11   O     O_R   0.113800 0.560730 0.885620 -0.645745
O12   O     O_R   0.383400 0.560740 0.616060 -0.635369
O13   O     O_R   0.555060 0.731630 0.615290 -0.654729
O14   O     O_R   0.383950 0.439280 0.616600 -0.644793
O15   O     O_R   0.677590 0.560710 0.444390 -0.615377
O16   O     O_R   0.556370 0.439260 0.616600 -0.645456
O17   O     O_R   0.382640 0.439290 0.322940 -0.650398
O18   O     O_R   0.678360 0.560700 0.616060 -0.649821
O19   O     O_R   0.382640 0.560750 0.444390 -0.652801
O20   O     O_3   0.799288 0.099562 0.669112 -0.610282
O21   O     O_3   0.787766 0.687755 0.389007 -0.626840
O22   O     O_3   0.148926 0.317356 0.064668 -0.618522
O23   O     O_R   0.555060 0.439270 0.322940 -0.663948
O24   O     O_3   0.243235 0.890724 0.320992 -0.577042
O25   O     O_3   0.006903 0.853058 0.644011 -0.595603
O26   O     O_3   0.524892 0.154206 0.808352 -0.609253
O27   O     O_3   0.694798 0.575652 0.966417 -0.608000
O28   O     O_3   0.328673 0.804610 0.590336 -0.619125
O29   O     O_3   0.089836 0.111662 0.828992 -0.613356
O30   O     O_R   0.383950 0.268380 0.445700 -0.640949
O31   O     O_R   0.677590 0.731610 0.615290 -0.636103
O32   O     O_3   0.997750 0.500010 0.002220 -0.499265
O33   O     O_R   0.942690 0.560750 0.179280 -0.658189
O34   O     O_R   0.114340 0.439270 0.886160 -0.636221
O35   O     O_R   0.820160 0.268410 0.886930 -0.621645
Zn1   Zn    Zn3+2 0.456040 0.586770 0.543190 0.954672
Zn2   Zn    Zn3+2 0.456820 0.413240 0.543960 0.972256
Zn3   Zn    Zn3+2 0.631110 0.586750 0.543190 0.975587
Zn4   Zn    Zn3+2 0.456040 0.413240 0.369660 0.943784
Zn5   Zn    Zn3+2 0.041710 0.413240 0.959030 0.992637
Zn6   Zn    Zn3+2 0.866640 0.413270 0.959030 1.011961
Zn7   Zn    Zn3+2 0.040930 0.586780 0.958260 0.957403
Zn8   Zn    Zn3+2 0.041710 0.586770 0.132560 0.994570

loop_
_geom_bond_atom_site_label_1
_geom_bond_atom_site_label_2
_ccdc_geom_bond_type
C25   C31   A    
C66   C68   A    
C63   C65   A    
C2    H5    S    
C34   C56   S    
C8    C13   S    
C67   H45   S    
O1    Zn1   S    
C11   C13   S    
C41   C42   A    
C92   O21   S    
C35   C36   A    
C91   O20   S    
C35   F3    S    
C11   H15   S    
C36   H29   S    
C99   H83   S    
C81   C82   A    
C57   C58   A    
C64   H1    S    
C39   C41   A    
C54   C60   A    
C84   O11   A    
O12   Zn1   S    
C12   C23   S    
C26   C27   A    
C37   C38   A    
C81   H52   S    
C15   H19   S    
C18   C24   A    
C69   H46   S    
C49   C60   S    
C1    C30   S    
C36   C37   A    
O10   Zn6   S    
C98   H81   S    
C10   C15   S    
C94   H65   S    
C55   O26   S    
C30   C31   A    
C99   H82   S    
O9    Zn8   S    
C97   H75   S    
C27   C29   A    
C27   C38   S    
C37   H30   S    
C86   O2    A    
C2    H3    S    
C24   H20   S    
C18   C19   A    
C73   C74   A    
O34   Zn5   S    
C98   H79   S    
C95   H71   S    
C78   H67   S    
C56   H54   S    
C77   H49   S    
C54   C55   A    
C83   O33   A    
C92   H61   S    
C10   O21   S    
C11   C17   S    
C2    C7    S    
C93   H64   S    
C8    C9    S    
C4    O31   A    
C97   O27   S    
O32   Zn6   S    
C93   O22   S    
C91   H58   S    
C67   H56   S    
O11   Zn7   S    
C32   C38   A    
C12   H53   S    
C65   H43   S    
C16   O14   A    
C70   C84   S    
C91   H55   S    
C50   H37   S    
C8    H10   S    
C47   C53   A    
C71   C82   S    
C94   H68   S    
C92   H60   S    
C40   O18   A    
O33   Zn8   S    
C59   C60   A    
O1    Zn2   S    
C21   C22   A    
C98   H80   S    
C14   C17   S    
C61   C62   A    
C67   C78   S    
C6    H8    S    
C14   C83   S    
C11   H16   S    
C99   H84   S    
C7    O20   S    
C44   C46   A    
C64   H4    S    
O13   Zn1   S    
C39   H32   S    
C77   C79   A    
C56   H12   S    
C57   H39   S    
O1    Zn3   S    
C28   O15   A    
O5    Zn8   S    
C69   C74   A    
C45   C88   S    
C88   H31   S    
C1    O30   A    
C88   H23   S    
C5    C7    S    
C59   O27   S    
C72   C73   A    
C79   O29   S    
C46   O25   S    
C25   C26   A    
C10   C13   S    
C76   H14   S    
C16   C73   S    
O31   Zn3   S    
C78   H78   S    
C9    H11   S    
C47   H36   S    
O3    Zn6   S    
C9    C14   S    
C34   C90   S    
C62   C63   A    
O1    Zn4   S    
C45   F5    S    
O35   Zn6   S    
O19   Zn1   S    
C75   C77   A    
C4    O13   A    
C47   C48   A    
C90   O5    A    
C99   O29   S    
C75   H48   S    
C26   C86   S    
C72   H47   S    
O32   Zn7   S    
C14   C15   S    
C50   C51   A    
C64   C76   S    
C48   C87   S    
O6    Zn7   S    
O16   Zn2   S    
C13   C28   S    
C34   C45   S    
C15   F2    S    
C21   H24   S    
C96   O26   S    
C12   C56   S    
C8    H9    S    
C86   O9    A    
C39   C46   A    
C33   H28   S    
O18   Zn3   S    
C23   C64   S    
C54   H38   S    
C93   H62   S    
C49   C50   A    
C44   H35   S    
C23   C88   S    
C55   C57   A    
C43   C44   A    
O17   Zn4   S    
C96   H73   S    
C52   O17   A    
C28   O23   A    
C42   C43   A    
C83   O10   A    
C3    C4    S    
C6    C89   S    
C70   C71   A    
C76   O22   S    
C80   H51   S    
C17   H17   S    
C41   H33   S    
C40   O16   A    
C48   C49   A    
C94   O24   S    
C96   H72   S    
C20   C21   A    
C52   O19   A    
C92   H59   S    
C66   H44   S    
C95   H70   S    
C3    C67   S    
O4    Zn4   S    
C12   H50   S    
C80   C81   A    
C97   H76   S    
C84   O34   A    
C75   C82   A    
C97   H77   S    
C63   C74   S    
O8    Zn5   S    
C9    F1    S    
C40   C51   S    
C89   H7    S    
C19   H22   S    
C7    H6    S    
C3    C89   S    
C85   O8    A    
C96   H74   S    
C32   C33   A    
C87   O3    A    
C19   C20   A    
C25   O24   S    
C68   O28   S    
C58   C59   A    
C87   O6    A    
C71   C72   A    
C42   C53   S    
C10   H13   S    
C94   H66   S    
O15   Zn3   S    
C61   C68   A    
C23   C52   S    
C5    C6    S    
O32   Zn8   S    
C61   H41   S    
C45   H34   S    
C33   C35   A    
C2    C3    S    
C22   C24   A    
O14   Zn2   S    
O30   Zn2   S    
C95   H69   S    
C69   C70   A    
C18   H21   S    
C85   O35   A    
C43   F4    S    
C29   C30   A    
C79   C80   A    
O23   Zn4   S    
C29   H26   S    
C58   H40   S    
C17   H18   S    
C90   O7    A    
O7    Zn5   S    
C93   H63   S    
O2    Zn7   S    
C65   C66   A    
C62   H42   S    
C98   O28   S    
O32   Zn5   S    
C22   H25   S    
C95   O25   S    
C89   H85   S    
C1    O4    A    
C91   H57   S    
C51   C53   A    
C5    C78   S    
C5    C85   S    
C32   H27   S    
C16   O12   A    
C34   C76   S    
C6    H2    S    
C20   C31   S    
