data_mof_unit_48316.cif
_audit_creation_date              2012-10-26T19:46:09-0400
_audit_creation_method            fapswitch 2.2
_symmetry_space_group_name_H-M    P1
_symmetry_Int_Tables_number       1
_space_group_crystal_system       triclinic
_cell_length_a                    10.83646
_cell_length_b                    9.741178
_cell_length_c                    15.883022
_cell_angle_alpha                 89.761962
_cell_angle_beta                  91.143374
_cell_angle_gamma                 90.641417
_cell_volume                      1676.15816592

loop_
_atom_site_label
_atom_site_type_symbol
_atom_type_description
_atom_site_fract_x
_atom_site_fract_y
_atom_site_fract_z
_atom_type_partial_charge
Br1   Br    Br    0.277660 0.693103 0.886967 -0.260587
Br2   Br    Br    0.217574 0.402460 0.937945 -0.341283
Br3   Br    Br    0.681368 0.835516 0.634549 -0.277654
Br4   Br    Br    0.681351 0.167937 0.634821 -0.244738
C1    C     C_R   0.262387 0.499600 0.499915 0.596742
C2    C     C_R   0.935558 0.597839 0.546894 -0.085651
C3    C     C_R   0.869594 0.501526 0.499632 -0.053817
C4    C     C_R   0.127150 0.499836 0.499847 -0.010978
C5    C     C_R   0.432782 0.072959 0.441926 0.036560
C6    C     C_R   0.431323 0.925907 0.442616 0.034775
C7    C     C_R   0.500711 0.500351 0.340851 0.552173
C8    C     C_R   0.572321 0.926965 0.556106 0.289683
C9    C     C_R   0.572097 0.074283 0.556290 0.295917
C10   C     C_R   0.736600 0.500610 0.500167 0.551466
C11   C     C_R   0.500581 0.499608 0.659219 0.592089
C12   C     C_3   0.630884 0.476917 0.954437 0.295341
C13   C     C_3   0.406544 0.623489 0.045972 0.093235
C14   C     C_3   0.417637 0.366355 0.052440 0.064943
C15   C     C_3   0.398687 0.371391 0.951416 0.203482
C16   C     C_3   0.431883 0.640727 0.948135 0.234650
C17   C     C_1   0.497257 0.498158 0.748640 0.161009
C18   C     C_3   0.485528 0.501033 0.083287 -0.137151
C19   C     C_3   0.489588 0.495323 0.916036 -0.081855
C20   C     C_3   0.620920 0.510132 0.050446 -0.203865
C21   C     C_1   0.493233 0.496067 0.824033 0.138953
C22   C     C_1   0.491826 0.502918 0.175898 0.107239
C23   C     C_1   0.497184 0.501432 0.251395 0.124940
C24   C     C_R   0.057881 0.404944 0.449271 0.172288
C25   C     C_R   0.063698 0.596960 0.549608 0.207797
C26   C     C_R   0.929994 0.404917 0.452141 -0.088405
Cu1   Cu    Cu3+1 0.500020 0.640660 0.500000 1.096054
Cu2   Cu    Cu3+1 0.500020 0.359340 0.500000 1.133090
H1    H     H_    0.308516 0.591275 0.049032 0.173826
H2    H     H_    0.258780 0.934954 0.118734 0.387025
H3    H     H_    0.263074 0.132130 0.981111 0.379079
H4    H     H_    0.462609 0.872556 0.797301 0.385217
H5    H     H_    0.932021 0.550465 0.843716 0.408098
H6    H     H_    0.889668 0.236620 0.968293 0.408840
H7    H     H_    0.214152 0.434171 0.300341 0.347917
H8    H     H_    0.300060 0.713362 0.699238 0.382636
H9    H     H_    0.324387 0.375962 0.079241 0.170307
H10   H     H_    0.655132 0.615429 0.063840 0.200677
H11   H     H_    0.682671 0.443023 0.088730 0.211634
H12   H     H_    0.876325 0.331344 0.415319 0.191602
H13   H     H_    0.886351 0.671117 0.583998 0.213927
H14   H     H_    0.380906 0.126226 0.393448 0.203342
H15   H     H_    0.375572 0.871733 0.395983 0.167508
H16   H     H_    0.383007 0.113518 0.222758 0.378774
N1    N     N_R   0.500030 0.852070 0.500020 -0.252837
N2    N     N_R   0.500030 0.147930 0.500020 -0.260262
O1    O     O_R   0.319660 0.618740 0.500000 -0.463857
O2    O     O_2   0.583815 0.227632 0.153976 -0.237624
O3    O     O_3   0.354054 0.193693 0.189586 -0.502435
O4    O     O_2   0.348773 0.732732 0.197932 -0.333118
O5    O     O_2   0.518027 0.844134 0.123712 -0.167689
O6    O     O_3   0.288509 0.880276 0.070923 -0.402974
O7    O     O_2   0.345837 0.255811 0.799373 -0.206350
O8    O     O_2   0.504982 0.137044 0.875612 -0.112149
O9    O     O_3   0.278703 0.106542 0.922155 -0.358901
O10   O     O_2   0.433873 0.913005 0.947227 -0.091119
O11   O     O_2   0.633968 0.819899 0.969960 -0.130184
O12   O     O_R   0.319660 0.381260 0.500000 -0.435000
O13   O     O_3   0.531991 0.815554 0.818156 -0.433984
O14   O     O_2   0.712807 0.669743 0.833419 -0.179419
O15   O     O_2   0.823575 0.667207 0.969359 -0.193131
O16   O     O_3   0.865990 0.484798 0.859789 -0.393973
O17   O     O_2   0.645092 0.194772 0.994601 -0.137612
O18   O     O_2   0.710700 0.268318 0.855133 -0.163341
O19   O     O_3   0.847569 0.320551 0.987097 -0.428848
O20   O     O_2   0.161139 0.161519 0.429997 -0.224593
O21   O     O_2   0.030359 0.241199 0.313459 -0.230388
O22   O     O_3   0.246402 0.353596 0.331655 -0.497454
O23   O     O_R   0.500020 0.618840 0.379440 -0.504897
O24   O     O_2   0.192165 0.831834 0.568510 -0.238214
O25   O     O_2   0.046845 0.774040 0.679377 -0.181533
O26   O     O_3   0.249671 0.637532 0.674683 -0.494749
O27   O     O_R   0.500020 0.381160 0.379440 -0.477836
O28   O     O_R   0.680370 0.618830 0.500010 -0.487291
O29   O     O_R   0.680370 0.381170 0.500010 -0.486507
O30   O     O_R   0.500010 0.618730 0.620560 -0.469700
O31   O     O_R   0.500010 0.381270 0.620560 -0.457287
O32   O     O_2   0.454040 0.089067 0.059999 -0.121650
S1    S     S_3+6 0.457905 0.214146 0.113061 0.063735
S2    S     S_3+6 0.394781 0.773808 0.112668 0.079769
S3    S     S_3+6 0.388820 0.215052 0.886480 0.175289
S4    S     S_3+6 0.514398 0.798139 0.922983 0.191776
S5    S     S_3+6 0.756542 0.580885 0.904401 0.149664
S6    S     S_3+6 0.703008 0.308339 0.946274 0.147972
S7    S     S_3+6 0.123361 0.285507 0.379730 0.050380
S8    S     S_3+6 0.137665 0.716064 0.619013 0.091476

loop_
_geom_bond_atom_site_label_1
_geom_bond_atom_site_label_2
_ccdc_geom_bond_type
H2    O6    S    
C2    H13   S    
C20   H10   S    
O4    S2    D    
C8    N1    A    
Cu1   O30   S    
C11   O31   A    
Cu2   O31   S    
C22   C23   T    
C4    C25   A    
Cu1   O23   S    
C13   C16   S    
H3    O9    S    
C14   C15   S    
Br4   C9    S    
Br3   C8    S    
C7    O27   A    
O25   S8    D    
Cu2   O27   S    
C3    C10   S    
C11   O30   A    
C16   S4    S    
C12   S5    S    
H7    O22   S    
O6    S2    S    
C24   S7    S    
H4    O13   S    
C5    C6    A    
O14   S5    D    
C19   C21   S    
H6    O19   S    
C5    H14   S    
C12   C20   S    
C3    C26   A    
C26   H12   S    
C13   H1    S    
Cu1   N1    S    
C25   S8    S    
O15   S5    D    
H16   O3    S    
C7    O23   A    
C14   H9    S    
O16   S5    S    
O10   S4    D    
H8    O26   S    
O2    S1    D    
C15   C19   S    
O9    S3    S    
Cu1   Cu2   S    
O21   S7    D    
C16   C19   S    
C7    C23   S    
H5    O16   S    
C14   S1    S    
O17   S6    D    
C10   O29   A    
Cu2   N2    S    
O19   S6    S    
C12   C19   S    
O13   S4    S    
C4    C24   A    
C18   C20   S    
O20   S7    D    
O8    S3    D    
Cu1   O28   S    
C17   C21   T    
Br1   C16   S    
Br2   C15   S    
C14   C18   S    
C5    N2    A    
Cu1   O1    S    
C15   S3    S    
C1    C4    S    
C2    C3    A    
C13   C18   S    
O3    S1    S    
C13   S2    S    
O24   S8    D    
C24   C26   A    
Cu2   O12   S    
Cu2   O29   S    
O22   S7    S    
O18   S6    D    
O7    S3    D    
C1    O12   A    
C10   O28   A    
O11   S4    D    
C9    N2    A    
C11   C17   S    
C2    C25   A    
C8    C9    A    
O32   S1    D    
C18   C22   S    
C6    H15   S    
C12   S6    S    
C20   H11   S    
C1    O1    A    
O5    S2    D    
C6    N1    A    
O26   S8    S    
