data_mof_unit_40246.cif
_audit_creation_date              2012-12-10T17:54:23-0500
_audit_creation_method            fapswitch 2.2
_symmetry_space_group_name_H-M    P1
_symmetry_Int_Tables_number       1
_space_group_crystal_system       triclinic
_cell_length_a                    27.726353
_cell_length_b                    10.619443
_cell_length_c                    9.903908
_cell_angle_alpha                 89.806744
_cell_angle_beta                  89.964472
_cell_angle_gamma                 91.85668
_cell_volume                      2914.54276713

loop_
_atom_site_label
_atom_site_type_symbol
_atom_type_description
_atom_site_fract_x
_atom_site_fract_y
_atom_site_fract_z
_atom_type_partial_charge
C1    C     C_R   0.501529 0.260763 0.500235 0.851630
C2    C     C_R   0.277767 0.477412 0.379005 -0.101725
C3    C     C_R   0.252912 0.484453 0.501348 0.323935
C4    C     C_R   0.101634 0.480863 0.503247 -0.051795
C5    C     C_R   0.126149 0.367894 0.486083 -0.020624
C6    C     C_R   0.099941 0.254660 0.469554 -0.137018
C7    C     C_R   0.128342 0.594870 0.519634 -0.022260
C8    C     C_R   0.353387 0.494439 0.500347 -0.041272
C9    C     C_R   0.646318 0.489144 0.500196 -0.149834
C10   C     C_R   0.973097 0.362174 0.500730 0.046403
C11   C     C_R   0.975444 0.594919 0.508906 0.047214
C12   C     C_R   0.406086 0.498922 0.500048 0.860587
C13   C     C_R   0.949031 0.478139 0.505082 0.071410
C14   C     C_R   0.945065 0.248482 0.505565 -0.214550
C15   C     C_R   0.895064 0.248891 0.508275 -0.136373
C16   C     C_R   0.871123 0.362414 0.506770 -0.022920
C17   C     C_R   0.897932 0.477366 0.505504 -0.052505
C18   C     C_R   0.873522 0.591598 0.504501 -0.025798
C19   C     C_R   0.823090 0.588782 0.504247 0.515151
C20   C     C_R   0.820675 0.363928 0.507594 0.510514
C21   C     C_R   0.721236 0.437541 0.390377 -0.196310
C22   C     C_R   0.671067 0.441783 0.387230 0.439788
C23   C     C_R   0.501726 0.739490 0.499740 0.879200
C24   C     C_R   0.672124 0.525454 0.616334 -0.299414
C25   C     C_R   0.721992 0.518785 0.619033 -0.101498
C26   C     C_R   0.746548 0.476006 0.505801 0.255980
C27   C     C_R   0.024142 0.363507 0.492719 0.046558
C28   C     C_R   0.050536 0.479874 0.504002 0.070699
C29   C     C_R   0.026451 0.595315 0.516004 0.046225
C30   C     C_R   0.049917 0.252244 0.472564 -0.215548
C31   C     C_R   0.104377 0.707075 0.537307 -0.135333
C32   C     C_R   0.949743 0.707789 0.504165 -0.214319
C33   C     C_R   0.899760 0.705872 0.502333 -0.137482
C34   C     C_R   0.593846 0.498055 0.499887 0.862407
C35   C     C_R   0.054413 0.707538 0.535905 -0.215639
C36   C     C_R   0.580865 0.137589 0.633092 -0.205747
C37   C     C_R   0.617945 0.074766 0.696913 -0.122320
C38   C     C_R   0.618204 0.943782 0.695661 -0.120736
C39   C     C_R   0.581362 0.875176 0.630663 -0.188610
C40   C     C_R   0.543055 0.937434 0.567146 0.095270
C41   C     C_R   0.542834 0.069405 0.568163 0.089514
C42   C     C_R   0.504992 0.128790 0.500259 -0.098958
C43   C     C_R   0.469606 0.061931 0.428374 -0.215153
C44   C     C_R   0.469764 0.933432 0.427709 -0.196410
C45   C     C_R   0.176636 0.371182 0.485227 0.503643
C46   C     C_R   0.505327 0.872097 0.498849 -0.104037
C47   C     C_R   0.436709 0.334415 0.140846 -0.163706
C48   C     C_R   0.405584 0.252686 0.070935 -0.197002
C49   C     C_R   0.405590 0.252647 0.931165 -0.183168
C50   C     C_R   0.436739 0.334303 0.860507 -0.154193
C51   C     C_R   0.468822 0.418324 0.928005 0.166911
C52   C     C_R   0.468818 0.418385 0.072656 0.156363
C53   C     C_R   0.529984 0.577738 0.071194 -0.097327
C54   C     C_R   0.529964 0.577734 0.928008 -0.111730
C55   C     C_R   0.178742 0.593734 0.518801 0.505299
C56   C     C_R   0.277987 0.495739 0.623223 -0.102942
C57   C     C_R   0.328094 0.500437 0.622964 -0.215646
C58   C     C_R   0.327896 0.482506 0.378282 -0.223675
H1    H     H_    0.346581 0.476965 0.282515 0.166598
H2    H     H_    0.258554 0.501217 0.717797 0.138444
H3    H     H_    0.124173 0.795553 0.552466 0.191885
H4    H     H_    0.967116 0.799817 0.498572 0.137425
H5    H     H_    0.653828 0.560914 0.704397 0.178929
H6    H     H_    0.881753 0.794889 0.499069 0.188688
H7    H     H_    0.741729 0.548499 0.708350 0.154340
H8    H     H_    0.038862 0.797558 0.553882 0.139724
H9    H     H_    0.441180 0.109460 0.375301 0.147908
H10   H     H_    0.582879 0.239341 0.633415 0.154915
H11   H     H_    0.646839 0.127957 0.746186 0.150680
H12   H     H_    0.258166 0.468928 0.284758 0.138758
H13   H     H_    0.647306 0.895171 0.743932 0.146312
H14   H     H_    0.583721 0.773769 0.628974 0.143049
H15   H     H_    0.441398 0.881389 0.374422 0.161960
H16   H     H_    0.554470 0.641246 0.124746 0.159965
H17   H     H_    0.434439 0.329070 0.247907 0.200651
H18   H     H_    0.381276 0.189095 0.125740 0.156820
H19   H     H_    0.381283 0.189016 0.876961 0.160963
H20   H     H_    0.434578 0.328798 0.753432 0.204900
H21   H     H_    0.554423 0.641293 0.873848 0.144333
H22   H     H_    0.118010 0.166892 0.454103 0.190040
H23   H     H_    0.740600 0.405210 0.302704 0.158034
H24   H     H_    0.875219 0.159330 0.511571 0.190688
H25   H     H_    0.960596 0.156953 0.510375 0.137999
H26   H     H_    0.032558 0.161514 0.455635 0.139037
H27   H     H_    0.346921 0.509183 0.718437 0.168002
N1    N     N_R   0.201579 0.482982 0.501682 -0.358851
N2    N     N_R   0.797936 0.476074 0.506205 -0.344842
N3    N     N_R   0.499540 0.498800 0.142780 -0.131711
N4    N     N_R   0.499520 0.498720 0.857170 -0.122703
O1    O     O_R   0.500000 0.316780 0.614690 -0.637831
O2    O     O_2   0.794477 0.254553 0.510427 -0.564539
O3    O     O_2   0.204845 0.702279 0.534210 -0.550182
O4    O     O_2   0.799250 0.697632 0.501142 -0.554223
O5    O     O_R   0.500000 0.316750 0.385360 -0.641293
O6    O     O_R   0.428760 0.500030 0.614650 -0.635828
O7    O     O_R   0.428750 0.500010 0.385320 -0.638850
O8    O     O_R   0.500000 0.683250 0.614640 -0.613482
O9    O     O_R   0.500000 0.683220 0.385310 -0.612450
O10   O     O_R   0.571250 0.499990 0.614680 -0.641235
O11   O     O_R   0.571240 0.499970 0.385350 -0.568736
O12   O     O_2   0.200703 0.263789 0.468935 -0.553723
Zn1   Zn    Zn3+2 0.500000 0.500020 0.653130 0.932093
Zn2   Zn    Zn3+2 0.500000 0.499980 0.346870 0.945265
O13   O     O_3   0.646868 0.405761 0.270879 -0.630602
C59   C     C_3   0.634413 0.275975 0.279869 0.100976
H28   H     H_    0.614610 0.253433 0.375445 0.126493
H29   H     H_    0.667529 0.219461 0.275101 0.149928
C60   C     C_3   0.601541 0.239875 0.161348 -0.299415
H30   H     H_    0.568713 0.297122 0.164575 0.248310
H31   H     H_    0.620749 0.260406 0.064801 0.219524
C61   C     C_3   0.586373 0.100490 0.165887 -0.937944
H32   H     H_    0.618565 0.041169 0.159879 0.265012
H33   H     H_    0.562409 0.077819 0.078909 0.271518
H34   H     H_    0.566413 0.078179 0.260647 0.277151

loop_
_geom_bond_atom_site_label_1
_geom_bond_atom_site_label_2
_ccdc_geom_bond_type
C10   C27   A    
C21   C26   A    
C1    O1    A    
C37   H11   S    
N4    Zn1   S    
C41   C42   A    
C48   H18   S    
C61   H32   S    
C7    C55   A    
C53   C54   A    
C56   C57   A    
C40   C46   A    
C59   H29   S    
C37   C38   A    
C36   C37   A    
C19   N2    A    
C49   H19   S    
C5    C6    A    
C9    C22   A    
O9    Zn2   S    
C20   N2    A    
C22   O13   S    
C60   H30   S    
C18   C19   A    
C31   H3    S    
O1    Zn1   S    
C8    C58   A    
C53   H16   S    
C60   H31   S    
C16   C17   A    
C34   O11   A    
C39   H14   S    
C12   O6    A    
C61   H34   S    
O8    Zn1   S    
C19   O4    S    
O6    Zn1   S    
C8    C12   S    
C23   C46   S    
C21   C22   A    
C3    N1    S    
C36   C41   A    
C14   H25   S    
C4    C7    A    
C50   H20   S    
O13   C59   S    
C4    C28   A    
C44   C46   A    
C17   C18   A    
C15   H24   S    
C59   C60   S    
C7    C31   A    
C51   C52   A    
C52   N3    A    
C25   H7    S    
C24   C25   A    
C54   N4    A    
C10   C14   A    
C39   C40   A    
C27   C30   A    
C26   N2    S    
C35   H8    S    
C58   H1    S    
C5    C45   A    
O11   Zn2   S    
C56   H2    S    
C43   C44   A    
C55   O3    S    
C8    C57   A    
C3    C56   A    
C1    C42   S    
C6    H22   S    
C47   C48   A    
C16   C20   A    
C23   O9    A    
C36   H10   S    
C50   C51   A    
C61   H33   S    
C45   O12   S    
C40   C41   A    
C6    C30   A    
C21   H23   S    
O5    Zn2   S    
C24   H5    S    
C9    C34   S    
C31   C35   A    
C42   C43   A    
N3    Zn2   S    
C54   H21   S    
C38   H13   S    
C28   C29   A    
C23   O8    A    
C4    C5    A    
C10   C13   A    
C1    O5    A    
C2    C58   A    
C9    C24   A    
C47   C52   A    
C34   O10   A    
C59   H28   S    
C29   C35   A    
C60   C61   S    
C13   C17   A    
C32   C33   A    
C55   N1    A    
C2    C3    A    
C25   C26   A    
C47   H17   S    
C51   N4    A    
C11   C13   A    
C38   C39   A    
C33   H6    S    
C48   C49   A    
C57   H27   S    
C45   N1    A    
C53   N3    A    
C30   H26   S    
C44   H15   S    
C18   C33   A    
C32   H4    S    
C20   O2    S    
O10   Zn1   S    
C11   C29   A    
C43   H9    S    
C49   C50   A    
O7    Zn2   S    
C27   C28   A    
C14   C15   A    
C12   O7    A    
C2    H12   S    
C15   C16   A    
C11   C32   A    
