data_mof_unit_40621.cif
_audit_creation_date              2013-03-05T15:42:08-0500
_audit_creation_method            fapswitch 2.2
_symmetry_space_group_name_H-M    P1
_symmetry_Int_Tables_number       1
_space_group_crystal_system       triclinic
_cell_length_a                    21.934572
_cell_length_b                    7.205487
_cell_length_c                    14.917118
_cell_angle_alpha                 89.715996
_cell_angle_beta                  107.237711
_cell_angle_gamma                 89.904626
_cell_volume                      2251.70301859

loop_
_atom_site_label
_atom_site_type_symbol
_atom_site_description
_atom_site_fract_x
_atom_site_fract_y
_atom_site_fract_z
_atom_type_partial_charge
O1    O     O_R   0.584770 0.505770 0.002090 -0.547240
O2    O     O_R   0.415230 0.005770 0.997910 -0.556969
O3    O     O_R   0.467060 0.173340 0.861950 -0.551174
O4    O     O_R   0.532940 0.673340 0.138050 -0.542735
C1    C     C_R   0.455081 0.345052 0.825884 0.814648
C2    C     C_R   0.544871 0.843512 0.174220 0.818505
O5    O     O_R   0.587510 0.175890 0.993210 -0.562738
O6    O     O_R   0.412490 0.675890 0.006790 -0.555198
O7    O     O_R   0.536540 0.008150 0.130100 -0.553798
O8    O     O_R   0.463460 0.508150 0.869900 -0.540340
C3    C     C_R   0.612988 0.344829 0.997543 0.840176
C4    C     C_R   0.387000 0.845002 0.002431 0.847794
O9    O     O_3   0.483140 0.340040 0.044760 -0.279731
O10   O     O_3   0.516860 0.840040 0.955240 -0.276850
V1    V     V_3+5 0.503130 0.064190 0.991700 1.202758
V2    V     V_3+5 0.496870 0.564190 0.008300 1.221114
C5    C     C_2   0.213819 0.727035 0.002033 -0.043140
C6    C     C_2   0.786308 0.227458 0.997728 -0.053214
C7    C     C_2   0.180237 0.886416 0.995776 -0.179749
C8    C     C_2   0.819728 0.386797 0.004134 -0.169741
H1    H     H_    0.190664 0.595993 0.007159 0.112827
H2    H     H_    0.809616 0.096603 0.992496 0.115112
H3    H     H_    0.201816 0.018850 0.989276 0.089032
H4    H     H_    0.798017 0.519074 0.010703 0.097971
C9    C     C_2   0.281701 0.714337 0.001647 -0.009629
C10   C     C_2   0.718435 0.214314 0.998072 -0.051643
C11   C     C_2   0.319879 0.861398 0.003337 -0.161140
C12   C     C_2   0.680090 0.361207 0.996608 -0.147941
H5    H     H_    0.300770 0.575409 0.000715 0.121673
H6    H     H_    0.699527 0.075290 0.998784 0.121243
H7    H     H_    0.302098 0.001164 0.005095 0.080212
H8    H     H_    0.697748 0.501046 0.995056 0.097882
C13   C     C_R   0.926564 0.887071 0.723582 -0.084369
C14   C     C_R   0.073457 0.386675 0.276412 -0.084498
C15   C     C_R   0.572316 0.844887 0.276274 -0.094442
C16   C     C_R   0.427499 0.359147 0.724157 -0.091655
C17   C     C_R   0.937563 0.886231 0.567662 0.009463
C18   C     C_R   0.062252 0.397658 0.432112 0.009810
C19   C     C_R   0.964839 0.899641 0.664274 -0.050373
C20   C     C_R   0.034803 0.389129 0.335379 -0.050405
C21   C     C_R   0.860719 0.863888 0.686279 -0.066866
C22   C     C_R   0.139770 0.391244 0.314157 -0.068205
C23   C     C_R   0.831451 0.847971 0.588169 0.029301
C24   C     C_R   0.169213 0.405947 0.412274 0.029330
C25   C     C_R   0.871140 0.860490 0.528368 -0.080662
C26   C     C_R   0.129191 0.406916 0.471802 -0.080634
C27   C     C_R   0.764276 0.821684 0.548206 -0.054443
C28   C     C_R   0.236819 0.419830 0.452435 -0.055291
C29   C     C_R   0.736985 0.822124 0.448763 -0.088309
C30   C     C_R   0.263944 0.418119 0.551850 -0.087939
C31   C     C_R   0.778773 0.809837 0.391581 0.285357
C32   C     C_R   0.222516 0.442077 0.608899 0.285721
C33   C     C_R   0.844781 0.837403 0.430961 0.296564
C34   C     C_R   0.155981 0.428275 0.569259 0.295375
C35   C     C_R   0.723713 0.790024 0.604800 -0.093141
C36   C     C_R   0.278069 0.441513 0.396079 -0.092773
C37   C     C_R   0.657885 0.769789 0.566885 0.343906
C38   C     C_R   0.344241 0.449657 0.434247 0.345886
C39   C     C_R   0.629784 0.788155 0.469446 -0.032960
C40   C     C_R   0.371808 0.427938 0.531664 -0.034568
C41   C     C_R   0.668797 0.826632 0.410514 0.043803
C42   C     C_R   0.331831 0.400170 0.590248 0.044763
C43   C     C_R   0.563487 0.764188 0.429005 0.003746
C44   C     C_R   0.438595 0.436835 0.572419 0.006426
C45   C     C_R   0.535535 0.786948 0.332930 -0.069550
C46   C     C_R   0.465899 0.407089 0.668220 -0.066609
C47   C     C_R   0.637804 0.872746 0.315540 -0.019399
C48   C     C_R   0.361389 0.349116 0.684875 -0.016088
H9    H     H_    0.663716 0.927814 0.270207 0.117319
H10   H     H_    0.333962 0.300817 0.729591 0.114760
H11   H     H_    0.485074 0.759439 0.302633 0.134094
H12   H     H_    0.517067 0.420562 0.698698 0.125106
H13   H     H_    0.969231 0.893771 0.524256 0.144661
H14   H     H_    0.030361 0.401436 0.475234 0.145533
H15   H     H_    0.015979 0.917618 0.692871 0.130156
H16   H     H_    0.983303 0.386855 0.306396 0.133232
H17   H     H_    0.833971 0.862159 0.736267 0.046937
H18   H     H_    0.166644 0.383262 0.264462 0.046582
H19   H     H_    0.741752 0.776021 0.679850 0.110271
H20   H     H_    0.260349 0.457116 0.321060 0.109882
H21   H     H_    0.532948 0.721608 0.470409 0.138221
H22   H     H_    0.470235 0.471160 0.531397 0.137955
O11   O     O_R   0.036450 0.233070 0.130130 -0.554524
O12   O     O_R   0.963550 0.733070 0.869870 -0.552470
O13   O     O_R   0.912470 0.560570 0.006790 -0.553392
O14   O     O_R   0.087530 0.060570 0.993210 -0.555224
C49   C     C_R   0.887004 0.391987 0.002706 0.829742
C50   C     C_R   0.112988 0.891781 0.997259 0.831846
O15   O     O_R   0.032920 0.562940 0.138050 -0.550788
O16   O     O_R   0.967080 0.062940 0.861950 -0.553481
O17   O     O_R   0.084790 0.730500 0.002090 -0.559299
O18   O     O_R   0.915210 0.230500 0.997910 -0.560099
C51   C     C_R   0.044983 0.394024 0.174598 0.814390
C52   C     C_R   0.954989 0.894881 0.825369 0.814542
O19   O     O_3   0.016820 0.396170 0.955260 -0.275044
O20   O     O_3   0.983180 0.896170 0.044740 -0.274931
V3    V     V_3+5 0.996880 0.672090 0.008300 1.190062
V4    V     V_3+5 0.003120 0.172090 0.991700 1.186758
N1    N     N_R   0.756492 0.743405 0.296716 0.092283
O21   O     O_R   0.725444 0.587558 0.278726 -0.357893
O22   O     O_R   0.769912 0.832836 0.228936 -0.320067
N2    N     N_R   0.246379 0.506855 0.703924 0.092123
O23   O     O_R   0.230559 0.423719 0.771413 -0.322952
O24   O     O_R   0.281425 0.655494 0.722353 -0.360494
N3    N     N_R   0.885675 0.829873 0.371724 0.108512
O25   O     O_R   0.910884 0.981255 0.350845 -0.347364
O26   O     O_R   0.896435 0.672415 0.336758 -0.327100
N4    N     N_R   0.115289 0.448181 0.628275 0.108516
O27   O     O_R   0.085795 0.304498 0.648258 -0.351178
O28   O     O_R   0.108644 0.609161 0.663438 -0.323214
N5    N     N_R   0.620160 0.738750 0.629627 0.069883
O29   O     O_R   0.573540 0.851382 0.628765 -0.369491
O30   O     O_R   0.639444 0.620371 0.698464 -0.381485
N6    N     N_R   0.382619 0.471284 0.371699 0.068832
O31   O     O_R   0.426582 0.349438 0.372191 -0.370356
O32   O     O_R   0.365815 0.590705 0.302972 -0.385603

loop_
_geom_bond_atom_site_label_1
_geom_bond_atom_site_label_2
_geom_bond_distance
_ccdc_geom_bond_type
C43   C45   1.390433 A    
N5    O29   1.301484 A    
C14   C22   1.395998 A    
C14   C51   1.461660 S    
O2    C4    1.325241 A    
C13   C52   1.461937 S    
C2    O7    1.339445 A    
N6    O31   1.301421 A    
O19   V4    1.755694 S    
O18   V4    2.001871 S    
C27   C29   1.425649 A    
C2    C15   1.461873 S    
O5    C3    1.334129 A    
N3    O26   1.301127 A    
C32   N2    1.438319 S    
C13   C19   1.391190 A    
C43   H21   1.080903 S    
C14   C20   1.391041 A    
O12   V3    2.021601 S    
C21   H17   1.076858 S    
C16   C46   1.392728 A    
C37   C39   1.406044 A    
C15   C45   1.393259 A    
C38   C40   1.406591 A    
O11   C51   1.324703 A    
C1    C16   1.460553 S    
O14   C50   1.331031 A    
N4    O27   1.301040 A    
C40   C42   1.423253 A    
C46   H12   1.083586 S    
C8    H4    1.082547 S    
C32   C34   1.406783 A    
C29   C31   1.428100 A    
O11   V4    2.026574 S    
C6    C10   1.493456 S    
C30   C32   1.427952 A    
C19   H15   1.083722 S    
C36   C38   1.394683 A    
C28   C30   1.424870 A    
C25   C33   1.406439 A    
O6    V2    2.010985 S    
C49   O18   1.329100 A    
C9    H5    1.086013 S    
C21   C23   1.418530 A    
C22   C24   1.418456 A    
C24   C26   1.421710 A    
O16   C52   1.325270 A    
O13   C49   1.331956 A    
C31   N1    1.438092 S    
C39   C41   1.423438 A    
C29   C41   1.434417 A    
C4    C11   1.480854 S    
C11   H7    1.082603 S    
C12   H8    1.082681 S    
O4    C2    1.336804 A    
C7    C50   1.482249 S    
C45   H11   1.083415 S    
C5    H1    1.085935 S    
C20   H16   1.083485 S    
O15   V3    2.016343 S    
C47   H9    1.078731 S    
C44   C46   1.391461 A    
O4    V2    2.024906 S    
C7    H3    1.082508 S    
C35   H19   1.075323 S    
C41   C47   1.415431 A    
N1    O21   1.301552 A    
C50   O17   1.328990 A    
C15   C47   1.396506 A    
O6    C4    1.333065 A    
O20   V3    1.759725 S    
C26   C34   1.406659 A    
N5    O30   1.301379 A    
O1    V2    2.001671 S    
O12   C52   1.324019 A    
O17   V3    2.003027 S    
N2    O24   1.301540 A    
O2    V1    2.002830 S    
C23   C25   1.421813 A    
C44   H22   1.080749 S    
N1    O22   1.301819 A    
C10   H6    1.086034 S    
C35   C37   1.394106 A    
C30   C42   1.433621 A    
C17   C25   1.412979 A    
O3    V1    2.016412 S    
C27   C35   1.414317 A    
C18   H14   1.081962 S    
C28   C36   1.414124 A    
C17   H13   1.082160 S    
C6    H2    1.085932 S    
C10   C12   1.346884 D    
O3    C1    1.340840 A    
N6    O32   1.301371 A    
C16   C48   1.395905 A    
C22   H18   1.076863 S    
C42   C48   1.414152 A    
C9    C11   1.347400 D    
N3    O25   1.301256 A    
C39   C43   1.410809 A    
C36   H20   1.075565 S    
C34   N4    1.434839 S    
C40   C44   1.411623 A    
C13   C21   1.396031 A    
O7    V1    2.014061 S    
C5    C9    1.493317 S    
C1    O8    1.335231 A    
C17   C19   1.390981 A    
O8    V2    2.018647 S    
C18   C20   1.390879 A    
C8    C49   1.482645 S    
C37   N5    1.438150 S    
C3    C12   1.480960 S    
O5    V1    2.013535 S    
C5    C7    1.351124 D    
N4    O28   1.301003 A    
C6    C8    1.351681 D    
O15   C51   1.324950 A    
N2    O23   1.301750 A    
O14   V4    2.011069 S    
C18   C26   1.412912 A    
O13   V3    2.013622 S    
C33   N3    1.434722 S    
C48   H10   1.078971 S    
O9    V2    1.756437 S    
C38   N6    1.438049 S    
O10   V1    1.760468 S    
O1    C3    1.325056 A    
C31   C33   1.406710 A    
C23   C27   1.429613 A    
O16   V4    2.024834 S    
C24   C28   1.429172 A    
