data_mof_unit_6314.cif
_audit_creation_date              2012-10-26T21:05:41-0400
_audit_creation_method            fapswitch 2.2
_symmetry_space_group_name_H-M    P1
_symmetry_Int_Tables_number       1
_space_group_crystal_system       triclinic
_cell_length_a                    13.452025
_cell_length_b                    9.100652
_cell_length_c                    8.235324
_cell_angle_alpha                 90.449942
_cell_angle_beta                  92.568154
_cell_angle_gamma                 91.216714
_cell_volume                      1006.90766381

loop_
_atom_site_label
_atom_site_type_symbol
_atom_type_description
_atom_site_fract_x
_atom_site_fract_y
_atom_site_fract_z
_atom_type_partial_charge
C1    C     C_R   0.499510 0.221593 0.500603 0.534963
C2    C     C_R   0.860841 0.469455 0.693009 0.124779
C3    C     C_R   0.130325 0.463846 0.581655 0.049153
C4    C     C_R   0.869673 0.536171 0.418350 0.049537
C5    C     C_R   0.023351 0.478117 0.572678 0.005058
C6    C     C_R   0.976649 0.521898 0.427322 0.006081
C7    C     C_1   0.499605 0.065541 0.500718 -0.021314
C8    C     C_1   0.500395 0.934459 0.499282 -0.021327
C9    C     C_R   0.500490 0.778407 0.499397 0.534921
C10   C     C_R   0.301423 0.499692 0.471310 0.558495
C11   C     C_R   0.698576 0.500311 0.528690 0.558391
C12   C     C_R   0.811070 0.500356 0.546368 0.022401
C13   C     C_R   0.188930 0.499647 0.453632 0.023158
C14   C     C_R   0.036236 0.546242 0.295338 0.099536
C15   C     C_R   0.963762 0.453776 0.704662 0.102029
C16   C     C_R   0.139158 0.530570 0.306991 0.124706
Cu1   Cu    Cu3+1 0.500010 0.500000 0.669080 1.089987
Cu2   Cu    Cu3+1 0.499990 0.500000 0.330920 1.089929
H1    H     H_    0.822356 0.673378 0.224855 0.266139
H2    H     H_    0.793669 0.466913 0.218763 0.293242
H3    H     H_    0.177685 0.326660 0.775048 0.264707
H4    H     H_    0.206249 0.533305 0.781239 0.292835
H5    H     H_    0.955429 0.657283 0.126528 0.267540
H6    H     H_    0.948378 0.467058 0.127159 0.301746
H7    H     H_    0.051628 0.532956 0.872796 0.299633
H8    H     H_    0.047954 0.342932 0.873452 0.263389
I1    I     I_    0.789921 0.473313 0.911069 -0.361869
I2    I     I_    0.210084 0.526547 0.088930 -0.363524
N1    N     N_1   0.499980 0.500000 0.076820 -0.055294
N2    N     N_1   0.500020 0.500000 0.923180 -0.055301
N3    N     N_3   0.814446 0.567380 0.274525 -0.622947
N4    N     N_3   0.185573 0.432600 0.725471 -0.623694
N5    N     N_3   0.992447 0.560394 0.138206 -0.598146
N6    N     N_3   0.007422 0.439527 0.861830 -0.590990
O1    O     O_R   0.500000 0.288400 0.642760 -0.493208
O2    O     O_R   0.500000 0.711600 0.357240 -0.493223
O3    O     O_R   0.500000 0.288400 0.357240 -0.496363
O4    O     O_R   0.500000 0.711600 0.642760 -0.496397
O5    O     O_R   0.349000 0.500000 0.619590 -0.486373
O6    O     O_R   0.651000 0.500000 0.380410 -0.486573
O7    O     O_R   0.348990 0.500000 0.334020 -0.477887
O8    O     O_R   0.651010 0.500000 0.665980 -0.477927

loop_
_geom_bond_atom_site_label_1
_geom_bond_atom_site_label_2
_ccdc_geom_bond_type
C16   I2    S    
C9    O2    A    
C11   C12   S    
C10   C13   S    
N1    N2    T    
Cu1   N2    S    
C4    C12   A    
C15   N6    S    
H6    N5    S    
C3    C13   A    
C1    O3    A    
H7    N6    S    
C2    I1    S    
C2    C12   A    
C14   N5    S    
Cu1   Cu2   S    
H1    N3    S    
C7    C8    T    
Cu2   N1    S    
C10   O7    A    
C2    C15   A    
C11   O6    A    
H4    N4    S    
C5    C6    A    
C9    O4    A    
Cu2   O3    S    
Cu1   O4    S    
C3    N4    S    
H3    N4    S    
C14   C16   A    
C5    C15   A    
C4    N3    S    
C6    C14   A    
C1    O1    A    
C11   O8    A    
C4    C6    A    
Cu1   O5    S    
C13   C16   A    
Cu2   O6    S    
Cu1   O8    S    
C10   O5    A    
Cu1   O1    S    
H5    N5    S    
C1    C7    S    
Cu2   O2    S    
H8    N6    S    
Cu2   O7    S    
C8    C9    S    
C3    C5    A    
H2    N3    S    
