data_mof_unit_29215.cif
_audit_creation_date              2013-03-05T16:15:19-0500
_audit_creation_method            fapswitch 2.2
_symmetry_space_group_name_H-M    P1
_symmetry_Int_Tables_number       1
_space_group_crystal_system       triclinic
_cell_length_a                    27.751942
_cell_length_b                    10.614943
_cell_length_c                    9.424898
_cell_angle_alpha                 89.749146
_cell_angle_beta                  90.103067
_cell_angle_gamma                 90.152378
_cell_volume                      2776.39537614

loop_
_atom_site_label
_atom_site_type_symbol
_atom_site_description
_atom_site_fract_x
_atom_site_fract_y
_atom_site_fract_z
_atom_type_partial_charge
O1    O     O_R   0.500020 0.316850 0.620870 -0.545589
O2    O     O_R   0.499980 0.683150 0.379130 -0.545411
O3    O     O_R   0.500000 0.316860 0.379090 -0.590291
O4    O     O_R   0.500000 0.683140 0.620910 -0.589928
C1    C     C_R   0.499999 0.259427 0.500344 0.802805
C2    C     C_R   0.500001 0.740572 0.499656 0.803392
O5    O     O_R   0.430270 0.500020 0.620880 -0.544822
O6    O     O_R   0.569730 0.499980 0.379120 -0.546644
O7    O     O_R   0.430250 0.500030 0.379090 -0.592191
O8    O     O_R   0.569750 0.499970 0.620910 -0.590880
C3    C     C_R   0.407469 0.499960 0.499878 0.813612
C4    C     C_R   0.592537 0.500035 0.500099 0.813559
Cu1   Cu    Cu3+1 0.500010 0.499990 0.643150 0.996374
Cu2   Cu    Cu3+1 0.499990 0.500010 0.356850 0.994611
C5    C     C_R   0.177227 0.395380 0.529556 0.594903
C6    C     C_R   0.822840 0.607120 0.488813 0.597927
O9    O     O_2   0.201924 0.294077 0.576576 -0.515860
O10   O     O_2   0.798312 0.716552 0.495103 -0.511281
N1    N     N_R   0.201478 0.502293 0.490034 -0.449610
N2    N     N_R   0.798447 0.495022 0.492444 -0.450001
C7    C     C_R   0.177632 0.605881 0.439478 0.622469
C8    C     C_R   0.822053 0.382300 0.484760 0.626273
C9    C     C_R   0.278952 0.491362 0.370245 -0.098080
C10   C     C_R   0.721012 0.488909 0.371882 -0.106851
C11   C     C_R   0.329031 0.489873 0.371181 -0.186424
C12   C     C_R   0.670940 0.490794 0.371976 -0.153348
C13   C     C_R   0.328656 0.513162 0.626832 -0.216843
C14   C     C_R   0.671415 0.506722 0.628361 -0.247061
C15   C     C_R   0.278001 0.516448 0.627461 0.007378
C16   C     C_R   0.722105 0.504817 0.630199 0.011442
C17   C     C_R   0.253137 0.504431 0.496805 0.272226
C18   C     C_R   0.746850 0.495677 0.499310 0.275319
C19   C     C_R   0.101488 0.496770 0.470593 -0.046723
C20   C     C_R   0.898361 0.493499 0.472233 -0.047767
C21   C     C_R   0.126755 0.390726 0.521091 -0.011961
C22   C     C_R   0.873274 0.608557 0.478358 -0.019873
C23   C     C_R   0.101074 0.283807 0.564593 -0.129034
C24   C     C_R   0.899097 0.721917 0.476745 -0.123057
C25   C     C_R   0.127168 0.605202 0.429210 -0.091544
C26   C     C_R   0.872524 0.379393 0.475771 -0.086824
C27   C     C_R   0.354364 0.500592 0.499379 -0.072218
C28   C     C_R   0.645652 0.499416 0.500138 -0.072881
H1    H     H_    0.348179 0.522760 0.725881 0.208575
H2    H     H_    0.651877 0.513249 0.727449 0.194624
H3    H     H_    0.119427 0.203031 0.609681 0.200920
H4    H     H_    0.880908 0.811550 0.487406 0.206256
C29   C     C_R   0.974529 0.376832 0.472334 -0.037378
C30   C     C_R   0.025225 0.605753 0.424800 -0.044225
C31   C     C_R   0.974658 0.608016 0.446781 0.067263
C32   C     C_R   0.025213 0.381380 0.493020 0.079007
C33   C     C_R   0.949295 0.492668 0.463231 0.030888
C34   C     C_R   0.050530 0.494534 0.462214 0.031145
C35   C     C_R   0.947627 0.262855 0.461245 0.344898
C36   C     C_R   0.051927 0.709050 0.368442 0.349040
C37   C     C_R   0.897395 0.265392 0.465773 -0.151946
C38   C     C_R   0.102148 0.708724 0.374260 -0.153345
O11   O     O_2   0.796723 0.273602 0.486729 -0.514898
O12   O     O_2   0.202715 0.709355 0.400177 -0.514892
C39   C     C_R   0.051122 0.279861 0.552417 -0.108384
C40   C     C_R   0.948983 0.721545 0.462639 -0.100455
H5    H     H_    0.652082 0.485102 0.271485 0.194581
H6    H     H_    0.347856 0.479712 0.271343 0.177445
H7    H     H_    0.740042 0.482373 0.271948 0.165410
H8    H     H_    0.259912 0.481805 0.270430 0.170242
H9    H     H_    0.877786 0.177227 0.458445 0.219453
H10   H     H_    0.121626 0.789192 0.332188 0.222729
H11   H     H_    0.033078 0.198961 0.597404 0.200420
H12   H     H_    0.967229 0.810999 0.472026 0.224493
C41   C     C_3   0.500035 0.039932 0.635120 -0.107050
C42   C     C_3   0.499964 0.960067 0.364887 -0.106821
C43   C     C_3   0.539610 0.957865 0.567038 -0.159208
C44   C     C_3   0.460389 0.042133 0.432969 -0.159592
H13   H     H_    0.571994 0.920126 0.621759 0.161745
H14   H     H_    0.428005 0.079872 0.378249 0.160218
H15   H     H_    0.500055 0.075244 0.745843 0.177260
H16   H     H_    0.499944 0.924755 0.254164 0.177391
C45   C     C_3   0.499999 0.877548 0.498865 -0.004659
C46   C     C_3   0.500000 0.122451 0.501140 -0.004616
C47   C     C_3   0.460424 0.957326 0.566816 -0.157918
C48   C     C_3   0.539575 0.042672 0.433190 -0.158104
H17   H     H_    0.428072 0.919165 0.621386 0.153648
H18   H     H_    0.571927 0.080831 0.378621 0.154161
C49   C     C_3   0.530331 0.580249 0.049228 0.505037
C50   C     C_3   0.469667 0.419754 0.950767 0.504892
C51   C     C_3   0.488497 0.610015 0.948595 -0.144839
C52   C     C_3   0.511501 0.389983 0.051401 -0.148393
H19   H     H_    0.479070 0.702698 0.901299 0.157709
H20   H     H_    0.520927 0.297297 0.098694 0.157808
N3    N     N_3   0.500040 0.499970 0.858290 -0.199295
N4    N     N_3   0.499960 0.500030 0.141710 -0.199613
C53   C     C_3   0.542228 0.471138 0.949716 -0.137837
C54   C     C_3   0.457772 0.528864 0.050282 -0.137668
H21   H     H_    0.577795 0.447463 0.903393 0.157641
H22   H     H_    0.422206 0.552546 0.096606 0.157524
Cl1   Cl    Cl    0.572265 0.691324 0.118640 -0.606253
Cl2   Cl    Cl    0.427702 0.308773 0.881314 -0.605355
C55   C     C_2   0.252312 0.534433 0.764566 0.889958
O13   O     O_2   0.273335 0.515015 0.876746 -0.584577
O14   O     O_R   0.204505 0.575639 0.766788 -0.749865
H23   H     H_    0.191385 0.584176 0.866605 0.347828
C56   C     C_2   0.747839 0.511940 0.769128 0.884184
O15   O     O_2   0.725594 0.539092 0.876718 -0.585831
O16   O     O_R   0.797168 0.486797 0.778800 -0.751169
H24   H     H_    0.810009 0.494851 0.879155 0.346330
Cl3   Cl    Cl    0.973146 0.116786 0.413773 -0.569914
Cl4   Cl    Cl    0.026054 0.829678 0.263805 -0.525919

loop_
_geom_bond_atom_site_label_1
_geom_bond_atom_site_label_2
_geom_bond_distance
_ccdc_geom_bond_type
C56   O15   1.223988 D    
C13   C15   1.406332 A    
N1    C17   1.435052 S    
C8    O11   1.349576 S    
C55   O13   1.223614 D    
C19   C34   1.416389 A    
O5    C3    1.303227 A    
C20   C33   1.416267 A    
C19   C25   1.406255 A    
C31   C40   1.410270 A    
O1    C1    1.291492 A    
C32   C39   1.410323 A    
N1    C7    1.368294 A    
C12   H5    1.083104 S    
C10   C12   1.389808 A    
C44   C47   1.546552 S    
C52   C53   1.542574 S    
C46   C48   1.531577 S    
C50   Cl2   1.780254 S    
C14   C28   1.405373 A    
O4    Cu1   1.954482 S    
C41   C43   1.545760 S    
Cu2   N4    2.027671 S    
C4    C28   1.474093 S    
C55   O14   1.398310 S    
C5    N1    1.368495 A    
O14   H23   1.013899 S    
C31   C33   1.418745 A    
C32   C34   1.419095 A    
C41   H15   1.110369 S    
N3    C53   1.484222 S    
C20   C22   1.408898 A    
O6    C4    1.303115 A    
C29   C35   1.424110 A    
C39   H11   1.078549 S    
C45   C47   1.531580 S    
C49   Cl1   1.780222 S    
C56   O16   1.398207 S    
Cu1   Cu2   2.698345 S    
C42   C45   1.533646 S    
C41   C46   1.533653 S    
O2    C2    1.291500 A    
C5    C21   1.403571 A    
C43   C48   1.546550 S    
C37   H9    1.083732 S    
C51   C54   1.542531 S    
C29   C32   1.420410 A    
C35   C37   1.395098 A    
C36   C38   1.394748 A    
C36   Cl4   1.766065 S    
C51   H19   1.110041 S    
C42   C48   1.545631 S    
C48   H18   1.110231 S    
C52   N4    1.484340 S    
C11   C27   1.401710 A    
C43   H13   1.110220 S    
C51   N3    1.484317 S    
C2    C45   1.453979 S    
C29   C33   1.418850 A    
C14   H2    1.083304 S    
C9    C17   1.400135 A    
C30   C36   1.423206 A    
O7    Cu2   1.947113 S    
C10   C18   1.399669 A    
C35   Cl3   1.766048 S    
C53   H21   1.109878 S    
C13   C27   1.405254 A    
N4    C54   1.484243 S    
C25   C38   1.398448 A    
C7    C25   1.403617 A    
C30   C34   1.418159 A    
C6    N2    1.367760 A    
C26   C37   1.398335 A    
C8    C26   1.403793 A    
C54   H22   1.109880 S    
O7    C3    1.303175 A    
C23   C39   1.391333 A    
O3    Cu2   1.954481 S    
O8    C4    1.303438 A    
C24   C40   1.391063 A    
C44   H14   1.110215 S    
C9    H8    1.083174 S    
C49   C51   1.530572 S    
N2    C8    1.367933 A    
C10   H7    1.083231 S    
C42   H16   1.110369 S    
C20   C26   1.406212 A    
C41   C47   1.545634 S    
O4    C2    1.292886 A    
O1    Cu1   1.956245 S    
C50   N3    1.479033 S    
C23   H3    1.083295 S    
C43   C45   1.531467 S    
C12   C28   1.401522 A    
C47   H17   1.110236 S    
N2    C18   1.433531 S    
C21   C23   1.398862 A    
C5    O9    1.349499 S    
C49   N4    1.479048 S    
C30   C31   1.419192 A    
O6    Cu2   1.946394 S    
Cu1   N3    2.027671 S    
C50   C52   1.530598 S    
O3    C1    1.292896 A    
O8    Cu1   1.947113 S    
C49   C53   1.530610 S    
C15   C55   1.490182 S    
C14   C16   1.407019 A    
C7    O12   1.349627 S    
C15   C17   1.416569 A    
C6    C22   1.403326 A    
C16   C18   1.416772 A    
C38   H10   1.083681 S    
C16   C56   1.492467 S    
C22   C24   1.398946 A    
C19   C21   1.408397 A    
C3    C27   1.473810 S    
C52   H20   1.110040 S    
C11   H6    1.083033 S    
C9    C11   1.389916 A    
O2    Cu2   1.956243 S    
C24   H4    1.083381 S    
C13   H1    1.083568 S    
O5    Cu1   1.946394 S    
C40   H12   1.078831 S    
C6    O10   1.349503 S    
C44   C46   1.531468 S    
O16   H24   1.014019 S    
C42   C44   1.545759 S    
C50   C54   1.530609 S    
C1    C46   1.453989 S    
