data_mof_unit_49205.cif
_audit_creation_date              2012-12-11T16:17:32-0500
_audit_creation_method            fapswitch 2.2
_symmetry_space_group_name_H-M    P1
_symmetry_Int_Tables_number       1
_space_group_crystal_system       triclinic
_cell_length_a                    6.924948
_cell_length_b                    28.782548
_cell_length_c                    32.062071
_cell_angle_alpha                 101.19605
_cell_angle_beta                  89.432629
_cell_angle_gamma                 90.680485
_cell_volume                      6268.28526761

loop_
_atom_site_label
_atom_site_type_symbol
_atom_type_description
_atom_site_fract_x
_atom_site_fract_y
_atom_site_fract_z
_atom_type_partial_charge
O1    O     O_R   0.494350 0.453160 0.452490 -0.538977
O2    O     O_R   0.820990 0.455850 0.538220 -0.510293
O3    O     O_R   0.994300 0.546840 0.547510 -0.537505
C1    C     C_R   0.651369 0.446406 0.552285 0.777015
O4    O     O_R   0.823860 0.447580 0.452250 -0.546300
O5    O     O_R   0.997190 0.538510 0.460920 -0.537665
C2    C     C_R   0.654831 0.434592 0.436406 0.721314
O6    O     O_R   0.491450 0.461490 0.539080 -0.538483
O7    O     O_3   0.661790 0.529840 0.502950 -0.370090
V1    V     V_3+5 0.935470 0.494460 0.499450 1.520870
O8    O     O_R   0.327090 0.544150 0.461780 -0.519620
C3    C     C_R   0.159903 0.553404 0.447499 0.786692
O9    O     O_R   0.324210 0.552420 0.547750 -0.546539
C4    C     C_R   0.155136 0.565409 0.563591 0.725968
V2    V     V_3+5 0.435840 0.505540 0.500550 1.510879
O10   O     O_3   0.159650 0.470160 0.497050 -0.367042
C5    C     C_R   0.963948 0.619213 0.620122 -0.122399
H1    H     H_    0.831109 0.603163 0.606392 0.121431
C6    C     C_R   0.952301 0.655150 0.656398 -0.112568
H2    H     H_    0.810991 0.665629 0.669379 0.135287
C7    C     C_R   0.120330 0.677094 0.675663 0.016790
C8    C     C_R   0.300525 0.662087 0.657490 -0.107329
H3    H     H_    0.433126 0.678101 0.671366 0.141555
C9    C     C_R   0.312222 0.626100 0.621147 -0.136820
H4    H     H_    0.453394 0.615458 0.608170 0.118677
C10   C     C_R   0.144011 0.604119 0.601951 -0.046346
N1    N     N_R   0.269206 0.736318 0.733391 -0.263196
N2    N     N_R   0.257347 0.770343 0.768080 -0.267995
C11   C     C_R   0.083097 0.784884 0.785466 0.530038
N3    N     N_R   0.921208 0.763796 0.766515 -0.263708
N4    N     N_R   0.933067 0.729769 0.731827 -0.269075
C12   C     C_R   0.107319 0.715227 0.714442 0.529270
C13   C     C_R   0.889878 0.838185 0.842303 -0.107142
H5    H     H_    0.757226 0.822360 0.828290 0.140543
C14   C     C_R   0.878224 0.874126 0.878682 -0.128656
H6    H     H_    0.737032 0.884933 0.891542 0.117616
C15   C     C_R   0.046508 0.895858 0.898056 -0.045530
C16   C     C_R   0.226593 0.880588 0.880012 -0.130796
H7    H     H_    0.359488 0.896449 0.893880 0.120308
C17   C     C_R   0.238199 0.844707 0.843694 -0.108537
H8    H     H_    0.379534 0.834078 0.830822 0.136196
C18   C     C_R   0.070104 0.822990 0.824264 0.016969
C19   C     C_R   0.066201 0.658109 0.284247 0.699582
N5    N     N_R   0.109237 0.677005 0.325819 -0.533133
C20   C     C_R   0.140673 0.724792 0.338652 0.734313
C21   C     C_R   0.127706 0.755469 0.309399 -0.123934
C22   C     C_R   0.090161 0.736438 0.266454 -0.013112
C23   C     C_R   0.060928 0.687195 0.253604 -0.035587
C24   C     C_R   0.153363 0.804548 0.322128 -0.133958
C25   C     C_R   0.140902 0.834881 0.292996 0.427185
C26   C     C_R   0.104722 0.816214 0.249292 -0.135785
C27   C     C_R   0.082595 0.766551 0.236259 -0.058149
C28   C     C_R   0.054101 0.746668 0.192961 -0.020157
C29   C     C_R   0.028155 0.697405 0.180467 -0.106294
C30   C     C_R   0.028992 0.668135 0.210462 -0.104015
C31   C     C_R   0.088741 0.844854 0.218001 0.672936
N6    N     N_R   0.063451 0.824708 0.175888 -0.558610
C32   C     C_R   0.052326 0.776469 0.163016 0.680929
O11   O     O_2   0.030014 0.611249 0.272508 -0.470515
O12   O     O_2   0.185243 0.742594 0.379545 -0.467170
H9    H     H_    0.182726 0.819778 0.355114 0.215544
O13   O     O_2   0.096080 0.892419 0.229320 -0.448931
O14   O     O_2   0.040096 0.757290 0.121235 -0.482186
H10   H     H_    0.005045 0.681285 0.147441 0.182015
H11   H     H_    0.006952 0.630422 0.199613 0.185455
C33   C     C_R   0.883699 0.856660 0.120532 0.318992
C34   C     C_R   0.877122 0.886304 0.090551 -0.219007
H12   H     H_    0.745982 0.887267 0.072621 0.157721
C35   C     C_R   0.038096 0.914213 0.083514 -0.102561
C36   C     C_R   0.205206 0.912349 0.107668 -0.177610
H13   H     H_    0.330949 0.933798 0.103568 0.142262
C37   C     C_R   0.211037 0.883512 0.138091 -0.070827
H14   H     H_    0.339724 0.883624 0.156929 0.185650
C38   C     C_R   0.052301 0.854860 0.144570 0.306547
C39   C     C_R   0.981753 0.645884 0.387659 0.450321
C40   C     C_R   0.995729 0.615532 0.416664 -0.243237
H15   H     H_    0.883126 0.616225 0.440484 0.190753
C41   C     C_R   0.153159 0.584968 0.415691 -0.226551
C42   C     C_R   0.298423 0.584822 0.384096 0.217810
C43   C     C_R   0.283970 0.615397 0.354647 0.290418
C44   C     C_R   0.125162 0.646033 0.356273 0.168058
C45   C     C_R   0.558191 0.223990 0.837581 0.606930
N7    N     N_R   0.549920 0.175846 0.824309 -0.555460
C46   C     C_R   0.538119 0.155747 0.781913 0.747697
C47   C     C_R   0.547916 0.184243 0.750407 -0.152501
C48   C     C_R   0.557497 0.234059 0.764034 -0.061991
C49   C     C_R   0.559285 0.254022 0.807850 -0.011795
C50   C     C_R   0.550321 0.165286 0.705982 0.430270
C51   C     C_R   0.563570 0.195504 0.676713 -0.137410
C52   C     C_R   0.571490 0.244815 0.690142 -0.120536
C53   C     C_R   0.566117 0.264207 0.733871 -0.011950
C54   C     C_R   0.571063 0.313809 0.747507 -0.022461
C55   C     C_R   0.569110 0.333055 0.791244 -0.125566
C56   C     C_R   0.564658 0.303545 0.821022 -0.119507
C57   C     C_R   0.586093 0.275314 0.660728 0.709341
N8    N     N_R   0.586122 0.323548 0.674391 -0.542509
C58   C     C_R   0.578518 0.343021 0.716971 0.611162
O15   O     O_2   0.567177 0.242778 0.879493 -0.501490
O16   O     O_2   0.517112 0.108383 0.770690 -0.419661
H16   H     H_    0.567103 0.180026 0.643095 0.215233
O17   O     O_2   0.601714 0.256857 0.618820 -0.471894
O18   O     O_2   0.577912 0.390528 0.729783 -0.500754
H17   H     H_    0.572926 0.371022 0.802659 0.179809
H18   H     H_    0.565399 0.319740 0.854466 0.180586
C59   C     C_R   0.767157 0.382460 0.642797 -0.109944
H19   H     H_    0.881396 0.381116 0.665350 0.197235
C60   C     C_R   0.787053 0.412545 0.613483 0.371878
C61   C     C_R   0.638140 0.414860 0.583992 -0.196766
C62   C     C_R   0.470487 0.387039 0.585535 -0.224884
H20   H     H_    0.353524 0.388398 0.563630 0.196163
C63   C     C_R   0.451327 0.357059 0.614969 0.350959
C64   C     C_R   0.601202 0.354289 0.643720 0.233901
C65   C     C_R   0.714225 0.116617 0.858365 0.290547
C66   C     C_R   0.712398 0.085655 0.887675 0.204341
C67   C     C_R   0.551391 0.085021 0.915568 -0.165549
C68   C     C_R   0.395329 0.115068 0.912589 -0.170804
H21   H     H_    0.270670 0.115734 0.933359 0.190321
C69   C     C_R   0.396598 0.144744 0.882970 -0.060665
H22   H     H_    0.273715 0.167195 0.881292 0.181002
C70   C     C_R   0.554200 0.145646 0.855505 0.251352
C71   C     C_R   0.464730 0.383808 0.377717 -0.118624
H23   H     H_    0.334294 0.402364 0.389653 0.126514
C72   C     C_R   0.452085 0.347819 0.341491 -0.105040
H24   H     H_    0.312383 0.339712 0.326825 0.141898
C73   C     C_R   0.616943 0.322606 0.324557 0.026304
C74   C     C_R   0.795115 0.334522 0.344912 -0.097741
H25   H     H_    0.925371 0.316033 0.332768 0.147130
C75   C     C_R   0.808015 0.370765 0.381072 -0.141152
H26   H     H_    0.947608 0.379016 0.395758 0.120761
C76   C     C_R   0.642831 0.395876 0.398041 -0.045727
N9    N     N_R   0.756225 0.256301 0.272108 -0.242867
N10   N     N_R   0.743841 0.222406 0.237328 -0.176314
C77   C     C_R   0.577779 0.215139 0.214615 0.636193
N11   N     N_R   0.424304 0.243153 0.228318 -0.183639
N12   N     N_R   0.436476 0.276944 0.263189 -0.253482
C78   C     C_R   0.602868 0.284405 0.285838 0.502092
C79   C     C_R   0.409264 0.145558 0.168464 0.306522
C80   C     C_R   0.400663 0.110428 0.131526 -0.190749
H27   H     H_    0.280403 0.085573 0.127603 0.178874
C81   C     C_R   0.547474 0.105862 0.100550 -0.237784
C82   C     C_R   0.703448 0.138717 0.106538 0.339884
C83   C     C_R   0.712060 0.174574 0.143493 0.363138
C84   C     C_R   0.566034 0.177974 0.175135 -0.200801
O19   O     O_R   0.699050 0.038480 0.960880 -0.509727
O20   O     O_R   0.366680 0.052470 0.047720 -0.534617
O21   O     O_R   0.193410 0.961530 0.039110 -0.548362
C85   C     C_R   0.536154 0.066263 0.062859 0.784329
O22   O     O_R   0.369510 0.044100 0.961740 -0.533304
O23   O     O_R   0.196260 0.953110 0.952520 -0.543754
C86   C     C_R   0.539620 0.053440 0.947474 0.788090
O24   O     O_R   0.696210 0.046900 0.047470 -0.515189
O25   O     O_3   0.528780 0.970170 0.997070 -0.392312
V3    V     V_3+5 0.255080 0.005530 0.000540 1.536983
O26   O     O_R   0.866350 0.947520 0.952280 -0.543015
C87   C     C_R   0.035426 0.934520 0.936451 0.725557
O27   O     O_R   0.863520 0.955880 0.038260 -0.549499
C88   C     C_R   0.031189 0.945821 0.051853 0.705905
V4    V     V_3+5 0.754720 0.994440 0.999470 1.520735
O28   O     O_3   0.030880 0.029830 0.002930 -0.327258
Cl1   Cl    Cl    0.177750 0.895644 0.314036 -0.434209
Br1   Br    Br    0.657531 0.820238 0.128549 -0.514012
Cl2   Cl    Cl    0.781414 0.683540 0.391389 -0.515019
Br2   Br    Br    0.511355 0.541226 0.378600 -0.444609
Br3   Br    Br    0.481683 0.615839 0.311892 -0.342432
Cl3   Cl    Cl    0.542692 0.104136 0.683998 -0.415134
Cl4   Cl    Cl    0.996905 0.448351 0.616905 -0.620679
Br4   Br    Br    0.215857 0.321512 0.615723 -0.454102
Br5   Br    Br    0.937002 0.120505 0.822530 -0.404715
Br6   Br    Br    0.926368 0.042862 0.886377 -0.457218
Br7   Br    Br    0.207713 0.145297 0.210027 -0.376235
Cl5   Cl    Cl    0.884838 0.137315 0.067027 -0.534507
Cl6   Cl    Cl    0.902613 0.216805 0.148639 -0.451680

loop_
_geom_bond_atom_site_label_1
_geom_bond_atom_site_label_2
_ccdc_geom_bond_type
N7    C70   S    
C66   Br6   S    
C9    H4    S    
C20   O12   S    
C55   C56   A    
C77   N11   A    
C11   C18   S    
C23   C30   A    
C15   C87   S    
C85   O24   A    
C57   N8    A    
C71   C76   A    
C1    O6    A    
C75   H26   S    
C55   H17   S    
C65   Br5   S    
C66   C67   A    
N6    C32   A    
C72   H24   S    
O21   C88   A    
C20   C21   A    
C68   H21   S    
N8    C64   S    
C21   C24   A    
C15   C16   A    
C73   C74   A    
C39   Cl2   S    
C5    C10   A    
C7    C8    A    
N2    C11   A    
C6    C7    A    
C40   C41   A    
O26   V4    S    
C48   C53   A    
C62   C63   A    
O5    C3    A    
C16   H7    S    
C72   C73   A    
V2    O10   S    
C33   C38   A    
C49   C56   A    
C82   Cl5   S    
C61   C62   A    
C26   C31   A    
O23   V3    S    
C69   H22   S    
C43   Br3   S    
C2    C76   S    
O19   C86   A    
O20   C85   A    
C21   C22   A    
O8    V2    S    
C22   C23   A    
N10   C77   A    
C3    C41   S    
C35   C88   S    
C60   C61   A    
C36   H13   S    
O1    V2    S    
C19   C23   A    
C58   O18   S    
C19   O11   S    
C37   H14   S    
O20   V3    S    
C17   C18   A    
C33   C34   A    
C79   C84   A    
C60   Cl4   S    
C56   H18   S    
O1    C2    A    
O9    C4    A    
C45   O15   S    
C81   C85   S    
C30   H11   S    
C54   C58   A    
C13   H5    S    
C40   H15   S    
C7    C12   S    
O25   V4    S    
C77   C84   S    
C24   H9    S    
C51   H16   S    
C26   C27   A    
O24   V4    S    
N12   C78   A    
C81   C82   A    
C37   C38   A    
N9    C78   A    
C42   Br2   S    
C53   C54   A    
O4    C2    A    
C41   C42   A    
C39   C44   A    
C25   Cl1   S    
C28   C29   A    
C45   N7    A    
C4    C10   S    
C34   H12   S    
C33   Br1   S    
C34   C35   A    
C14   H6    S    
N6    C38   S    
V3    O28   S    
O2    C1    A    
C39   C40   A    
C11   N3    A    
C65   C70   A    
C59   C60   A    
N7    C46   A    
C28   C32   A    
N8    C58   A    
C5    H1    S    
C71   H23   S    
C25   C26   A    
C46   C47   A    
O26   C87   A    
C47   C48   A    
C22   C27   A    
O3    C4    A    
C80   C81   A    
C73   C78   S    
C17   H8    S    
C59   C64   A    
N5    C44   S    
O6    V2    S    
O9    V2    S    
C19   N5    A    
V4    O28   S    
C8    C9    A    
C63   Br4   S    
O22   V3    S    
C13   C18   A    
O19   V4    S    
N9    N10   A    
O2    V1    S    
C27   C28   A    
C83   Cl6   S    
C65   C66   A    
C79   C80   A    
C47   C50   A    
C32   O14   S    
C31   N6    A    
C29   C30   A    
O27   C88   A    
C74   C75   A    
C63   C64   A    
C14   C15   A    
N1    C12   A    
C48   C49   A    
C46   O16   S    
N4    C12   A    
N5    C20   A    
C9    C10   A    
O22   C86   A    
C43   C44   A    
C75   C76   A    
O5    V1    S    
O8    C3    A    
N11   N12   A    
C59   H19   S    
C6    H2    S    
O27   V4    S    
O7    V2    S    
O4    V1    S    
C50   Cl3   S    
O3    V1    S    
V1    O10   S    
C82   C83   A    
C16   C17   A    
C52   C53   A    
N3    N4    A    
O21   V3    S    
C29   H10   S    
C74   H25   S    
C67   C86   S    
C54   C55   A    
C13   C14   A    
C68   C69   A    
O7    V1    S    
C31   O13   S    
O23   C87   A    
C35   C36   A    
C69   C70   A    
C71   C72   A    
C80   H27   S    
C42   C43   A    
C5    C6    A    
C57   O17   S    
C45   C49   A    
C50   C51   A    
C24   C25   A    
N1    N2    A    
C83   C84   A    
C8    H3    S    
C36   C37   A    
O25   V3    S    
C1    C61   S    
C51   C52   A    
C62   H20   S    
C52   C57   A    
C67   C68   A    
C79   Br7   S    
