data_mof_unit_32964.cif
_audit_creation_date              2012-12-10T20:40:54-0500
_audit_creation_method            fapswitch 2.2
_symmetry_space_group_name_H-M    P1
_symmetry_Int_Tables_number       1
_space_group_crystal_system       triclinic
_cell_length_a                    27.642212
_cell_length_b                    10.637584
_cell_length_c                    9.890076
_cell_angle_alpha                 90.25102
_cell_angle_beta                  89.531556
_cell_angle_gamma                 90.748451
_cell_volume                      2907.76889278

loop_
_atom_site_label
_atom_site_type_symbol
_atom_type_description
_atom_site_fract_x
_atom_site_fract_y
_atom_site_fract_z
_atom_type_partial_charge
C1    C     C_R   0.502332 0.260042 0.499791 0.928651
C2    C     C_R   0.280945 0.393496 0.413802 0.487042
C3    C     C_R   0.253487 0.487001 0.478730 0.036635
C4    C     C_R   0.101609 0.485304 0.459612 -0.141706
C5    C     C_R   0.125606 0.374666 0.496462 -0.258918
C6    C     C_R   0.098211 0.264185 0.523126 0.432008
C7    C     C_R   0.128268 0.594776 0.427089 0.037406
C8    C     C_R   0.354112 0.492511 0.498369 -0.308664
C9    C     C_R   0.646729 0.498842 0.496314 -0.228571
C10   C     C_R   0.973505 0.377402 0.445025 -0.005125
C11   C     C_R   0.976596 0.606957 0.472957 -0.110936
C12   C     C_R   0.406376 0.499120 0.500122 1.006089
C13   C     C_R   0.949614 0.493448 0.460992 -0.053153
C14   C     C_R   0.947098 0.270384 0.399845 0.415550
C15   C     C_R   0.896123 0.276071 0.394833 0.551314
C16   C     C_R   0.871951 0.385681 0.435650 -0.167459
C17   C     C_R   0.898785 0.495961 0.464615 -0.218719
C18   C     C_R   0.874860 0.609091 0.495597 -0.201282
C19   C     C_R   0.824182 0.608085 0.501611 0.667917
C20   C     C_R   0.821304 0.390007 0.442906 0.643279
C21   C     C_R   0.723785 0.449324 0.596441 -0.265452
C22   C     C_R   0.673360 0.446062 0.602717 0.516554
C23   C     C_R   0.502780 0.740010 0.500061 0.921808
C24   C     C_R   0.670988 0.549376 0.383312 -0.382808
C25   C     C_R   0.721136 0.550327 0.377089 0.736761
C26   C     C_R   0.747476 0.500658 0.483769 0.068964
C27   C     C_R   0.023872 0.374682 0.468895 -0.095421
C28   C     C_R   0.050748 0.487636 0.457478 -0.008378
C29   C     C_R   0.026899 0.603740 0.447083 0.143969
C30   C     C_R   0.047778 0.265369 0.510830 0.557523
C31   C     C_R   0.104061 0.705926 0.396876 -0.179680
C32   C     C_R   0.952513 0.717641 0.514432 0.331707
C33   C     C_R   0.902100 0.718806 0.522330 0.609558
C34   C     C_R   0.593939 0.499578 0.499367 0.902802
C35   C     C_R   0.054042 0.711248 0.409834 -0.165307
C36   C     C_R   0.510045 0.064691 0.622729 -0.080427
C37   C     C_R   0.512419 0.129314 0.500785 -0.396321
C38   C     C_R   0.527355 0.065996 0.382801 0.545649
C39   C     C_R   0.528881 0.935425 0.383099 0.417274
C40   C     C_R   0.513599 0.871254 0.501225 -0.376683
C41   C     C_R   0.510584 0.936708 0.623001 -0.063044
C42   C     C_3   0.474780 0.927717 0.736844 0.493870
C43   C     C_3   0.474170 0.070346 0.736448 0.498810
C44   C     C_R   0.460067 0.533060 0.071956 0.030048
C45   C     C_R   0.176213 0.380095 0.509673 0.657203
C46   C     C_R   0.541156 0.475952 0.070850 -0.086438
C47   C     C_R   0.541100 0.475465 0.927116 -0.048403
C48   C     C_R   0.459792 0.534511 0.930369 0.090515
C49   C     C_3   0.408495 0.484383 0.921168 0.715422
C50   C     C_3   0.409993 0.478987 0.078890 0.775822
C51   C     C_R   0.178662 0.590370 0.425578 0.516442
C52   C     C_R   0.276889 0.584259 0.549827 -0.321487
C53   C     C_R   0.327208 0.591604 0.552668 0.444303
C54   C     C_R   0.330987 0.391260 0.432107 0.371943
H1    H     H_    0.256011 0.656946 0.599203 0.206898
H2    H     H_    0.123743 0.790193 0.367288 0.172046
H3    H     H_    0.651133 0.588912 0.299997 0.193764
H4    H     H_    0.036945 0.798782 0.385079 0.181767
H5    H     H_    0.439907 0.882001 0.708816 0.025884
H6    H     H_    0.438906 0.111010 0.708040 -0.023097
H7    H     H_    0.574084 0.454373 0.123685 0.175322
H8    H     H_    0.573962 0.453374 0.872823 0.202655
H9    H     H_    0.744583 0.410541 0.678332 0.196735
N1    N     N_R   0.201678 0.485344 0.470128 -0.321371
N2    N     N_R   0.798939 0.499561 0.476342 -0.349623
N3    N     N_R   0.499670 0.499140 0.142800 -0.119553
N4    N     N_R   0.499670 0.499180 0.857150 -0.099518
O1    O     O_R   0.500010 0.316790 0.614690 -0.586521
O2    O     O_2   0.794333 0.285954 0.417755 -0.446031
O3    O     O_2   0.204531 0.690509 0.380593 -0.576551
O4    O     O_2   0.800045 0.713908 0.532900 -0.434146
O5    O     O_R   0.500000 0.316760 0.385350 -0.569949
O6    O     O_R   0.428760 0.500040 0.614660 -0.554236
O7    O     O_R   0.428750 0.500000 0.385310 -0.548038
O8    O     O_R   0.500000 0.683240 0.614650 -0.584985
O9    O     O_R   0.499990 0.683210 0.385310 -0.570415
O10   O     O_R   0.571250 0.500000 0.614690 -0.591026
O11   O     O_R   0.571240 0.499960 0.385340 -0.643279
O12   O     O_2   0.199858 0.282387 0.563601 -0.491547
Zn1   Zn    Zn3+2 0.500000 0.500020 0.653130 1.069740
Zn2   Zn    Zn3+2 0.500000 0.499980 0.346870 1.044278
O13   O     O_3   0.357344 0.294672 0.375136 -0.517472
C55   C     C_3   0.366031 0.204251 0.475455 -0.298715
H10   H     H_    0.331627 0.167045 0.520089 0.179768
H11   H     H_    0.389816 0.243191 0.555832 0.140678
H12   H     H_    0.385227 0.124121 0.428162 0.176611
O14   O     O_3   0.977688 0.824175 0.555044 -0.625568
C56   C     C_3   0.989687 0.811553 0.692558 -0.179063
H13   H     H_    0.013832 0.730156 0.708771 0.142359
H14   H     H_    0.956659 0.802740 0.757169 0.182265
H15   H     H_    0.009614 0.897548 0.725039 0.222475
F1    F     F_    0.880387 0.827819 0.558879 -0.587466
F2    F     F_    0.744227 0.598893 0.267153 -0.624985
F3    F     F_    0.537619 0.128334 0.266207 -0.621501
O15   O     O_3   0.539276 0.872867 0.263806 -0.526558
C57   C     C_3   0.588669 0.841630 0.264298 -0.099878
H16   H     H_    0.596947 0.787770 0.170812 0.191527
H17   H     H_    0.597545 0.780862 0.351834 0.107668
H18   H     H_    0.612024 0.927680 0.264396 0.173722
O16   O     O_3   0.258679 0.300666 0.337416 -0.562357
C58   C     C_3   0.257807 0.341029 0.201937 -0.247605
H19   H     H_    0.295083 0.353708 0.160454 0.202109
H20   H     H_    0.237029 0.429389 0.191382 0.153173
H21   H     H_    0.239417 0.267593 0.140351 0.185518
F4    F     F_    0.495490 0.878909 0.852002 -0.557253
F5    F     F_    0.494538 0.123105 0.851151 -0.589674
O17   O     O_3   0.379838 0.578643 0.859824 -0.566399
C59   C     C_3   0.332138 0.586238 0.912654 -0.152541
H22   H     H_    0.320420 0.505817 0.976529 0.118929
H23   H     H_    0.306297 0.591306 0.828141 0.169844
H24   H     H_    0.328716 0.674420 0.972110 0.217257
O18   O     O_3   0.408575 0.368105 0.849766 -0.618205
C60   C     C_3   0.361810 0.314521 0.840508 -0.314654
H25   H     H_    0.339224 0.367889 0.768978 0.185391
H26   H     H_    0.343954 0.305434 0.941015 0.164315
H27   H     H_    0.365060 0.217925 0.799272 0.173839
F6    F     F_    0.380790 0.565290 0.144004 -0.678453
O19   O     O_3   0.404198 0.358731 0.141038 -0.601229
C61   C     C_3   0.436082 0.263167 0.097649 -0.078560
H28   H     H_    0.466162 0.294096 0.030769 0.176311
H29   H     H_    0.415072 0.188804 0.044428 0.191509
H30   H     H_    0.451867 0.218824 0.187869 0.228804
O20   O     O_3   0.120032 0.156374 0.569118 -0.532565
C62   C     C_3   0.125130 0.072025 0.459646 -0.149025
H31   H     H_    0.146222 0.115158 0.374909 0.156806
H32   H     H_    0.089314 0.037652 0.423341 0.161803
H33   H     H_    0.145451 0.989263 0.494760 0.190351
O21   O     O_3   0.650597 0.394345 0.714647 -0.606406
C63   C     C_3   0.642385 0.265247 0.689541 -0.206296
H34   H     H_    0.677090 0.214567 0.676096 0.180671
H35   H     H_    0.618813 0.249922 0.600017 0.146360
H36   H     H_    0.623299 0.224024 0.778298 0.218908
F7    F     F_    0.870315 0.177964 0.342924 -0.602758
O22   O     O_3   0.972542 0.175037 0.334755 -0.626194
C64   C     C_3   0.954854 0.053782 0.367577 0.051070
H37   H     H_    0.928530 0.020791 0.290679 0.195478
H38   H     H_    0.938958 0.047944 0.471341 0.228578
H39   H     H_    0.985676 0.988368 0.362751 0.167816
F8    F     F_    0.022313 0.163768 0.555930 -0.650657
O23   O     O_3   0.350014 0.694602 0.610920 -0.564851
C65   C     C_3   0.352753 0.791518 0.514175 -0.264515
H40   H     H_    0.316151 0.820326 0.480969 0.193972
H41   H     H_    0.375204 0.763257 0.425395 0.179067
H42   H     H_    0.370356 0.875104 0.560843 0.148794

loop_
_geom_bond_atom_site_label_1
_geom_bond_atom_site_label_2
_ccdc_geom_bond_type
C10   C27   A    
O1    Zn1   S    
C64   H39   S    
C21   C26   A    
C25   F2    S    
C58   H19   S    
C12   O7    A    
C50   F6    S    
C41   C42   S    
C44   N3    A    
O15   C57   S    
C23   O9    A    
O14   C56   S    
O21   C63   S    
C47   H8    S    
O20   C62   S    
C49   O17   S    
C3    N1    S    
C35   H4    S    
C36   C37   A    
C46   N3    A    
O9    Zn2   S    
C65   H41   S    
C34   O10   A    
C5    C6    A    
C3    C52   A    
C9    C22   A    
C61   H30   S    
C15   C16   A    
C53   O23   S    
C57   H18   S    
C1    O1    A    
C59   H22   S    
C18   C19   A    
O19   C61   S    
C19   O4    S    
C24   H3    S    
C57   H17   S    
O17   C59   S    
C51   O3    S    
C31   H2    S    
C18   C33   A    
O8    Zn1   S    
O5    Zn2   S    
C52   H1    S    
C8    C12   S    
C60   H27   S    
C2    O16   S    
C58   H20   S    
C21   C22   A    
C27   C30   A    
C36   C41   A    
C6    O20   S    
C4    C7    A    
C47   N4    A    
O18   C60   S    
C4    C28   A    
C61   H29   S    
C1    O5    A    
C7    C31   A    
N4    Zn1   S    
C46   H7    S    
C20   N2    A    
C64   H37   S    
O23   C65   S    
C2    C54   A    
C65   H42   S    
C8    C54   A    
C39   C40   A    
C16   C17   A    
C14   O22   S    
C25   C26   A    
C32   O14   S    
C5    C45   A    
C43   F5    S    
C42   H5    S    
C37   C38   A    
C22   O21   S    
C55   H10   S    
C56   H15   S    
C16   C20   A    
C57   H16   S    
C38   F3    S    
C17   C18   A    
C45   O12   S    
C24   C25   A    
C39   O15   S    
C43   H6    S    
C49   O18   S    
C48   C49   S    
C55   H11   S    
C56   H14   S    
C11   C32   A    
C49   C50   S    
C58   H21   S    
C62   H33   S    
C10   C14   A    
C9    C34   S    
C31   C35   A    
C20   O2    S    
C33   F1    S    
C42   C43   S    
O7    Zn2   S    
C54   O13   S    
C52   C53   A    
C62   H32   S    
C60   H25   S    
O10   Zn1   S    
C44   C50   S    
C64   H38   S    
C46   C47   A    
C28   C29   A    
C30   F8    S    
C6    C30   A    
C50   O19   S    
C26   N2    S    
C51   N1    A    
C23   O8    A    
C4    C5    A    
C10   C13   A    
C8    C53   A    
C61   H28   S    
C9    C24   A    
O22   C64   S    
C15   F7    S    
C1    C37   S    
C29   C35   A    
C45   N1    A    
C59   H24   S    
C13   C17   A    
C32   C33   A    
C63   H36   S    
C2    C3    A    
C63   H34   S    
C7    C51   A    
C65   H40   S    
C34   O11   A    
N3    Zn2   S    
C11   C13   A    
O11   Zn2   S    
C38   C39   A    
O16   C58   S    
O6    Zn1   S    
C59   H23   S    
C19   N2    A    
C48   N4    A    
C42   F4    S    
C21   H9    S    
C44   C48   A    
C55   H12   S    
C56   H13   S    
C11   C29   A    
O13   C55   S    
C27   C28   A    
C14   C15   A    
C36   C43   S    
C40   C41   A    
C60   H26   S    
C12   O6    A    
C23   C40   S    
C62   H31   S    
C63   H35   S    
