data_mof_unit_15309.cif
_audit_creation_date              2012-12-10T20:35:53-0500
_audit_creation_method            fapswitch 2.2
_symmetry_space_group_name_H-M    P1
_symmetry_Int_Tables_number       1
_space_group_crystal_system       triclinic
_cell_length_a                    15.721093
_cell_length_b                    10.61131
_cell_length_c                    9.921139
_cell_angle_alpha                 90.887999
_cell_angle_beta                  90.294596
_cell_angle_gamma                 90.930618
_cell_volume                      1654.61707999

loop_
_atom_site_label
_atom_site_type_symbol
_atom_type_description
_atom_site_fract_x
_atom_site_fract_y
_atom_site_fract_z
_atom_type_partial_charge
C1    C     C_R   0.498424 0.260667 0.499548 0.905413
C2    C     C_R   0.492161 0.128772 0.501875 -0.250259
C3    C     C_R   0.417457 0.062190 0.460703 0.378362
C4    C     C_R   0.338504 0.499837 0.499736 0.859248
C5    C     C_R   0.419185 0.930480 0.458381 0.160778
C6    C     C_R   0.492952 0.870714 0.505350 -0.223621
C7    C     C_R   0.557521 0.938832 0.569480 0.038368
C8    C     C_3   0.652221 0.931348 0.556513 -0.500843
C9    C     C_3   0.652473 0.075380 0.552750 0.047327
C10   C     C_R   0.441602 0.428991 0.068989 0.093360
C11   C     C_R   0.561841 0.560843 0.074574 -0.112938
C12   C     C_3   0.952181 0.494936 0.648248 0.086819
C13   C     C_R   0.561586 0.563394 0.931742 0.459434
C14   C     C_R   0.441824 0.428387 0.926476 -0.015251
C15   C     C_3   0.347174 0.439606 0.917127 0.164035
C16   C     C_R   0.499609 0.739278 0.500993 0.899177
C17   C     C_3   0.346400 0.440423 0.071311 0.537250
C18   C     C_R   0.661499 0.499993 0.500242 0.911296
C19   C     C_3   0.050691 0.500691 0.646136 -0.396956
C20   C     C_3   0.049075 0.392265 0.418865 -0.534317
C21   C     C_3   0.949669 0.389450 0.413634 0.547833
C22   C     C_1   0.750262 0.501317 0.500790 -0.172532
C23   C     C_3   0.917476 0.505589 0.499637 0.081145
C24   C     C_3   0.083046 0.508556 0.499715 0.082094
C25   C     C_3   0.929562 0.568174 0.882130 -0.793573
C26   C     C_3   0.339763 0.847336 0.266868 -0.643776
C27   C     C_3   0.657548 0.076594 0.297687 -0.722277
C28   C     C_3   0.338170 0.209988 0.126713 -0.701108
C29   C     C_3   0.932317 0.288061 0.184964 -0.797774
C30   C     C_3   0.088939 0.856216 0.411685 -0.678550
C31   C     C_3   0.951098 0.630649 0.435652 0.225469
C32   C     C_3   0.050394 0.631172 0.432404 0.080539
C33   C     C_1   0.825552 0.503118 0.500580 -0.080957
C34   C     C_1   0.174591 0.505268 0.499128 -0.058346
C35   C     C_1   0.249803 0.502383 0.499133 -0.177238
C36   C     C_R   0.557589 0.066732 0.565654 0.063574
H1    H     H_    0.931733 0.401241 0.687107 0.179669
H2    H     H_    0.076061 0.395178 0.315407 0.183583
H3    H     H_    0.073270 0.304905 0.465500 0.202800
H4    H     H_    0.070975 0.627531 0.324878 0.093266
H5    H     H_    0.859390 0.623234 0.718362 0.275406
H6    H     H_    0.911468 0.653154 0.941360 0.251861
H7    H     H_    0.996519 0.546144 0.907338 0.242654
H8    H     H_    0.887474 0.488198 0.911489 0.234359
H9    H     H_    0.347305 0.211769 0.444356 0.318590
H10   H     H_    0.336219 0.775860 0.460221 0.209869
H11   H     H_    0.340113 0.941203 0.219608 0.239404
H12   H     H_    0.075483 0.583504 0.705247 0.208254
H13   H     H_    0.279245 0.797802 0.239680 0.230705
H14   H     H_    0.393438 0.792000 0.226129 0.262923
H15   H     H_    0.744781 0.160841 0.431216 0.260099
H16   H     H_    0.665775 0.148725 0.218781 0.237612
H17   H     H_    0.590083 0.044647 0.296207 0.248249
H18   H     H_    0.699063 0.996121 0.272230 0.221125
H19   H     H_    0.604169 0.656509 0.781396 0.380110
H20   H     H_    0.324307 0.329382 0.763346 0.363375
H21   H     H_    0.259245 0.563553 0.105515 0.313653
H22   H     H_    0.274757 0.354784 0.224647 0.240996
H23   H     H_    0.928300 0.635754 0.329121 0.051651
H24   H     H_    0.290235 0.139605 0.160403 0.254284
H25   H     H_    0.394750 0.207286 0.193801 0.244447
H26   H     H_    0.357719 0.183310 0.023185 0.269894
H27   H     H_    0.946416 0.204438 0.431551 0.345766
H28   H     H_    0.861166 0.434933 0.258998 0.226972
H29   H     H_    0.924412 0.316489 0.078562 0.241586
H30   H     H_    0.883857 0.213941 0.206929 0.253544
H31   H     H_    0.996799 0.248633 0.196573 0.241926
H32   H     H_    0.141388 0.736337 0.550747 0.226345
H33   H     H_    0.107056 0.940404 0.473909 0.246547
H34   H     H_    0.681933 0.894871 0.649716 0.195671
H35   H     H_    0.025834 0.872836 0.365000 0.252515
H36   H     H_    0.136883 0.843804 0.330981 0.210816
H37   H     H_    0.863664 0.755138 0.471241 0.320641
H38   H     H_    0.672013 0.881598 0.462883 0.199517
H39   H     H_    0.682403 0.121118 0.643253 0.135795
H40   H     H_    0.610357 0.613048 0.130713 0.164772
H41   H     H_    0.075936 0.415177 0.695146 0.175692
H42   H     H_    0.326084 0.529008 0.871144 0.129713
N1    N     N_R   0.499430 0.499140 0.142800 -0.127196
N2    N     N_R   0.499430 0.499180 0.857150 -0.174211
N3    N     N_2   0.919720 0.592337 0.739574 -0.237361
N4    N     N_2   0.346526 0.859991 0.411897 -0.269590
N5    N     N_2   0.681966 0.131478 0.427379 -0.286138
N6    N     N_2   0.300884 0.334151 0.131912 -0.275902
N7    N     N_2   0.920390 0.396779 0.272944 -0.324002
N8    N     N_2   0.086059 0.745969 0.495944 -0.227577
O1    O     O_R   0.500010 0.316790 0.614690 -0.612603
O2    O     O_3   0.623833 0.635523 0.872284 -0.782816
O3    O     O_3   0.307670 0.332060 0.859477 -0.756497
O4    O     O_3   0.320966 0.556945 0.125220 -0.802973
O5    O     O_3   0.917047 0.277881 0.471830 -0.787321
O6    O     O_3   0.920990 0.736386 0.507509 -0.716747
O7    O     O_R   0.500000 0.316760 0.385350 -0.613702
O8    O     O_R   0.377150 0.500020 0.614720 -0.642428
O9    O     O_R   0.377140 0.499990 0.385380 -0.568241
O10   O     O_R   0.500000 0.683240 0.614650 -0.640772
O11   O     O_R   0.499990 0.683210 0.385310 -0.612200
O12   O     O_R   0.622860 0.500010 0.614620 -0.611225
O13   O     O_R   0.622850 0.499980 0.385280 -0.621125
O14   O     O_3   0.342824 0.120275 0.424464 -0.770362
Zn1   Zn    Zn3+2 0.500010 0.500020 0.653130 0.945393
Zn2   Zn    Zn3+2 0.499990 0.499980 0.346870 0.967731

loop_
_geom_bond_atom_site_label_1
_geom_bond_atom_site_label_2
_ccdc_geom_bond_type
C1    O1    A    
C28   N6    S    
H32   N8    S    
C7    C36   A    
C25   H7    S    
C30   H35   S    
C27   H18   S    
C7    C8    S    
C12   C23   S    
C34   C35   T    
C11   H40   S    
C26   H14   S    
C5    C6    A    
C16   O11   A    
C15   H42   S    
C10   C17   S    
C12   H1    S    
C13   O2    S    
C1    C2    S    
C31   H23   S    
H19   O2    S    
C19   H41   S    
C29   H31   S    
C3    O14   S    
C20   C24   S    
O8    Zn1   S    
C8    C9    S    
C23   C33   S    
C9    C36   S    
N1    Zn2   S    
C14   N2    A    
C30   N8    S    
C29   N7    S    
O11   Zn2   S    
O9    Zn2   S    
C28   H25   S    
C13   N2    A    
C32   N8    S    
C26   N4    S    
H10   N4    S    
O10   Zn1   S    
C25   N3    S    
C25   H8    S    
C28   H24   S    
C21   N7    S    
C16   O10   A    
H21   O4    S    
C10   C14   A    
C26   H13   S    
C20   H3    S    
C19   H12   S    
C24   C34   S    
C23   C31   S    
C25   H6    S    
C24   C32   S    
H22   N6    S    
C15   O3    S    
C4    O9    A    
C20   H2    S    
C31   C32   S    
O1    Zn1   S    
H5    N3    S    
C8    H38   S    
C11   N1    A    
C26   H11   S    
C9    N5    S    
C29   H29   S    
H20   O3    S    
C21   C23   S    
C4    O8    A    
C18   O13   A    
H15   N5    S    
H28   N7    S    
C30   H33   S    
C27   H16   S    
C21   O5    S    
C2    C36   A    
C15   C17   S    
C22   C33   T    
C18   C22   S    
C17   O4    S    
H37   O6    S    
C3    C5    A    
H9    O14   S    
O7    Zn2   S    
C30   H36   S    
C10   N1    A    
C27   H17   S    
C6    C7    A    
O12   Zn1   S    
C18   O12   A    
C8    H34   S    
N2    Zn1   S    
C17   N6    S    
C27   N5    S    
C2    C3    A    
C5    N4    S    
C11   C13   A    
C12   C19   S    
C12   N3    S    
C19   C24   S    
C32   H4    S    
C4    C35   S    
C6    C16   S    
C29   H30   S    
O13   Zn2   S    
C20   C21   S    
C1    O7    A    
C31   O6    S    
H27   O5    S    
C14   C15   S    
C9    H39   S    
C28   H26   S    
