data_mof_unit_49509.cif
_audit_creation_date              2012-10-26T18:27:28-0400
_audit_creation_method            fapswitch 2.2
_symmetry_space_group_name_H-M    P1
_symmetry_Int_Tables_number       1
_space_group_crystal_system       triclinic
_cell_length_a                    10.765264
_cell_length_b                    10.996655
_cell_length_c                    9.84413
_cell_angle_alpha                 110.07892
_cell_angle_beta                  96.711381
_cell_angle_gamma                 92.589186
_cell_volume                      1082.48176317

loop_
_atom_site_label
_atom_site_type_symbol
_atom_type_description
_atom_site_fract_x
_atom_site_fract_y
_atom_site_fract_z
_atom_type_partial_charge
C1    C     C_R   0.488445 0.254454 0.441412 0.572718
C2    C     C_2   0.471107 0.927565 0.480079 -0.134869
C3    C     C_2   0.520644 0.507768 0.081386 0.229919
C4    C     C_R   0.262566 0.501571 0.504819 0.579518
C5    C     C_2   0.534179 0.467572 0.922481 0.379005
C6    C     C_R   0.505500 0.745299 0.558352 0.535862
C7    C     C_R   0.736851 0.503795 0.497892 0.536051
C8    C     C_R   0.146392 0.688645 0.758868 0.253420
C9    C     C_R   0.099175 0.807361 0.831546 0.151413
C10   C     C_R   0.978174 0.830580 0.786253 -0.113533
C11   C     C_R   0.901031 0.732938 0.676035 -0.106948
C12   C     C_R   0.077776 0.600811 0.625191 -0.020708
C13   C     C_R   0.948854 0.615671 0.598037 -0.012099
C14   C     C_R   0.128663 0.499469 0.516637 0.023316
C15   C     C_R   0.047770 0.401590 0.406514 0.219539
C16   C     C_R   0.919312 0.406575 0.398987 -0.081337
C17   C     C_R   0.870126 0.512197 0.493957 -0.010733
C18   C     C_2   0.480149 0.114888 0.407667 -0.076601
C19   C     C_2   0.464948 0.065514 0.510850 -0.116599
C20   C     C_2   0.497768 0.883471 0.589399 -0.103082
Cl1   Cl    Cl    0.103051 0.263620 0.283775 -0.512168
Cl2   Cl    Cl    0.585086 0.312148 0.848290 -0.558937
Cl3   Cl    Cl    0.251081 0.633337 0.872300 -0.551550
Cu1   Cu    Cu3+1 0.521920 0.521810 0.644910 1.093641
Cu2   Cu    Cu3+1 0.478080 0.478190 0.355090 1.114867
H1    H     H_    0.488594 0.051778 0.297179 0.139465
H2    H     H_    0.537421 0.647479 0.923200 0.228861
H3    H     H_    0.940696 0.920880 0.843566 0.168090
H4    H     H_    0.804540 0.750674 0.650060 0.142492
H5    H     H_    0.857360 0.326658 0.320260 0.172180
H6    H     H_    0.458597 0.862567 0.366714 0.188986
H7    H     H_    0.452115 0.127151 0.619711 0.215496
H8    H     H_    0.512461 0.949513 0.702365 0.150541
I1    I     I_    0.661174 0.662091 0.207845 -0.290777
I2    I     I_    0.305039 0.304729 0.003739 -0.020895
I3    I     I_    0.201507 0.949010 0.021723 -0.166363
N1    N     N_2   0.445130 0.445430 0.137370 -0.124718
N2    N     N_2   0.554930 0.554500 0.862630 -0.303808
O1    O     O_R   0.511700 0.332330 0.577400 -0.448003
O2    O     O_R   0.474680 0.295500 0.332650 -0.468472
O3    O     O_R   0.338160 0.518420 0.622400 -0.452664
O4    O     O_R   0.301140 0.481590 0.377650 -0.446562
O5    O     O_R   0.525320 0.704500 0.667350 -0.506027
O6    O     O_R   0.488300 0.667670 0.422600 -0.500486
O7    O     O_R   0.698860 0.518410 0.622350 -0.470740
O8    O     O_R   0.661840 0.481580 0.377600 -0.496703

loop_
_geom_bond_atom_site_label_1
_geom_bond_atom_site_label_2
_ccdc_geom_bond_type
Cu2   O4    S    
C9    I3    S    
Cu1   N2    S    
C6    C20   S    
C9    C10   A    
C3    I1    S    
C13   C17   A    
C8    C12   A    
Cu1   O1    S    
C6    O6    A    
C5    N2    D    
C12   C13   A    
Cu1   O3    S    
C11   C13   A    
C3    N1    D    
C1    C18   S    
C4    O4    A    
C19   H7    S    
C7    O7    A    
Cu2   O6    S    
I2    N1    S    
C12   C14   A    
C6    O5    A    
C2    H6    S    
Cu2   O2    S    
C4    C14   S    
C4    O3    A    
Cu1   O7    S    
H2    N2    S    
C2    C20   D    
C15   C16   A    
C7    O8    A    
C3    C5    S    
C15   Cl1   S    
C8    Cl3   S    
Cu1   Cu2   S    
C11   H4    S    
C20   H8    S    
C18   C19   D    
C10   C11   A    
C10   H3    S    
Cu1   O5    S    
C1    O1    A    
C14   C15   A    
C8    C9    A    
C1    O2    A    
Cu2   N1    S    
C2    C19   S    
C16   H5    S    
Cu2   O8    S    
C5    Cl2   S    
C16   C17   A    
C7    C17   S    
C18   H1    S    
