data_mof_unit_27610.cif
_audit_creation_date              2013-03-05T16:35:52-0500
_audit_creation_method            fapswitch 2.2
_symmetry_space_group_name_H-M    P1
_symmetry_Int_Tables_number       1
_space_group_crystal_system       triclinic
_cell_length_a                    23.597652
_cell_length_b                    9.110004
_cell_length_c                    7.783819
_cell_angle_alpha                 90.681366
_cell_angle_beta                  90.173147
_cell_angle_gamma                 89.523215
_cell_volume                      1673.14078467

loop_
_atom_site_label
_atom_site_type_symbol
_atom_site_description
_atom_site_fract_x
_atom_site_fract_y
_atom_site_fract_z
_atom_type_partial_charge
O1    O     O_R   0.500000 0.288390 0.642760 -0.582212
O2    O     O_R   0.500000 0.711610 0.357240 -0.571373
O3    O     O_R   0.500000 0.711610 0.642760 -0.581743
O4    O     O_R   0.500000 0.288390 0.357240 -0.580495
H1    H     H_    0.949306 0.121917 0.366826 0.198027
H2    H     H_    0.053541 0.820974 0.653593 0.203624
H3    H     H_    0.950806 0.834012 0.620624 0.197471
H4    H     H_    0.052223 0.127366 0.336508 0.203660
C1    C     C_R   0.500217 0.219978 0.499378 0.828381
C2    C     C_R   0.500205 0.780017 0.500619 0.840366
O5    O     O_R   0.417880 0.500000 0.642820 -0.588269
O6    O     O_R   0.582120 0.500000 0.357180 -0.547107
O7    O     O_R   0.582120 0.500000 0.642820 -0.599612
O8    O     O_R   0.417880 0.500000 0.357180 -0.571297
C3    C     C_R   0.210284 0.475129 0.487147 0.071125
C4    C     C_R   0.792633 0.484549 0.495186 0.082631
C5    C     C_R   0.391073 0.498887 0.499691 0.892761
C6    C     C_R   0.609553 0.498847 0.500502 0.863617
Cu1   Cu    Cu3+1 0.500000 0.500000 0.669080 0.989726
Cu2   Cu    Cu3+1 0.500000 0.500000 0.330920 1.012633
C7    C     C_R   0.297267 0.612869 0.445683 0.123243
C8    C     C_R   0.701762 0.435726 0.355379 0.117675
C9    C     C_R   0.302106 0.359650 0.541265 0.099382
C10   C     C_R   0.704453 0.545102 0.644278 0.089370
C11   C     C_R   0.329176 0.490941 0.498256 -0.239370
C12   C     C_R   0.672607 0.492993 0.500988 -0.252131
C13   C     C_R   0.883052 0.610377 0.516935 0.654993
C14   C     C_R   0.119942 0.358177 0.417562 0.649670
C15   C     C_R   0.882358 0.351005 0.468202 0.661076
C16   C     C_R   0.120218 0.586657 0.571093 0.649510
N1    N     N_R   0.853891 0.481837 0.492593 -0.427632
N2    N     N_R   0.149000 0.472465 0.492675 -0.433502
C17   C     C_R   0.941585 0.348675 0.453456 -0.034156
C18   C     C_R   0.061114 0.596646 0.558411 -0.034919
C19   C     C_R   0.942193 0.608042 0.533033 -0.031903
C20   C     C_R   0.060750 0.351157 0.431562 -0.039447
C21   C     C_R   0.971594 0.477185 0.493731 -0.011855
C22   C     C_R   0.031213 0.474933 0.494651 -0.014760
C23   C     C_R   0.971466 0.221957 0.400299 -0.135771
C24   C     C_R   0.031350 0.724839 0.606686 -0.124430
C25   C     C_R   0.972524 0.732367 0.587593 -0.136807
C26   C     C_R   0.030417 0.225038 0.383003 -0.127760
C27   C     C_1   0.500390 0.065325 0.499157 -0.185590
C28   C     C_1   0.500384 0.934678 0.500846 -0.192121
C29   C     C_R   0.238454 0.599782 0.423322 0.357160
C30   C     C_R   0.761396 0.436231 0.351064 0.351422
C31   C     C_R   0.242861 0.356357 0.550965 0.396493
C32   C     C_R   0.763734 0.536526 0.642008 0.393696
N3    N     N_1   0.500000 0.500000 0.076820 -0.044956
N4    N     N_1   0.500000 0.500000 0.923180 -0.049797
O9    O     O_2   0.854893 0.739749 0.526847 -0.478149
O10   O     O_2   0.147984 0.252549 0.328548 -0.459740
O11   O     O_2   0.853538 0.223861 0.458167 -0.474918
O12   O     O_2   0.148687 0.690772 0.659994 -0.460876
Cl1   Cl    Cl    0.200511 0.739802 0.315649 -0.509957
Cl2   Cl    Cl    0.796987 0.374024 0.164034 -0.499286
Cl3   Cl    Cl    0.211027 0.205322 0.652101 -0.480645
Cl4   Cl    Cl    0.801590 0.590693 0.828192 -0.467320
N5    N     N_2   0.324182 0.751395 0.431777 -0.422569
H5    H     H_    0.309021 0.820771 0.338402 0.301721
C33   C     C_3   0.335668 0.823172 0.595607 -0.567594
H6    H     H_    0.306502 0.918282 0.614251 0.285054
H7    H     H_    0.380136 0.861199 0.598298 0.203554
H8    H     H_    0.330129 0.748223 0.706093 0.234658
N6    N     N_2   0.670859 0.375044 0.214121 -0.386105
H9    H     H_    0.686827 0.398263 0.094538 0.297951
C34   C     C_3   0.656538 0.221952 0.232698 -0.571537
H10   H     H_    0.695616 0.152876 0.231190 0.253807
H11   H     H_    0.628702 0.187231 0.124472 0.215725
H12   H     H_    0.633317 0.204788 0.354816 0.206668
N7    N     N_2   0.334021 0.227905 0.562633 -0.388822
H13   H     H_    0.369525 0.239623 0.638877 0.259793
C35   C     C_3   0.346375 0.154770 0.400537 -0.626323
H14   H     H_    0.375744 0.061344 0.421009 0.212317
H15   H     H_    0.367352 0.230580 0.310315 0.224062
H16   H     H_    0.306616 0.113388 0.341268 0.278627
N8    N     N_2   0.678299 0.609396 0.792039 -0.372360
H17   H     H_    0.649969 0.544673 0.856132 0.276020
C36   C     C_3   0.661598 0.761670 0.775162 -0.535949
H18   H     H_    0.627428 0.773282 0.677758 0.192654
H19   H     H_    0.698552 0.828541 0.736918 0.254408
H20   H     H_    0.645738 0.804106 0.900538 0.216436

loop_
_geom_bond_atom_site_label_1
_geom_bond_atom_site_label_2
_geom_bond_distance
_ccdc_geom_bond_type
C35   H14   1.105803 S    
C20   C26   1.406064 A    
Cu1   Cu2   2.632177 S    
C6    C12   1.488438 S    
C3    C31   1.416024 A    
C4    C32   1.407757 A    
C3    N2    1.447335 S    
N8    H17   1.029094 S    
C4    N1    1.445748 S    
C16   O12   1.349816 S    
O5    Cu1   1.947978 S    
C17   C23   1.406379 A    
O7    C6    1.284636 A    
C18   C24   1.405656 A    
C19   C21   1.405312 A    
C21   C22   1.406836 A    
H4    C26   1.083202 S    
C7    N5    1.422915 S    
C15   C17   1.402633 A    
C33   H7    1.107840 S    
O2    Cu2   1.936199 S    
N6    C34   1.446768 S    
O3    Cu1   1.941045 S    
C9    C11   1.405069 A    
N5    H5    1.030194 S    
C35   H15   1.111079 S    
O8    C5    1.278819 A    
C13   O9    1.349692 S    
C23   C26   1.398560 A    
C7    C29   1.404089 A    
N8    C36   1.446324 S    
N5    C33   1.451983 S    
C1    C27   1.408836 S    
C16   C18   1.400184 A    
C13   N1    1.374057 A    
C34   H10   1.112085 S    
C10   C32   1.400581 A    
C9    N7    1.422772 S    
C14   N2    1.375157 A    
O1    C1    1.271798 A    
C4    C30   1.408630 A    
C36   H19   1.111253 S    
O7    Cu1   1.949204 S    
C13   C19   1.400845 A    
O1    Cu1   1.936200 S    
C2    C28   1.408988 S    
C17   C21   1.405021 A    
C34   H11   1.111289 S    
C33   H8    1.113114 S    
C27   C28   1.190425 T    
C8    N6    1.426106 S    
Cu2   N3    1.977868 S    
O8    Cu2   1.949206 S    
C31   Cl3   1.767422 S    
O6    Cu2   1.947975 S    
C14   C20   1.403401 A    
C24   C25   1.396849 A    
C8    C30   1.407760 A    
N3    N4    1.195907 T    
H1    C23   1.083225 S    
C35   H16   1.111015 S    
H2    C24   1.083233 S    
C3    C29   1.416409 A    
C30   Cl2   1.767982 S    
O2    C2    1.271767 A    
N7    C35   1.449076 S    
C7    C11   1.401156 A    
O5    C5    1.279470 A    
C18   C22   1.404072 A    
C10   C12   1.422105 A    
C36   H20   1.110291 S    
C32   Cl4   1.767560 S    
C34   H12   1.111910 S    
C5    C11   1.463027 S    
C9    C31   1.400891 A    
C20   C22   1.405095 A    
N7    H13   1.030781 S    
C15   N1    1.374750 A    
O3    C2    1.276317 A    
C16   N2    1.375405 A    
C14   O10   1.349153 S    
Cu1   N4    1.977868 S    
C15   O11   1.349390 S    
H3    C25   1.083259 S    
C33   H6    1.110483 S    
C19   C25   1.405568 A    
C36   H18   1.110397 S    
O4    Cu2   1.941046 S    
C10   N8    1.424447 S    
C29   Cl1   1.770060 S    
N6    H9    1.030178 S    
C8    C12   1.419425 A    
O6    C6    1.288221 A    
O4    C1    1.276259 A    
