data_mof_unit_56529.cif
_audit_creation_date              2013-03-05T15:49:43-0500
_audit_creation_method            fapswitch 2.2
_symmetry_space_group_name_H-M    P1
_symmetry_Int_Tables_number       1
_space_group_crystal_system       triclinic
_cell_length_a                    13.505884
_cell_length_b                    13.451728
_cell_length_c                    27.532317
_cell_angle_alpha                 90.62651
_cell_angle_beta                  90.221646
_cell_angle_gamma                 60.115831
_cell_volume                      4336.6415065

loop_
_atom_site_label
_atom_site_type_symbol
_atom_site_description
_atom_site_fract_x
_atom_site_fract_y
_atom_site_fract_z
_atom_type_partial_charge
O1    O     O_R   0.301780 0.195490 0.553940 -0.490288
O2    O     O_R   0.522450 0.158840 0.550250 -0.492375
C1    C     C_R   0.620609 0.101593 0.569662 0.563958
O3    O     O_R   0.694460 0.003360 0.553820 -0.470425
O4    O     O_R   0.657750 0.819520 0.549120 -0.477748
C2    C     C_R   0.599817 0.779044 0.568371 0.557726
O5    O     O_R   0.501990 0.803120 0.552700 -0.487516
O6    O     O_R   0.318230 0.023430 0.549370 -0.477686
C3    C     C_R   0.277540 0.121800 0.569242 0.562644
O7    O     O_R   0.302950 0.194150 0.446980 -0.475346
O8    O     O_R   0.523540 0.157600 0.451100 -0.506789
C4    C     C_R   0.622100 0.100064 0.431767 0.587215
O9    O     O_R   0.695630 0.002030 0.446860 -0.470857
O10   O     O_R   0.658840 0.818280 0.449970 -0.457413
C5    C     C_R   0.602812 0.774972 0.430835 0.547062
O11   O     O_R   0.503160 0.801780 0.445740 -0.525542
O12   O     O_R   0.319320 0.022190 0.450230 -0.492033
C6    C     C_R   0.332885 0.096651 0.425652 0.543207
Cr1   Cr    Cr6+3 0.417550 0.169090 0.500530 1.092260
Cr2   Cr    Cr6+3 0.669180 0.913420 0.499920 1.139512
Cr3   Cr    Cr6+3 0.413260 0.917540 0.499520 1.074337
O13   O     O_3   0.499990 0.000010 0.499990 -0.316386
C7    C     C_3   0.766317 0.585443 0.735555 -0.103865
C8    C     C_3   0.762244 0.673474 0.773493 -0.064268
H1    H     H_    0.647413 0.856235 0.737865 0.152240
C9    C     C_1   0.697083 0.607420 0.898657 0.031335
C10   C     C_1   0.631345 0.731292 0.615807 0.030038
C11   C     C_3   0.683550 0.565309 0.767274 -0.091474
C12   C     C_3   0.679217 0.653794 0.804343 0.033901
C13   C     C_3   0.579927 0.662885 0.740795 -0.066577
C14   C     C_3   0.662867 0.682605 0.709885 0.034423
C15   C     C_3   0.575812 0.750857 0.778624 -0.101312
C16   C     C_3   0.658480 0.771094 0.746947 -0.083889
C17   C     C_1   0.688028 0.633346 0.856565 -0.013312
C18   C     C_1   0.649410 0.703931 0.657732 -0.011680
H2    H     H_    0.505111 0.658452 0.726680 0.190937
C19   C     C_3   0.147058 0.081741 0.740653 0.233488
C20   C     C_3   0.239230 0.057148 0.779233 -0.126562
C21   C     C_1   0.099177 0.198759 0.900826 0.044373
C22   C     C_1   0.230869 0.137453 0.617026 0.030653
C23   C     C_3   0.057875 0.189199 0.768457 -0.141308
C24   C     C_3   0.151142 0.166416 0.806728 -0.002284
C25   C     C_3   0.095578 0.263025 0.738896 -0.127503
C26   C     C_3   0.183498 0.153916 0.711428 0.005392
C27   C     C_3   0.187822 0.238529 0.777301 0.229439
C28   C     C_3   0.276768 0.131098 0.749557 -0.135771
C29   C     C_1   0.127818 0.179221 0.858910 0.017280
C30   C     C_1   0.204476 0.146165 0.659153 0.009243
H3    H     H_    0.038512 0.347631 0.722382 0.135428
H4    H     H_    0.968505 0.211729 0.776330 0.119722
C31   C     C_3   0.690538 0.243678 0.738014 -0.140144
C32   C     C_3   0.588328 0.283732 0.772817 0.235698
C33   C     C_1   0.689852 0.205956 0.902045 0.044790
C34   C     C_1   0.636292 0.134006 0.617419 0.048414
C35   C     C_3   0.763557 0.143505 0.773389 -0.114976
C36   C     C_3   0.659572 0.185887 0.807754 -0.000374
C37   C     C_3   0.722688 0.069198 0.746982 0.238887
C38   C     C_3   0.651366 0.166948 0.711970 -0.000425
C39   C     C_3   0.620522 0.109094 0.781716 -0.145598
C40   C     C_3   0.547232 0.209395 0.746308 -0.121990
C41   C     C_1   0.671602 0.195558 0.860072 0.027200
C42   C     C_1   0.644833 0.152758 0.659570 0.027213
H5    H     H_    0.593394 0.052700 0.799382 0.131885
C43   C     C_R   0.642435 0.715730 0.383841 0.018160
C44   C     C_R   0.740008 0.707685 0.360946 0.194374
C45   C     C_R   0.747616 0.699836 0.310501 -0.107475
C46   C     C_R   0.666467 0.687926 0.283055 -0.015366
C47   C     C_R   0.580169 0.678160 0.306833 -0.122888
C48   C     C_R   0.567395 0.693318 0.356736 -0.118600
C49   C     C_R   0.575317 0.723727 0.201296 -0.098492
C50   C     C_R   0.582984 0.700664 0.151404 0.199003
C51   C     C_R   0.790051 0.605623 0.157867 -0.136246
C52   C     C_R   0.781598 0.625861 0.207311 -0.120108
C53   C     C_R   0.674423 0.680833 0.229818 -0.006037
C54   C     C_R   0.692012 0.634830 0.130131 0.021460
H6    H     H_    0.491833 0.772734 0.217975 0.135718
H7    H     H_    0.816758 0.704283 0.292904 0.155465
H8    H     H_    0.494089 0.695160 0.373530 0.173625
C55   C     C_R   0.310249 0.101994 0.373296 -0.025022
C56   C     C_R   0.264782 0.038597 0.351684 -0.123365
C57   C     C_R   0.241382 0.047898 0.302141 -0.159607
C58   C     C_R   0.265815 0.118211 0.273129 0.013808
C59   C     C_R   0.321196 0.174323 0.294030 0.217191
C60   C     C_R   0.339899 0.167863 0.344195 -0.113479
C61   C     C_R   0.157201 0.260236 0.209422 -0.066217
C62   C     C_R   0.108458 0.289043 0.163772 -0.146517
C63   C     C_R   0.173798 0.088186 0.145782 0.204932
C64   C     C_R   0.225250 0.059686 0.191775 -0.084232
C65   C     C_R   0.217864 0.145456 0.223608 0.021101
C66   C     C_R   0.114681 0.204450 0.131606 0.005540
H9    H     H_    0.243222 0.985211 0.373261 0.161446
H10   H     H_    0.145807 0.328472 0.234073 0.162298
H11   H     H_    0.061457 0.378978 0.154475 0.140633
H12   H     H_    0.198946 0.004383 0.286947 0.138287
C67   C     C_R   0.634393 0.124676 0.381764 0.021765
C68   C     C_R   0.637259 0.223332 0.366939 0.206101
C69   C     C_R   0.640624 0.240901 0.316899 -0.071547
C70   C     C_R   0.638387 0.163700 0.282519 0.034074
C71   C     C_R   0.632523 0.068365 0.298362 -0.093459
C72   C     C_R   0.632236 0.048380 0.347344 -0.151705
C73   C     C_R   0.706312 0.085084 0.199283 -0.081016
C74   C     C_R   0.719088 0.099293 0.150005 0.217039
C75   C     C_R   0.607359 0.306347 0.162162 -0.149867
C76   C     C_R   0.591488 0.290817 0.210669 -0.073438
C77   C     C_R   0.645027 0.180370 0.230116 0.027101
C78   C     C_R   0.675760 0.211556 0.132120 0.010224
H13   H     H_    0.746391 0.999080 0.213595 0.148214
H14   H     H_    0.540222 0.365536 0.233249 0.160778
H15   H     H_    0.572016 0.393162 0.149067 0.161271
H16   H     H_    0.626187 0.974516 0.358554 0.124395
O14   O     O_R   0.819250 0.149410 0.965240 -0.487226
O15   O     O_R   0.006940 0.180310 0.968270 -0.487039
C79   C     C_R   0.050466 0.234362 0.948206 0.560189
O16   O     O_R   0.028420 0.332670 0.963010 -0.478768
O17   O     O_R   0.810130 0.520390 0.966030 -0.491529
C80   C     C_R   0.711886 0.561963 0.946474 0.560632
O18   O     O_R   0.636050 0.541380 0.962520 -0.470443
O19   O     O_R   0.666480 0.323610 0.968170 -0.481644
C81   C     C_R   0.722130 0.223692 0.949408 0.553537
O20   O     O_R   0.817280 0.156800 0.072180 -0.448274
O21   O     O_R   0.005110 0.187160 0.067410 -0.454480
C82   C     C_R   0.048957 0.243359 0.086242 0.562169
O22   O     O_R   0.026450 0.340060 0.069950 -0.515593
O23   O     O_R   0.808300 0.527240 0.065170 -0.512036
C83   C     C_R   0.708893 0.573782 0.083882 0.567248
O24   O     O_R   0.634070 0.548770 0.069460 -0.460234
O25   O     O_R   0.664650 0.330470 0.067300 -0.511132
C84   C     C_R   0.718577 0.231848 0.086651 0.562599
Cr4   Cr    Cr6+3 0.909770 0.175810 0.018240 1.154393
Cr5   Cr    Cr6+3 0.913300 0.427650 0.016090 1.085554
Cr6   Cr    Cr6+3 0.657770 0.431010 0.016900 1.119109
O26   O     O_3   0.826940 0.344820 0.017080 -0.300202
H17   H     H_    0.837051 0.677801 0.787678 0.188695
N1    N     N_R   0.211510 0.325926 0.796534 0.090221
O27   O     O_R   0.238427 0.383555 0.767018 -0.284021
O28   O     O_R   0.205680 0.347230 0.842931 -0.288994
N2    N     N_R   0.512695 0.403364 0.786298 0.100891
O29   O     O_R   0.455347 0.477772 0.752880 -0.294152
O30   O     O_R   0.502818 0.436776 0.831393 -0.298050
H18   H     H_    0.717759 0.299947 0.720305 0.130675
H19   H     H_    0.458156 0.238590 0.734806 0.173900
N3    N     N_R   0.799167 0.949443 0.733882 0.099452
O31   O     O_R   0.857213 0.876089 0.767536 -0.305746
O32   O     O_R   0.810285 0.915085 0.688888 -0.300793
H20   H     H_    0.852460 0.114150 0.785184 0.166968
N4    N     N_R   0.830209 0.709721 0.388042 0.094449
O33   O     O_R   0.883968 0.758980 0.370304 -0.319088
O34   O     O_R   0.869749 0.648189 0.426979 -0.283731
H21   H     H_    0.843968 0.517699 0.717091 0.125611
N5    N     N_R   0.480353 0.740570 0.123497 0.096150
O35   O     O_R   0.473455 0.780543 0.080027 -0.251640
O36   O     O_R   0.390694 0.744420 0.142753 -0.282906
H22   H     H_    0.859923 0.590845 0.228015 0.129188
H23   H     H_    0.874861 0.556326 0.142464 0.149715
H24   H     H_    0.519991 0.662655 0.286763 0.137138
H25   H     H_    0.271560 0.970624 0.202548 0.153489
N6    N     N_R   0.182226 0.998776 0.114263 0.110785
O37   O     O_R   0.217375 0.990750 0.069696 -0.257335
O38   O     O_R   0.161688 0.920750 0.130981 -0.249152
N7    N     N_R   0.359025 0.237337 0.264939 0.060431
O39   O     O_R   0.398648 0.201977 0.221315 -0.330123
O40   O     O_R   0.363354 0.324562 0.283409 -0.340224
H26   H     H_    0.379924 0.212623 0.360555 0.164222
N8    N     N_R   0.638694 0.304268 0.401352 0.086728
O41   O     O_R   0.613878 0.406250 0.387382 -0.325863
O42   O     O_R   0.671320 0.275113 0.445998 -0.307462
N9    N     N_R   0.776292 0.999792 0.118875 0.103025
O43   O     O_R   0.853849 0.902127 0.136382 -0.298575
O44   O     O_R   0.740229 0.002453 0.074739 -0.286908
H27   H     H_    0.647532 0.313494 0.304786 0.142168
H28   H     H_    0.498171 0.818722 0.797045 0.125962
H29   H     H_    0.626212 0.009752 0.272966 0.138361
H30   H     H_    0.693922 0.480418 0.776378 0.140269
H31   H     H_    0.296114 0.972484 0.795729 0.138160
N10   N     N_R   0.126544 0.994198 0.719254 0.105001
O45   O     O_R   0.025654 0.004616 0.721340 -0.290880
O46   O     O_R   0.209159 0.905699 0.697377 -0.291662
H32   H     H_    0.366031 0.109061 0.741685 0.113318

loop_
_geom_bond_atom_site_label_1
_geom_bond_atom_site_label_2
_geom_bond_distance
_ccdc_geom_bond_type
C8    H17   1.109833 S    
C73   H13   1.082111 S    
C26   C30   1.460472 S    
C35   C36   1.546987 S    
C38   C42   1.461266 S    
C73   C74   1.395508 A    
O16   Cr5   2.045175 S    
C52   C53   1.398701 A    
C28   H32   1.110292 S    
C67   C68   1.411539 A    
C63   C64   1.404180 A    
C47   H24   1.082735 S    
C57   C58   1.403970 A    
N10   O46   1.300330 A    
O4    Cr2   1.920303 S    
C61   C62   1.383213 A    
C72   H16   1.084873 S    
N2    O30   1.300236 A    
O8    Cr1   1.927477 S    
C27   N1    1.457670 S    
C74   N9    1.439618 S    
C70   C77   1.472442 S    
C37   N3    1.457426 S    
C64   H25   1.083558 S    
O14   C81   1.268066 A    
N8    O41   1.301765 A    
N4    O33   1.301531 A    
C12   C15   1.533658 S    
O4    C2    1.274214 A    
C56   C57   1.391793 A    
C1    C34   1.428714 S    
C11   H30   1.110432 S    
C35   H20   1.109241 S    
C50   N5    1.434979 S    
C38   C40   1.547925 S    
C5    O11   1.275644 A    
O25   Cr6   1.917825 S    
C78   C84   1.465083 S    
C80   O18   1.268714 A    
C1    O3    1.268296 A    
O12   C6    1.301307 A    
C23   C24   1.550161 S    
C8    C12   1.535257 S    
O15   C79   1.271474 A    
O19   Cr6   1.921081 S    
C32   C40   1.540993 S    
O19   C81   1.272563 A    
C33   C41   1.201837 T    
O14   Cr4   2.039006 S    
N6    O37   1.301207 A    
C59   N7    1.438972 S    
C59   C60   1.398929 A    
C6    C55   1.467457 S    
C21   C79   1.429264 S    
C66   C82   1.471231 S    
C7    C8    1.550744 S    
C14   C16   1.537945 S    
C4    C67   1.448780 S    
C49   C50   1.397735 A    
O15   Cr4   1.927101 S    
Cr4   O26   1.971823 S    
C31   H18   1.110203 S    
C45   C46   1.401359 A    
C7    H21   1.109217 S    
C39   C40   1.562368 S    
N6    O38   1.300820 A    
C50   C54   1.411181 A    
Cr3   O13   1.974193 S    
C23   C25   1.559736 S    
C48   H8    1.083272 S    
C51   C54   1.403957 A    
C76   C77   1.400254 A    
C61   H10   1.083181 S    
C26   C28   1.547455 S    
C69   C70   1.408858 A    
N4    O34   1.301555 A    
C73   C77   1.404648 A    
O1    Cr1   2.046046 S    
C51   H23   1.082721 S    
C32   C36   1.530331 S    
C31   C32   1.540085 S    
O10   Cr2   1.920102 S    
Cr1   O13   1.971998 S    
O1    C3    1.265250 A    
N9    O44   1.301594 A    
C62   C66   1.403367 A    
N9    O43   1.301589 A    
C46   C53   1.468645 S    
C61   C65   1.399236 A    
C67   C72   1.400193 A    
C47   C48   1.385536 A    
N1    O28   1.300162 A    
C71   H29   1.082714 S    
C34   C42   1.202196 T    
C10   C18   1.202094 T    
O5    Cr3   2.036313 S    
C12   C17   1.460054 S    
C3    C22   1.428461 S    
O12   Cr3   1.918776 S    
C69   H27   1.082415 S    
C68   N8    1.442818 S    
C54   C83   1.463062 S    
C24   C27   1.530349 S    
N7    O40   1.301455 A    
Cr5   O26   1.974474 S    
C25   C26   1.543393 S    
C49   C53   1.404781 A    
C19   C20   1.540917 S    
C62   H11   1.082732 S    
C40   H19   1.109420 S    
C19   N10   1.455790 S    
C2    C10   1.428669 S    
O7    Cr1   2.038690 S    
C5    C43   1.467420 S    
C68   C69   1.405123 A    
H1    C16   1.109929 S    
C33   C81   1.428230 S    
C32   N2    1.456947 S    
O6    C3    1.270515 A    
O23   Cr5   1.927125 S    
C31   C38   1.544169 S    
C43   C48   1.403089 A    
C4    O9    1.265586 A    
C25   C27   1.538525 S    
O21   C82   1.275232 A    
N1    O27   1.300158 A    
C60   H26   1.083581 S    
C46   C47   1.401670 A    
C15   H28   1.109166 S    
Cr2   O13   1.981398 S    
C44   C45   1.392021 A    
C35   C37   1.537268 S    
O22   Cr5   2.036904 S    
C49   H6    1.083255 S    
C83   O24   1.274709 A    
N5    O36   1.300746 A    
C27   C28   1.538830 S    
C37   C39   1.538684 S    
C7    C11   1.549195 S    
O25   C84   1.274317 A    
C23   H4    1.109863 S    
C76   H14   1.082728 S    
N3    O32   1.300203 A    
C21   C29   1.202513 T    
C79   O16   1.265045 A    
C22   C30   1.201955 T    
C45   H7    1.081732 S    
C11   C12   1.538273 S    
O9    Cr2   2.036890 S    
C9    C17   1.202039 T    
O2    Cr1   1.922138 S    
C36   C41   1.460601 S    
C25   H3    1.109287 S    
O21   Cr4   1.921442 S    
C51   C52   1.379273 A    
O6    Cr3   1.925884 S    
O8    C4    1.274405 A    
O20   C84   1.268549 A    
O11   Cr3   2.042273 S    
C20   C24   1.545632 S    
C2    O5    1.268452 A    
O20   Cr4   2.042612 S    
N2    O29   1.300125 A    
C39   H5    1.110275 S    
C8    C16   1.549770 S    
N5    O35   1.301334 A    
C36   C39   1.543685 S    
C13   H2    1.110007 S    
C75   H15   1.083522 S    
C15   C16   1.548194 S    
C56   H9    1.082814 S    
C11   C13   1.547725 S    
O2    C1    1.273729 A    
C82   O22   1.266237 A    
N10   O45   1.299919 A    
C71   C72   1.378399 A    
C43   C44   1.417211 A    
C13   C15   1.547962 S    
C57   H12   1.083158 S    
C13   C14   1.535527 S    
C37   C38   1.531161 S    
C55   C60   1.399640 A    
C58   C65   1.476561 S    
O24   Cr6   2.038142 S    
O7    C6    1.298066 A    
C14   C18   1.460166 S    
N8    O42   1.301182 A    
C70   C71   1.398161 A    
C74   C78   1.413801 A    
C75   C78   1.404452 A    
C31   C35   1.560113 S    
C24   C29   1.461858 S    
C19   C23   1.540853 S    
Cr6   O26   1.981119 S    
O18   Cr6   2.035470 S    
N7    O39   1.301544 A    
C9    C80   1.428574 S    
C20   C28   1.561315 S    
C20   H31   1.109180 S    
C55   C56   1.402249 A    
O3    Cr2   2.037396 S    
C19   C26   1.525963 S    
C63   N6    1.433195 S    
C64   C65   1.404667 A    
C58   C59   1.417792 A    
C63   C66   1.415050 A    
C52   H22   1.081900 S    
C75   C76   1.387832 A    
N3    O31   1.300118 A    
O10   C5    1.272409 A    
C44   N4    1.437778 S    
O17   C80   1.274699 A    
C7    C14   1.533856 S    
O23   C83   1.273028 A    
O17   Cr5   1.920424 S    
