data_mof_unit_28111.cif
_audit_creation_date              2012-12-11T17:38:26-0500
_audit_creation_method            fapswitch 2.2
_symmetry_space_group_name_H-M    P1
_symmetry_Int_Tables_number       1
_space_group_crystal_system       monoclinic
_cell_length_a                    24.898042
_cell_length_b                    7.07061
_cell_length_c                    22.659632
_cell_angle_alpha                 90.0
_cell_angle_beta                  96.263342
_cell_angle_gamma                 90.0
_cell_volume                      3965.28897107

loop_
_atom_site_label
_atom_site_type_symbol
_atom_type_description
_atom_site_fract_x
_atom_site_fract_y
_atom_site_fract_z
_atom_type_partial_charge
O1    O     O_R   0.551910 0.505710 0.449140 -0.538465
O2    O     O_R   0.448090 0.005710 0.550860 -0.538464
O3    O     O_R   0.442510 0.174130 0.436530 -0.533422
O4    O     O_R   0.557490 0.674130 0.563470 -0.533422
C1    C     C_R   0.423628 0.345023 0.421524 0.720968
C2    C     C_R   0.576372 0.845023 0.578476 0.720968
O5    O     O_R   0.551150 0.175880 0.442070 -0.540025
O6    O     O_R   0.448850 0.675880 0.557930 -0.540024
O7    O     O_R   0.557510 0.007410 0.556440 -0.537386
O8    O     O_R   0.442490 0.507410 0.443560 -0.537386
C3    C     C_R   0.568761 0.344855 0.428603 0.720994
C4    C     C_R   0.431239 0.844856 0.571397 0.720993
O9    O     O_3   0.501960 0.339800 0.537520 -0.372735
O10   O     O_3   0.498040 0.839800 0.462480 -0.372735
V1    V     V_3+5 0.499640 0.064240 0.493040 1.397034
V2    V     V_3+5 0.500360 0.564240 0.506960 1.397034
C5    C     C_R   0.167275 0.089750 0.817963 -0.179595
C6    C     C_R   0.832725 0.589750 0.182037 -0.179596
H1    H     H_    0.179632 0.216628 0.796343 0.215056
H2    H     H_    0.820368 0.716628 0.203657 0.215056
C7    C     C_R   0.127542 0.102070 0.857282 -0.156255
C8    C     C_R   0.872458 0.602070 0.142718 -0.156255
H3    H     H_    0.110230 0.239093 0.865114 0.155866
H4    H     H_    0.889770 0.739093 0.134886 0.155866
C9    C     C_R   0.110431 0.939344 0.885931 -0.147155
C10   C     C_R   0.889569 0.439343 0.114069 -0.147154
C11   C     C_R   0.134271 0.764380 0.874009 -0.244082
C12   C     C_R   0.865729 0.264380 0.125991 -0.244082
H5    H     H_    0.122415 0.635983 0.895196 0.148839
H6    H     H_    0.877585 0.135983 0.104804 0.148839
C13   C     C_R   0.174157 0.752550 0.834986 0.639458
C14   C     C_R   0.825843 0.252550 0.165014 0.639458
C15   C     C_R   0.190922 0.915236 0.806713 -0.032328
C16   C     C_R   0.809078 0.415237 0.193287 -0.032328
C17   C     C_1   0.232391 0.903255 0.766453 0.076244
C18   C     C_1   0.767609 0.403256 0.233547 0.076245
C19   C     C_1   0.267076 0.892453 0.732913 0.076360
C20   C     C_1   0.732924 0.392453 0.267087 0.076360
C21   C     C_R   0.325459 0.043139 0.664527 0.639744
C22   C     C_R   0.674540 0.543139 0.335473 0.639744
C23   C     C_R   0.365428 0.031283 0.625604 -0.247729
C24   C     C_R   0.634572 0.531283 0.374396 -0.247729
H7    H     H_    0.377383 0.159709 0.604507 0.148635
H8    H     H_    0.622616 0.659709 0.395493 0.148635
C25   C     C_R   0.389237 0.856267 0.613679 -0.147816
C26   C     C_R   0.610763 0.356267 0.386321 -0.147815
C27   C     C_R   0.371972 0.693489 0.642179 -0.152221
C28   C     C_R   0.628028 0.193489 0.357821 -0.152221
H9    H     H_    0.389231 0.556406 0.634312 0.156133
H10   H     H_    0.610769 0.056406 0.365687 0.156133
C29   C     C_R   0.332160 0.705838 0.681401 -0.179639
C30   C     C_R   0.667840 0.205838 0.318599 -0.179639
H11   H     H_    0.319703 0.578935 0.702931 0.215361
H12   H     H_    0.680297 0.078935 0.297069 0.215361
C31   C     C_R   0.308573 0.880423 0.692690 -0.032509
C32   C     C_R   0.691427 0.380423 0.307310 -0.032509
C33   C     C_3   0.780035 0.686978 0.774844 -0.125175
C34   C     C_3   0.219964 0.186978 0.225156 -0.125175
C35   C     C_3   0.742541 0.987484 0.813266 -0.373787
C36   C     C_3   0.257459 0.487484 0.186734 -0.373787
C37   C     C_3   0.693493 0.978532 0.764796 -0.331197
C38   C     C_3   0.306507 0.478532 0.235203 -0.331197
H13   H     H_    0.767723 0.623690 0.816061 0.095588
H14   H     H_    0.232277 0.123690 0.183939 0.095588
H15   H     H_    0.750469 0.137579 0.826434 0.156960
H16   H     H_    0.249531 0.637580 0.173566 0.156960
H17   H     H_    0.732704 0.911486 0.853700 0.142293
H18   H     H_    0.267296 0.411486 0.146300 0.142293
H19   H     H_    0.658330 0.911065 0.782462 0.153717
H20   H     H_    0.341670 0.411065 0.217537 0.153717
H21   H     H_    0.681362 0.124844 0.753425 0.183220
H22   H     H_    0.318638 0.624844 0.246575 0.183220
C39   C     C_1   0.622118 0.857396 0.623907 -0.185711
C40   C     C_1   0.377882 0.357396 0.376093 -0.185711
C41   C     C_3   0.793471 0.900177 0.790256 0.232619
C42   C     C_3   0.206529 0.400177 0.209744 0.232619
C43   C     C_3   0.730310 0.673501 0.724741 -0.123301
C44   C     C_3   0.269690 0.173501 0.275259 -0.123301
C45   C     C_3   0.708239 0.876526 0.708011 0.233228
C46   C     C_3   0.291761 0.376526 0.291989 0.233228
C47   C     C_3   0.754681 0.991091 0.684544 -0.375318
C48   C     C_3   0.245319 0.491091 0.315456 -0.375317
C49   C     C_3   0.803465 0.010519 0.733142 -0.325757
C50   C     C_3   0.196534 0.510519 0.266858 -0.325759
C51   C     C_1   0.660691 0.868982 0.661606 -0.065675
C52   C     C_1   0.339309 0.368982 0.338394 -0.065675
C53   C     C_1   0.840549 0.921902 0.836706 -0.064909
C54   C     C_1   0.159450 0.421902 0.163294 -0.064908
C55   C     C_1   0.878585 0.938869 0.874873 -0.191374
C56   C     C_1   0.121415 0.438869 0.125127 -0.191374
H23   H     H_    0.841259 0.963061 0.715904 0.152274
H24   H     H_    0.158741 0.463060 0.284096 0.152275
H25   H     H_    0.809256 0.162731 0.743996 0.171779
H26   H     H_    0.190744 0.662730 0.256003 0.171779
H27   H     H_    0.767883 0.921397 0.644572 0.141069
H28   H     H_    0.232117 0.421397 0.355428 0.141069
H29   H     H_    0.745227 0.616123 0.683965 0.097011
H30   H     H_    0.254773 0.116123 0.316035 0.097011
H31   H     H_    0.740025 0.134612 0.670455 0.156239
H32   H     H_    0.259975 0.634612 0.329545 0.156239
O11   O     O_R   0.057480 0.291690 0.056480 -0.528915
O12   O     O_R   0.942520 0.791690 0.943520 -0.528915
O13   O     O_R   0.948840 0.619880 0.057940 -0.542204
O14   O     O_R   0.051160 0.119880 0.942060 -0.542204
C57   C     C_R   0.931455 0.450766 0.071653 0.719465
C58   C     C_R   0.068545 0.950766 0.928347 0.719465
O15   O     O_R   0.057480 0.621520 0.063480 -0.543826
O16   O     O_R   0.942520 0.121520 0.936520 -0.543826
O17   O     O_R   0.051910 0.789880 0.949130 -0.536554
O18   O     O_R   0.948090 0.289880 0.050870 -0.536555
C59   C     C_R   0.076187 0.452229 0.079018 0.720969
C60   C     C_R   0.923812 0.952229 0.920982 0.720970
O19   O     O_3   0.998020 0.455790 0.962510 -0.370993
O20   O     O_3   0.001980 0.955790 0.037490 -0.370993
V3    V     V_3+5 0.000370 0.731410 0.006960 1.400039
V4    V     V_3+5 0.999630 0.231410 0.993040 1.400039
C61   C     C_R   0.829865 0.575028 0.761028 0.092167
C62   C     C_R   0.850164 0.583422 0.705292 -0.134629
C63   C     C_R   0.896711 0.483516 0.695129 -0.117721
C64   C     C_R   0.924239 0.376310 0.740436 -0.113505
C65   C     C_R   0.905265 0.368674 0.796043 -0.109817
C66   C     C_R   0.858326 0.466108 0.806319 -0.138791
H33   H     H_    0.830578 0.667080 0.669334 0.101159
H34   H     H_    0.911688 0.490461 0.652100 0.115815
H35   H     H_    0.960462 0.300001 0.732563 0.114071
H36   H     H_    0.927070 0.287337 0.831230 0.131085
H37   H     H_    0.844605 0.458108 0.849988 0.105017
C67   C     C_R   0.170135 0.075027 0.238972 0.092166
C68   C     C_R   0.149836 0.083420 0.294708 -0.134628
C69   C     C_R   0.103289 0.983514 0.304871 -0.117722
C70   C     C_R   0.075761 0.876309 0.259564 -0.113505
C71   C     C_R   0.094734 0.868674 0.203957 -0.109817
C72   C     C_R   0.141673 0.966109 0.193681 -0.138791
H38   H     H_    0.169422 0.167079 0.330667 0.101159
H39   H     H_    0.088313 0.990458 0.347900 0.115815
H40   H     H_    0.039538 0.799999 0.267437 0.114071
H41   H     H_    0.072930 0.787338 0.168770 0.131085
H42   H     H_    0.155394 0.958110 0.150012 0.105017
F1    F     F_    0.196578 0.582133 0.825059 -0.706421
F2    F     F_    0.803422 0.082133 0.174941 -0.706422
F3    F     F_    0.303087 0.213618 0.674480 -0.706770
F4    F     F_    0.696913 0.713618 0.325520 -0.706770
C73   C     C_R   0.684422 0.540342 0.738020 0.095626
C74   C     C_R   0.663850 0.535302 0.793636 -0.138606
C75   C     C_R   0.616628 0.434784 0.800903 -0.123046
C76   C     C_R   0.588534 0.341238 0.752791 -0.119634
C77   C     C_R   0.608144 0.344847 0.697433 -0.114466
C78   C     C_R   0.656123 0.440661 0.690290 -0.144690
H43   H     H_    0.682676 0.613672 0.831230 0.101336
H44   H     H_    0.601160 0.432776 0.843720 0.117874
H45   H     H_    0.551635 0.265699 0.758429 0.116263
H46   H     H_    0.586381 0.272460 0.660095 0.132855
H47   H     H_    0.669985 0.443518 0.646627 0.103723
C79   C     C_R   0.315578 0.040342 0.261980 0.095625
C80   C     C_R   0.336150 0.035302 0.206363 -0.138606
C81   C     C_R   0.383372 0.934783 0.199097 -0.123047
C82   C     C_R   0.411466 0.841237 0.247209 -0.119634
C83   C     C_R   0.391856 0.844846 0.302567 -0.114466
C84   C     C_R   0.343877 0.940661 0.309710 -0.144689
H48   H     H_    0.317324 0.113672 0.168770 0.101335
H49   H     H_    0.398839 0.932776 0.156280 0.117875
H50   H     H_    0.448365 0.765698 0.241570 0.116263
H51   H     H_    0.413619 0.772460 0.339905 0.132854
H52   H     H_    0.330015 0.943518 0.353373 0.103723

loop_
_geom_bond_atom_site_label_1
_geom_bond_atom_site_label_2
_ccdc_geom_bond_type
C57   O18   A    
C34   C67   S    
C82   C83   A    
C22   F4    S    
C11   H5    S    
O12   C60   A    
C77   C78   A    
O1    C3    A    
O2    C4    A    
C67   C68   A    
C42   C50   S    
C2    O7    A    
O14   C58   A    
O20   V3    S    
C34   C42   S    
C27   H9    S    
C63   H34   S    
O5    C3    A    
C55   C60   S    
C5    C15   A    
C38   C46   S    
C81   C82   A    
C17   C19   T    
C14   F2    S    
C47   H27   S    
C44   C46   S    
C73   C74   A    
C49   H25   S    
C66   H37   S    
C38   H20   S    
C36   C38   S    
C24   C26   A    
C25   C27   A    
C1    C40   S    
C62   C63   A    
C46   C52   S    
O12   V3    S    
C35   H17   S    
O14   V4    S    
C53   C55   T    
C41   C49   S    
C21   C31   A    
C3    C26   S    
C69   H39   S    
C71   C72   A    
C22   C32   A    
C44   H30   S    
C13   C15   A    
C43   H29   S    
O10   V2    S    
C42   C54   S    
C6    H2    S    
C75   H44   S    
O19   V4    S    
C37   H21   S    
C28   H10   S    
C36   H16   S    
C72   H42   S    
O6    V2    S    
C23   H7    S    
C35   C41   S    
C24   H8    S    
C56   C59   S    
C10   C57   S    
C47   C49   S    
C30   H12   S    
C9    C58   S    
C75   C76   A    
C43   C45   S    
C34   H14   S    
C73   C78   A    
C26   C28   A    
C35   C37   S    
C48   H28   S    
C11   C13   A    
C33   C43   S    
C12   C14   A    
C21   C23   A    
C70   H40   S    
C45   C47   S    
O17   V3    S    
C64   H35   S    
C44   C79   S    
C27   C29   A    
C47   H31   S    
C29   C31   A    
C71   H41   S    
C36   C42   S    
C5    C7    A    
O16   C60   A    
C76   H45   S    
C29   H11   S    
C14   C16   A    
O4    V2    S    
O13   V3    S    
C61   C66   A    
C43   C73   S    
C74   H43   S    
C22   C24   A    
C84   H52   S    
C28   C30   A    
O6    C4    A    
O15   V3    S    
C65   C66   A    
C38   H22   S    
O13   C57   A    
O1    V2    S    
C50   H26   S    
C40   C52   T    
O2    V1    S    
C6    C16   A    
C39   C51   T    
C79   C80   A    
C83   H51   S    
C21   F3    S    
C41   C53   S    
C54   C56   T    
C81   H49   S    
C48   C50   S    
O9    V1    S    
C83   C84   A    
C8    H4    S    
O4    C2    A    
O11   C59   A    
C78   H47   S    
C13   F1    S    
C70   C71   A    
O18   V4    S    
C45   C51   S    
C79   C84   A    
C64   C65   A    
C2    C39   S    
C33   C61   S    
C76   C77   A    
C37   H19   S    
C7    C9    A    
C80   H48   S    
C6    C8    A    
O15   C59   A    
C33   H13   S    
C4    C25   S    
O3    C1    A    
C63   C64   A    
C9    C11   A    
C49   H23   S    
C10   C12   A    
C48   H32   S    
C33   C41   S    
C7    H3    S    
C77   H46   S    
C68   C69   A    
C1    O8    A    
O8    V2    S    
C67   C72   A    
C35   H15   S    
C18   C20   T    
O16   V4    S    
C37   C45   S    
O5    V1    S    
C15   C17   S    
C46   C48   S    
C12   H6    S    
C69   C70   A    
C16   C18   S    
C62   H33   S    
O7    V1    S    
C34   C44   S    
C68   H38   S    
C19   C31   S    
C5    H1    S    
C74   C75   A    
C65   H36   S    
C20   C32   S    
C36   H18   S    
C8    C10   A    
O9    V2    S    
C80   C81   A    
O11   V4    S    
C23   C25   A    
O10   V1    S    
O3    V1    S    
C50   H24   S    
C61   C62   A    
C82   H50   S    
C30   C32   A    
C58   O17   A    
