data_mof_unit_13387.cif
_audit_creation_date              2012-12-11T14:41:10-0500
_audit_creation_method            fapswitch 2.2
_symmetry_space_group_name_H-M    P1
_symmetry_Int_Tables_number       1
_space_group_crystal_system       triclinic
_cell_length_a                    24.631585
_cell_length_b                    17.524006
_cell_length_c                    15.637301
_cell_angle_alpha                 90.190356
_cell_angle_beta                  129.773178
_cell_angle_gamma                 89.376887
_cell_volume                      5187.37727156

loop_
_atom_site_label
_atom_site_type_symbol
_atom_type_description
_atom_site_fract_x
_atom_site_fract_y
_atom_site_fract_z
_atom_type_partial_charge
Br1   Br    Br    0.435781 0.200687 0.688593 -0.615080
Br2   Br    Br    0.433236 0.854033 0.619465 -0.575212
Br3   Br    Br    0.938014 0.686256 0.675754 -0.595423
Br4   Br    Br    0.933188 0.360306 0.617743 -0.562283
C1    C     C_R   0.349974 0.361111 0.235953 -0.131442
C2    C     C_R   0.684993 0.614941 0.503482 0.038262
C3    C     C_3   0.772584 0.085345 0.600101 -0.949278
C4    C     C_3   0.228953 0.455761 0.258276 -0.926149
C5    C     C_3   0.209787 0.640579 0.230847 -1.009386
C6    C     C_3   0.720048 0.928988 0.252480 -0.986920
C7    C     C_3   0.711435 0.123797 0.247937 -1.008797
C8    C     C_R   0.187467 0.891152 0.503916 0.040398
C9    C     C_R   0.183998 0.118576 0.504538 0.037395
C10   C     C_R   0.340252 0.339105 0.503044 -0.013764
C11   C     C_R   0.356903 0.683180 0.501381 -0.028430
C12   C     C_R   0.845792 0.831287 0.503290 -0.013208
C13   C     C_R   0.861729 0.187178 0.501170 -0.028716
C14   C     C_3   0.343595 0.245009 0.627352 0.217880
C15   C     C_3   0.363891 0.795287 0.613483 0.240687
C16   C     C_3   0.849307 0.733943 0.624788 0.225244
C17   C     C_R   0.333201 0.600611 0.192045 -0.113500
C18   C     C_3   0.865652 0.298344 0.612503 0.240264
C19   C     C_3   0.803663 0.675510 0.625099 -0.470239
C20   C     C_3   0.815671 0.348827 0.618000 -0.490200
C21   C     C_3   0.299466 0.184470 0.627300 -0.465304
C22   C     C_3   0.315044 0.848025 0.618831 -0.491519
C23   C     C_3   0.228311 0.311993 0.463400 -0.015272
C24   C     C_3   0.261916 0.702354 0.508253 -0.021343
C25   C     C_3   0.735740 0.807698 0.470732 -0.021565
C26   C     C_3   0.765856 0.202846 0.507476 -0.022645
C27   C     C_3   0.287495 0.211517 0.429509 -0.388089
C28   C     C_R   0.833975 0.894977 0.195636 -0.150663
C29   C     C_3   0.277368 0.798948 0.403730 -0.414844
C30   C     C_3   0.786205 0.706166 0.422384 -0.388088
C31   C     C_3   0.778757 0.301268 0.402401 -0.410420
C32   C     C_3   0.301174 0.278757 0.506854 0.176180
C33   C     C_3   0.316883 0.744244 0.506748 0.202873
C34   C     C_3   0.805759 0.771300 0.506343 0.178829
C35   C     C_3   0.820037 0.246889 0.506058 0.200986
C36   C     C_3   0.731239 0.667936 0.506291 0.316895
C37   C     C_3   0.738208 0.342099 0.507062 0.327687
C38   C     C_3   0.228764 0.173455 0.507501 0.317245
C39   C     C_R   0.833053 0.101876 0.192974 -0.123346
C40   C     C_3   0.237478 0.842727 0.507549 0.330219
C41   C     C_3   0.692105 0.745937 0.469786 -0.469648
C42   C     C_3   0.712573 0.259011 0.492485 -0.474422
C43   C     C_3   0.186987 0.249840 0.467031 -0.478179
C44   C     C_3   0.209698 0.760481 0.492231 -0.468960
C45   C     C_R   0.652177 0.362168 0.759075 -0.134815
C46   C     C_R   0.653902 0.634648 0.763947 -0.129501
C47   C     C_R   0.152725 0.862722 0.760074 -0.135878
C48   C     C_R   0.167338 0.108585 0.798173 -0.111518
C49   C     C_3   0.744852 0.643333 0.426523 -0.401916
C50   C     C_R   0.621591 0.321616 0.794417 0.141362
C51   C     C_3   0.739235 0.363913 0.412373 -0.407094
C52   C     C_3   0.245107 0.148778 0.431070 -0.399381
C53   C     C_3   0.239196 0.863308 0.413390 -0.412255
C54   C     C_2   0.647238 0.249476 0.855691 -0.151790
C55   C     C_2   0.652020 0.743594 0.868560 -0.170129
C56   C     C_2   0.148620 0.750575 0.858112 -0.150488
C57   C     C_2   0.194725 0.156951 0.975134 -0.215522
C58   C     C_2   0.697473 0.208522 0.866562 -0.109458
C59   C     C_2   0.699649 0.785229 0.874774 -0.089090
C60   C     C_2   0.198188 0.709231 0.867576 -0.105340
C61   C     C_R   0.625137 0.673292 0.804148 0.145854
C62   C     C_2   0.264655 0.158195 0.033726 -0.110445
C63   C     C_2   0.308215 0.648222 0.016227 -0.228648
C64   C     C_2   0.357825 0.249438 0.140714 -0.209401
C65   C     C_2   0.807845 0.148849 0.016654 -0.226945
C66   C     C_2   0.809416 0.845101 0.021351 -0.228655
C67   C     C_2   0.238259 0.652985 0.956575 -0.090770
C68   C     C_2   0.306926 0.209705 0.127594 -0.096413
C69   C     C_2   0.737827 0.152959 0.956566 -0.094032
C70   C     C_2   0.739529 0.841512 0.962386 -0.101059
C71   C     C_R   0.617464 0.400460 0.410209 -0.141681
C72   C     C_R   0.122672 0.822532 0.796500 0.141092
C73   C     C_R   0.616428 0.600663 0.409595 -0.138134
C74   C     C_R   0.117542 0.901586 0.410153 -0.135244
C75   C     C_R   0.116183 0.102171 0.410017 -0.140876
C76   C     C_R   0.398252 0.375675 0.594215 -0.105584
C77   C     C_R   0.407644 0.638224 0.592536 -0.106271
C78   C     C_R   0.900941 0.871344 0.594182 -0.109651
C79   C     C_R   0.913712 0.142726 0.592983 -0.100227
C80   C     C_R   0.691120 0.401629 0.594114 -0.150460
C81   C     C_R   0.690201 0.598757 0.594054 -0.149245
C82   C     C_R   0.191301 0.903199 0.594085 -0.152971
C83   C     C_R   0.147842 0.128280 0.861109 0.157515
C84   C     C_R   0.189560 0.101027 0.595003 -0.137245
C85   C     C_R   0.322838 0.373453 0.408630 0.170028
C86   C     C_R   0.333808 0.640531 0.407958 0.187992
C87   C     C_R   0.827965 0.866865 0.409357 0.191441
C88   C     C_R   0.837137 0.142668 0.408336 0.193202
C89   C     C_R   0.563218 0.362842 0.764450 -0.105943
C90   C     C_R   0.566650 0.633111 0.773047 -0.116295
C91   C     C_R   0.064182 0.863583 0.766383 -0.103752
C92   C     C_R   0.077982 0.107520 0.801789 -0.134970
C93   C     C_R   0.442573 0.359907 0.239734 -0.140650
C94   C     C_R   0.687198 0.388859 0.503873 0.041978
C95   C     C_R   0.425506 0.607849 0.198416 -0.141748
C96   C     C_R   0.925904 0.890107 0.199665 -0.137224
C97   C     C_R   0.925181 0.107952 0.198268 -0.140114
C98   C     C_R   0.383368 0.319955 0.204883 0.148290
C99   C     C_R   0.354073 0.621765 0.131907 0.135475
C100  C     C_R   0.855137 0.873539 0.135620 0.152867
C101  C     C_R   0.853781 0.122546 0.132398 0.139271
C102  C     C_3   0.171441 0.425414 0.468518 -0.919739
C103  C     C_3   0.265990 0.587136 0.602420 -0.952363
C104  C     C_3   0.686951 0.920017 0.495875 -0.929473
H1    H     H_    0.299568 0.349055 0.211973 0.110104
H2    H     H_    0.318165 0.829294 0.689729 0.128858
H3    H     H_    0.717603 0.092210 0.568560 0.259846
H4    H     H_    0.231125 0.335551 0.252178 0.135685
H5    H     H_    0.171212 0.455262 0.187783 0.252628
H6    H     H_    0.256663 0.474478 0.227569 0.255944
H7    H     H_    0.239513 0.495572 0.322423 0.267638
H8    H     H_    0.291505 0.713908 0.272799 0.167981
H9    H     H_    0.174159 0.690789 0.187145 0.248842
H10   H     H_    0.199638 0.614828 0.283698 0.253658
H11   H     H_    0.194491 0.599509 0.165119 0.270793
H12   H     H_    0.762498 0.824890 0.248224 0.154515
H13   H     H_    0.796049 0.695970 0.684303 0.130349
H14   H     H_    0.669916 0.916816 0.167995 0.258366
H15   H     H_    0.749087 0.973513 0.246455 0.268567
H16   H     H_    0.707115 0.949950 0.304645 0.261661
H17   H     H_    0.778371 0.207892 0.260275 0.162602
H18   H     H_    0.672556 0.168256 0.228474 0.250435
H19   H     H_    0.716748 0.081703 0.305708 0.263215
H20   H     H_    0.689967 0.094878 0.168943 0.266903
H21   H     H_    0.819327 0.329066 0.689042 0.129354
H22   H     H_    0.680559 0.761136 0.526050 0.182770
H23   H     H_    0.703491 0.245741 0.552111 0.177461
H24   H     H_    0.175559 0.266153 0.523135 0.186470
H25   H     H_    0.199546 0.748524 0.550874 0.177658
H26   H     H_    0.752142 0.727633 0.335773 0.150288
H27   H     H_    0.736854 0.270412 0.326636 0.172090
H28   H     H_    0.257161 0.230417 0.342362 0.129851
H29   H     H_    0.279996 0.588241 0.156568 0.116535
H30   H     H_    0.235082 0.768610 0.328212 0.184194
H31   H     H_    0.337964 0.187374 0.455330 0.222200
H32   H     H_    0.313595 0.822667 0.391386 0.207425
H33   H     H_    0.834215 0.681394 0.440041 0.217396
H34   H     H_    0.814163 0.326597 0.389385 0.207277
H35   H     H_    0.775521 0.588770 0.455860 0.187925
H36   H     H_    0.765908 0.419644 0.430585 0.193903
H37   H     H_    0.275929 0.094300 0.461855 0.185209
H38   H     H_    0.267257 0.918120 0.432169 0.195788
H39   H     H_    0.694330 0.633550 0.341197 0.146641
H40   H     H_    0.780335 0.904107 0.161024 0.114508
H41   H     H_    0.685349 0.370371 0.330859 0.143566
H42   H     H_    0.195514 0.138926 0.344753 0.146768
H43   H     H_    0.185579 0.870899 0.331678 0.143974
H44   H     H_    0.196893 0.328126 0.374533 0.163295
H45   H     H_    0.231356 0.662571 0.436991 0.148101
H46   H     H_    0.704420 0.829401 0.384048 0.171748
H47   H     H_    0.735660 0.163552 0.435497 0.162799
H48   H     H_    0.699548 0.347988 0.771536 0.090988
H49   H     H_    0.701577 0.647414 0.777303 0.089108
H50   H     H_    0.200119 0.848736 0.772487 0.090662
H51   H     H_    0.779654 0.090993 0.158464 0.115624
H52   H     H_    0.219597 0.108856 0.823185 0.081431
H53   H     H_    0.640229 0.742607 0.384134 0.160631
H54   H     H_    0.660716 0.252020 0.407518 0.161828
H55   H     H_    0.134926 0.244092 0.382077 0.159595
H56   H     H_    0.158073 0.754227 0.406765 0.163553
H57   H     H_    0.212798 0.628117 0.986131 0.136974
H58   H     H_    0.288460 0.224449 0.172762 0.119801
H59   H     H_    0.712404 0.127938 0.986110 0.133976
H60   H     H_    0.713791 0.868160 0.990942 0.134056
H61   H     H_    0.716778 0.224528 0.823281 0.124004
H62   H     H_    0.830610 0.618834 0.655329 0.206766
H63   H     H_    0.716871 0.770314 0.827936 0.121970
H64   H     H_    0.217059 0.725066 0.823605 0.123213
H65   H     H_    0.289079 0.132017 0.002607 0.126573
H66   H     H_    0.332891 0.674561 0.985943 0.131627
H67   H     H_    0.375867 0.234278 0.094977 0.131331
H68   H     H_    0.832473 0.175182 0.986287 0.131104
H69   H     H_    0.834165 0.817280 0.991533 0.132072
H70   H     H_    0.628858 0.233141 0.900341 0.150357
H71   H     H_    0.635698 0.758971 0.916645 0.131511
H72   H     H_    0.130679 0.734369 0.903435 0.146920
H73   H     H_    0.832350 0.409472 0.633975 0.204929
H74   H     H_    0.171065 0.183859 0.007300 0.133382
H75   H     H_    0.595204 0.398963 0.324231 0.083921
H76   H     H_    0.594043 0.604548 0.323565 0.085114
H77   H     H_    0.094764 0.898903 0.323945 0.084443
H78   H     H_    0.094019 0.106560 0.324125 0.085093
H79   H     H_    0.419437 0.372839 0.679383 0.107529
H80   H     H_    0.427919 0.645787 0.676483 0.104341
H81   H     H_    0.921361 0.867839 0.678829 0.101841
H82   H     H_    0.941330 0.155144 0.679370 0.111403
H83   H     H_    0.738218 0.403109 0.680540 0.093440
H84   H     H_    0.328472 0.129017 0.660566 0.206789
H85   H     H_    0.737236 0.596376 0.680526 0.094156
H86   H     H_    0.238308 0.904992 0.680562 0.093633
H87   H     H_    0.235919 0.100585 0.682038 0.092909
H88   H     H_    0.530970 0.348544 0.786094 0.126596
H89   H     H_    0.537861 0.644308 0.802157 0.089563
H90   H     H_    0.032788 0.849747 0.789762 0.114376
H91   H     H_    0.050152 0.105494 0.834082 0.088948
H92   H     H_    0.479458 0.344812 0.226727 0.097072
H93   H     H_    0.456785 0.607357 0.172043 0.092570
H94   H     H_    0.956511 0.890190 0.172095 0.090716
H95   H     H_    0.333141 0.908148 0.634976 0.205271
H96   H     H_    0.956115 0.107176 0.171276 0.090629
H97   H     H_    0.354719 0.290381 0.686253 0.062497
H98   H     H_    0.395972 0.760289 0.690523 0.066075
H99   H     H_    0.864900 0.777351 0.688449 0.058617
H100  H     H_    0.898547 0.263400 0.689562 0.067890
H101  H     H_    0.259522 0.369035 0.607361 0.175768
H102  H     H_    0.176908 0.466315 0.527691 0.259570
H103  H     H_    0.124765 0.389694 0.435419 0.257339
H104  H     H_    0.162177 0.457424 0.398962 0.259717
H105  H     H_    0.312096 0.690762 0.680026 0.172300
H106  H     H_    0.289497 0.204538 0.683842 0.135376
H107  H     H_    0.298089 0.558916 0.685255 0.253335
H108  H     H_    0.265973 0.549448 0.545166 0.275302
H109  H     H_    0.211285 0.596073 0.571282 0.259978
H110  H     H_    0.773625 0.856012 0.623460 0.173313
H111  H     H_    0.697492 0.958205 0.561535 0.261588
H112  H     H_    0.639529 0.886283 0.464267 0.258675
H113  H     H_    0.675545 0.954954 0.426853 0.253356
H114  H     H_    0.816593 0.189248 0.679151 0.172401
H115  H     H_    0.805163 0.056667 0.682653 0.253181
H116  H     H_    0.773527 0.049133 0.542613 0.273918
N1    N     N_R   0.389430 0.421450 0.294590 -0.046962
N2    N     N_R   0.581780 0.577610 0.443390 -0.032877
N3    N     N_R   0.081780 0.922390 0.443390 -0.034108
N4    N     N_R   0.081780 0.077610 0.443390 -0.033383
N5    N     N_R   0.419850 0.423100 0.556610 -0.053521
N6    N     N_R   0.419850 0.576900 0.556610 -0.057906
N7    N     N_R   0.919850 0.923100 0.556610 -0.054900
N8    N     N_R   0.919850 0.076900 0.556610 -0.059133
N9    N     N_R   0.627410 0.423100 0.556610 -0.032703
N10   N     N_R   0.627410 0.576900 0.556610 -0.033050
N11   N     N_R   0.127410 0.923100 0.556610 -0.033798
N12   N     N_R   0.389430 0.578550 0.294590 -0.046820
N13   N     N_R   0.127410 0.076900 0.556610 -0.033636
N14   N     N_R   0.374220 0.422390 0.443390 -0.049695
N15   N     N_R   0.374220 0.577610 0.443390 -0.060459
N16   N     N_R   0.874220 0.922390 0.443390 -0.055468
N17   N     N_R   0.874220 0.077610 0.443390 -0.060232
N18   N     N_R   0.555000 0.424040 0.705410 -0.049746
N19   N     N_R   0.555000 0.575960 0.705410 -0.045473
N20   N     N_R   0.055000 0.924040 0.705410 -0.048231
N21   N     N_R   0.055000 0.075960 0.705410 -0.042213
N22   N     N_R   0.446630 0.421450 0.294590 -0.043338
N23   N     N_R   0.889430 0.921450 0.294590 -0.044207
N24   N     N_R   0.446630 0.578550 0.294590 -0.043615
N25   N     N_R   0.946630 0.921450 0.294590 -0.041623
N26   N     N_R   0.946630 0.078550 0.294590 -0.042621
N27   N     N_2   0.235088 0.379079 0.524872 -0.103005
N28   N     N_2   0.296588 0.659534 0.611760 -0.111064
N29   N     N_2   0.747865 0.870956 0.541846 -0.104278
N30   N     N_2   0.801597 0.159057 0.610421 -0.109684
N31   N     N_2   0.252647 0.380747 0.306420 -0.131589
N32   N     N_2   0.283146 0.662413 0.294159 -0.114725
N33   N     N_2   0.762241 0.860167 0.300682 -0.131658
N34   N     N_R   0.889430 0.078550 0.294590 -0.045753
N35   N     N_2   0.778669 0.157982 0.295224 -0.121131
N36   N     N_R   0.612200 0.424040 0.705410 -0.045805
N37   N     N_R   0.612200 0.575960 0.705410 -0.045563
N38   N     N_R   0.112200 0.924040 0.705410 -0.045939
N39   N     N_R   0.112200 0.075960 0.705410 -0.045158
N40   N     N_R   0.581780 0.422390 0.443390 -0.033409
Ni1   Ni    Ni4+2 0.382890 0.500000 0.370170 0.216204
Ni2   Ni    Ni4+2 0.882890 0.000000 0.370170 0.214137
Ni3   Ni    Ni4+2 0.618740 0.500000 0.629830 0.212878
Ni4   Ni    Ni4+2 0.118740 0.000000 0.629830 0.210070
Ni5   Ni    Ni4+2 0.514090 0.500000 0.370170 0.210701
Ni6   Ni    Ni4+2 0.014090 0.000000 0.370170 0.208246
Ni7   Ni    Ni4+2 0.487550 0.500000 0.629830 0.212172
Ni8   Ni    Ni4+2 0.987550 0.000000 0.629830 0.211082

loop_
_geom_bond_atom_site_label_1
_geom_bond_atom_site_label_2
_ccdc_geom_bond_type
C16   C34   S    
C54   C58   D    
C92   H91   S    
C95   C99   A    
C78   N7    A    
C9    C75   A    
C30   H33   S    
C48   H52   S    
N40   Ni5   S    
C20   C37   S    
C75   H78   S    
C3    H116  S    
C104  N29   S    
C5    H9    S    
N12   N24   A    
C45   H48   S    
C7    H19   S    
C97   N26   A    
C93   H92   S    
N2    Ni5   S    
C96   C100  A    
C76   N5    A    
C69   H59   S    
N22   Ni5   S    
C71   H75   S    
C70   H60   S    
C22   C40   S    
C11   C77   A    
C14   C21   S    
C57   H74   S    
C23   H44   S    
C2    C81   A    
C86   N15   A    
C80   H83   S    
C14   H97   S    
C30   C49   S    
C21   H106  S    
C64   C98   S    
N37   Ni3   S    
C6    H16   S    
C89   N18   A    
C72   C91   A    
C10   C32   S    
N1    N22   A    
C45   N36   A    
C66   C100  S    
C17   N12   A    
C79   N8    A    
C30   H26   S    
C29   H32   S    
C45   C50   A    
C102  H102  S    
N21   N39   A    
C49   H39   S    
C73   H76   S    
C3    H115  S    
N15   Ni1   S    
H105  N28   S    
C39   C101  A    
C60   C67   S    
C52   H37   S    
C58   H61   S    
C15   C22   S    
C41   H53   S    
C37   C51   S    
C50   C89   A    
C23   N27   S    
C15   C33   S    
C4    H7    S    
C38   C52   S    
C75   N4    A    
C103  H109  S    
N23   Ni2   S    
C96   H94   S    
C20   H21   S    
H110  N29   S    
C11   C33   S    
N24   Ni5   S    
C1    N1    A    
C8    C74   A    
C25   C34   S    
C66   C70   D    
C15   H98   S    
C37   C42   S    
C28   C100  A    
C58   C69   S    
C65   C69   D    
C65   H68   S    
C17   H29   S    
C27   C52   S    
C57   C83   S    
C22   H2    S    
C77   H80   S    
C84   N13   A    
C93   C98   A    
N14   Ni1   S    
C4    H6    S    
C91   N20   A    
C43   H55   S    
H114  N30   S    
C20   H73   S    
C73   N2    A    
N20   Ni8   S    
C53   H38   S    
C95   H93   S    
C5    H10   S    
C104  H111  S    
C84   H87   S    
N6    N15   A    
N39   Ni4   S    
C13   C88   A    
C68   H58   S    
C57   C62   D    
C17   C99   A    
N1    Ni1   S    
C9    C38   S    
C64   H67   S    
H12   N33   S    
C51   H41   S    
C80   N9    A    
N23   N25   A    
C46   H49   S    
C97   C101  A    
C36   C41   S    
C29   H30   S    
C47   N38   A    
C62   C68   S    
C103  H108  S    
C28   N23   A    
C31   C51   S    
C81   N10   A    
N16   Ni2   S    
C44   H25   S    
C7    H18   S    
C47   C72   A    
C19   H13   S    
C6    H15   S    
C31   H27   S    
C42   H23   S    
C65   C101  S    
C85   N14   A    
H4    N31   S    
C63   C99   S    
C102  H103  S    
C63   H66   S    
C37   C94   S    
C71   C94   A    
C29   C33   S    
N8    N17   A    
C25   C41   S    
N7    N16   A    
C13   C79   A    
C7    N35   S    
C102  N27   S    
C87   N16   A    
C31   C35   S    
C90   N19   A    
C24   N28   S    
C10   C85   A    
C87   N33   S    
N9    Ni3   S    
Br4   C18   S    
C88   N17   A    
N3    Ni6   S    
C59   H63   S    
C21   H84   S    
C16   C19   S    
C40   C53   S    
C64   C68   D    
C102  H104  S    
C83   C92   A    
N21   Ni8   S    
C14   C32   S    
N8    Ni8   S    
Br1   C14   S    
C6    N33   S    
C18   H100  S    
Br3   C16   S    
C54   H70   S    
C74   H77   S    
N36   Ni3   S    
C4    H5    S    
H101  N27   S    
N9    N40   A    
C44   H56   S    
C103  N28   S    
C26   H47   S    
N17   Ni2   S    
C74   N3    A    
C96   N25   A    
C56   C72   S    
C77   N6    A    
N13   Ni4   S    
C3    N30   S    
C85   N31   S    
C24   H45   S    
C5    H11   S    
C2    C36   S    
C55   C59   D    
C5    N32   S    
N20   N38   A    
N26   Ni6   S    
C52   H42   S    
N34   Ni2   S    
C92   N21   A    
C93   N22   A    
C88   N35   S    
C10   C76   A    
H8    N32   S    
C23   C43   S    
N11   Ni4   S    
C48   N39   A    
C86   N32   S    
C1    C98   A    
C24   C44   S    
C67   H57   S    
C29   C53   S    
C51   H36   S    
C4    N31   S    
Br2   C15   S    
C30   C34   S    
N18   N36   A    
N25   Ni6   S    
C26   C42   S    
C48   C83   A    
C27   H28   S    
C6    H14   S    
C97   H96   S    
C21   C38   S    
C36   C49   S    
C66   H69   S    
N6    Ni7   S    
C28   H40   S    
C59   C70   S    
C23   C32   S    
C56   H72   S    
N3    N11   A    
H17   N35   S    
C47   H50   S    
C39   H51   S    
C82   N11   A    
N2    N10   A    
C8    C82   A    
C43   H24   S    
C56   C60   D    
C90   H89   S    
C80   C94   A    
N18   Ni7   S    
C55   H71   S    
C22   H95   S    
C95   N24   A    
N4    N13   A    
C78   H81   S    
C40   C44   S    
N4    Ni6   S    
C82   H86   S    
C104  H112  S    
N38   Ni4   S    
C104  H113  S    
N5    Ni7   S    
C62   H65   S    
C81   H85   S    
N10   Ni3   S    
N12   Ni1   S    
C19   H62   S    
C1    H1    S    
C24   C33   S    
C91   H90   S    
C18   C35   S    
C53   H43   S    
C9    C84   A    
C2    C73   A    
C61   C90   A    
C76   H79   S    
C3    H3    S    
C26   C35   S    
C7    H20   S    
C18   C20   S    
C38   C43   S    
C25   N29   S    
C46   C61   A    
N19   Ni7   S    
C60   H64   S    
C31   H34   S    
C89   H88   S    
C13   C35   S    
C63   C67   D    
C26   N30   S    
C41   H22   S    
C103  H107  S    
C12   C87   A    
C8    C40   S    
C12   C78   A    
C42   H54   S    
C50   C54   S    
N7    Ni8   S    
C27   C32   S    
N19   N37   A    
C16   H99   S    
C49   H35   S    
N5    N14   A    
C27   H31   S    
N26   N34   A    
C39   N34   A    
C55   C61   S    
C19   C36   S    
C71   N40   A    
C12   C34   S    
C25   H46   S    
C11   C86   A    
C46   N37   A    
C79   H82   S    
