data_mof_unit_16218.cif
_audit_creation_date              2012-12-11T17:43:22-0500
_audit_creation_method            fapswitch 2.2
_symmetry_space_group_name_H-M    P1
_symmetry_Int_Tables_number       1
_space_group_crystal_system       triclinic
_cell_length_a                    14.983257
_cell_length_b                    15.259758
_cell_length_c                    16.926278
_cell_angle_alpha                 108.573381
_cell_angle_beta                  106.380407
_cell_angle_gamma                 108.784154
_cell_volume                      3138.02323408

loop_
_atom_site_label
_atom_site_type_symbol
_atom_type_description
_atom_site_fract_x
_atom_site_fract_y
_atom_site_fract_z
_atom_type_partial_charge
C1    C     C_R   0.088991 0.284769 0.066985 -0.156055
C2    C     C_R   0.907757 0.715732 0.939241 -0.132515
C3    C     C_R   0.027946 0.543695 0.730775 0.069889
C4    C     C_R   0.969942 0.539270 0.272549 0.091584
C5    C     C_R   0.665181 0.216833 0.744183 -0.071302
C6    C     C_R   0.281688 0.803739 0.274951 -0.100772
C7    C     C_R   0.300838 0.472359 0.977510 0.047500
C8    C     C_R   0.636485 0.429627 0.934472 0.058630
C9    C     C_R   0.925441 0.931273 0.018461 -0.219220
C10   C     C_R   0.071699 0.070634 0.989978 -0.193267
C11   C     C_R   0.991180 0.903865 0.982676 0.058972
C12   C     C_R   0.005205 0.097670 0.024589 0.061112
C13   C     C_R   0.063713 0.972496 0.966477 0.016660
C14   C     C_R   0.931743 0.029048 0.040260 0.018213
C15   C     C_R   0.754702 0.993119 0.037076 -0.164868
C16   C     C_R   0.235474 0.993982 0.963480 -0.197153
C17   C     C_R   0.731302 0.116202 0.151066 -0.102832
C18   C     C_R   0.243593 0.889776 0.826367 -0.090739
C19   C     C_R   0.491159 0.500452 0.249166 -0.147746
C20   C     C_R   0.506971 0.422878 0.643780 -0.082499
C21   C     C_R   0.480299 0.493839 0.162506 -0.097650
C22   C     C_R   0.485636 0.393934 0.709458 -0.125590
C23   C     C_R   0.935805 0.496612 0.737620 -0.108695
C24   C     C_R   0.062118 0.548819 0.264051 -0.158829
C25   C     C_R   0.431269 0.396613 0.085168 0.014327
C26   C     C_R   0.493351 0.467153 0.789279 -0.004295
C27   C     C_R   0.395807 0.306040 0.096173 -0.267274
C28   C     C_R   0.520960 0.569643 0.802282 -0.200051
C29   C     C_R   0.406314 0.312203 0.182991 0.583190
C30   C     C_R   0.543487 0.599515 0.737344 0.632657
C31   C     C_R   0.454300 0.410308 0.259648 -0.270744
C32   C     C_R   0.536415 0.525212 0.657673 -0.262134
C33   C     C_R   0.485748 0.357892 0.961957 -0.213420
C34   C     C_R   0.387602 0.449193 0.875358 -0.230384
C35   C     C_R   0.524929 0.398306 0.908701 0.045866
C36   C     C_R   0.370284 0.436197 0.948701 0.050420
C37   C     C_R   0.468659 0.436091 0.857694 0.069262
C38   C     C_R   0.421422 0.390466 0.993603 0.063296
C39   C     C_R   0.689388 0.022275 0.072471 -0.104468
C40   C     C_R   0.294007 0.967433 0.917393 -0.109640
C41   C     C_R   0.963674 0.589837 0.360247 0.066747
C42   C     C_R   0.037376 0.566594 0.654809 -0.063501
C43   C     C_R   0.142653 0.635468 0.582919 0.502954
C44   C     C_R   0.865432 0.572689 0.451846 0.426012
C45   C     C_R   0.721816 0.216199 0.823997 -0.226285
C46   C     C_R   0.245230 0.796918 0.187467 -0.187632
C47   C     C_R   0.131957 0.593006 0.644568 -0.213651
C48   C     C_R   0.868211 0.570574 0.368067 -0.191052
C49   C     C_R   0.951660 0.567535 0.594725 -0.203757
C50   C     C_R   0.055906 0.638335 0.440769 -0.225734
C51   C     C_R   0.955970 0.588236 0.521344 0.025012
C52   C     C_R   0.052614 0.624376 0.516893 -0.040063
C53   C     C_R   0.556046 0.141822 0.680428 0.158679
C54   C     C_R   0.320013 0.896156 0.360662 0.136262
C55   C     C_R   0.396955 0.082438 0.446163 -0.229549
C56   C     C_R   0.422312 0.963923 0.606408 -0.219159
C57   C     C_R   0.348672 0.994275 0.362551 -0.131587
C58   C     C_R   0.510115 0.046923 0.682884 -0.165356
C59   C     C_R   0.326776 0.886674 0.441575 -0.302731
C60   C     C_R   0.501915 0.157251 0.608381 -0.327981
C61   C     C_R   0.386468 0.974123 0.525744 0.196290
C62   C     C_R   0.424164 0.072535 0.527725 0.186319
C63   C     C_R   0.838718 0.180879 0.194811 -0.109709
C64   C     C_R   0.134682 0.838375 0.781641 -0.101129
C65   C     C_R   0.904384 0.151893 0.159895 -0.120941
C66   C     C_R   0.075864 0.863169 0.828056 -0.120157
C67   C     C_R   0.268924 0.542500 0.957856 -0.132958
C68   C     C_R   0.696836 0.400754 0.989678 -0.081264
C69   C     C_R   0.862817 0.058141 0.080045 0.107253
C70   C     C_R   0.125989 0.941750 0.919207 0.108948
C71   C     C_R   0.728581 0.307742 0.744848 0.500782
C72   C     C_R   0.252528 0.702539 0.263939 0.487810
C73   C     C_R   0.255194 0.442616 0.030655 -0.103223
C74   C     C_R   0.703853 0.498301 0.916432 -0.097556
C75   C     C_R   0.108774 0.586554 0.817160 -0.152539
C76   C     C_R   0.889137 0.465463 0.186441 -0.077890
C77   C     C_R   0.915177 0.198740 0.984745 -0.102785
C78   C     C_R   0.082667 0.801044 0.014511 -0.104570
C79   C     C_R   0.002807 0.190773 0.027483 0.042764
C80   C     C_R   0.993556 0.809814 0.977044 0.053144
H1    H     H_    0.166895 0.306218 0.114190 0.119799
H2    H     H_    0.827245 0.694524 0.898784 0.109070
H3    H     H_    0.720763 0.920826 0.975276 0.141984
H4    H     H_    0.275191 0.054396 0.033754 0.179649
H5    H     H_    0.463474 0.416984 0.327409 0.132559
H6    H     H_    0.552943 0.546249 0.606193 0.129144
H7    H     H_    0.528559 0.575615 0.308407 0.146956
H8    H     H_    0.500114 0.366011 0.581637 0.129344
H9    H     H_    0.509732 0.564368 0.155436 0.137363
H10   H     H_    0.461070 0.314428 0.697953 0.131716
H11   H     H_    0.358953 0.230816 0.037018 0.140658
H12   H     H_    0.526264 0.626677 0.863593 0.141713
H13   H     H_    0.521867 0.321611 0.996601 0.123665
H14   H     H_    0.343705 0.477333 0.836193 0.139897
H15   H     H_    0.130661 0.670145 0.439525 0.181861
H16   H     H_    0.879777 0.548069 0.602622 0.187939
H17   H     H_    0.857467 0.467394 0.687421 0.156503
H18   H     H_    0.139532 0.592650 0.317824 0.172186
H19   H     H_    0.606141 0.972288 0.038621 0.115706
H20   H     H_    0.378385 0.007587 0.952008 0.113170
H21   H     H_    0.527660 0.231318 0.608436 0.163817
H22   H     H_    0.295776 0.811541 0.440524 0.158435
H23   H     H_    0.546024 0.033127 0.739642 0.124101
H24   H     H_    0.338872 0.004116 0.300710 0.123889
H25   H     H_    0.424331 0.157909 0.447074 0.126883
H26   H     H_    0.392496 0.889062 0.606369 0.159807
H27   H     H_    0.680550 0.138833 0.178097 0.111491
H28   H     H_    0.288815 0.869948 0.790269 0.105242
H29   H     H_    0.871126 0.253591 0.255733 0.117549
H30   H     H_    0.095804 0.780335 0.710601 0.122827
H31   H     H_    0.987499 0.202782 0.194777 0.119663
H32   H     H_    0.991482 0.822914 0.792404 0.117254
H33   H     H_    0.693185 0.165991 0.853270 0.122976
H34   H     H_    0.257787 0.859483 0.168803 0.121465
H35   H     H_    0.291166 0.582841 0.919212 0.097882
H36   H     H_    0.670059 0.337727 0.006804 0.074704
H37   H     H_    0.257660 0.386047 0.054424 0.113871
H38   H     H_    0.685312 0.529938 0.869262 0.115498
H39   H     H_    0.188135 0.643536 0.841560 0.098233
H40   H     H_    0.806372 0.433792 0.166551 0.112780
H41   H     H_    0.834468 0.141273 0.952644 0.107582
H42   H     H_    0.162481 0.858351 0.042108 0.103577
H43   H     H_    0.872404 0.877857 0.033008 0.139353
H44   H     H_    0.124894 0.123781 0.975251 0.133582
N1    N     N_R   0.055660 0.348550 0.045620 -0.041247
N2    N     N_R   0.944340 0.651450 0.954380 -0.039733
N3    N     N_R   0.960830 0.507850 0.823700 -0.040990
N4    N     N_R   0.039170 0.492150 0.176300 -0.041445
N5    N     N_R   0.811290 0.303410 0.871650 -0.066722
N6    N     N_R   0.188710 0.696590 0.128350 -0.064925
N7    N     N_R   0.205200 0.552990 0.997670 -0.044864
N8    N     N_R   0.794800 0.447010 0.002330 -0.043279
N9    N     N_R   0.814800 0.361830 0.823700 -0.071427
N10   N     N_R   0.185200 0.638170 0.176300 -0.064800
N11   N     N_R   0.201680 0.494570 0.045620 -0.042827
N12   N     N_R   0.798320 0.505430 0.954380 -0.045411
N13   N     N_R   0.068420 0.560530 0.871650 -0.043189
N14   N     N_R   0.931580 0.439470 0.128350 -0.055423
N15   N     N_R   0.948070 0.295860 0.997670 -0.044168
N16   N     N_R   0.051930 0.704140 0.002330 -0.042859
Ni1   Ni    Ni4+2 0.119340 0.493420 0.109960 0.261842
Ni2   Ni    Ni4+2 0.880660 0.506580 0.890040 0.250254
Ni3   Ni    Ni4+2 0.872590 0.372590 0.000000 0.205308
Ni4   Ni    Ni4+2 0.127410 0.627410 0.000000 0.214185
O1    O     O_3   0.369175 0.221614 0.190797 -0.796853
H45   H     H_    0.382220 0.239206 0.255986 0.308946
O2    O     O_3   0.571706 0.701152 0.753486 -0.761062
H46   H     H_    0.584911 0.709565 0.701503 0.312536
C81   C     C_2   0.773516 0.548745 0.291072 0.454255
H47   H     H_    0.696920 0.494150 0.277417 0.029415
O3    O     O_2   0.780275 0.593343 0.242962 -0.566448
C82   C     C_2   0.210867 0.561600 0.686683 0.526541
H48   H     H_    0.191885 0.509292 0.716854 0.006535
O4    O     O_2   0.295911 0.588828 0.684732 -0.564091
O5    O     O_3   0.237188 0.678560 0.579878 -0.741490
H49   H     H_    0.290971 0.722599 0.644450 0.340118
O6    O     O_3   0.775843 0.553744 0.465880 -0.778089
H50   H     H_    0.728721 0.570005 0.425440 0.306315
O7    O     O_3   0.703032 0.348605 0.685784 -0.804858
H51   H     H_    0.685463 0.295813 0.624017 0.297490
O8    O     O_3   0.304200 0.670754 0.321393 -0.783269
H52   H     H_    0.372074 0.730976 0.367556 0.316732

loop_
_geom_bond_atom_site_label_1
_geom_bond_atom_site_label_2
_ccdc_geom_bond_type
C63   C65   A    
C3    C42   S    
C45   N5    A    
O6    H50   S    
C31   H5    S    
C27   C29   A    
C34   C37   A    
C7    C36   S    
C3    C23   A    
O2    H46   S    
C19   C31   A    
O8    H52   S    
C10   H44   S    
C30   O2    S    
C7    C73   A    
C21   H9    S    
C13   C70   S    
N1    N15   A    
C6    C72   A    
N2    N16   A    
N9    Ni2   S    
C76   H40   S    
C55   H25   S    
C24   H18   S    
C5    C53   S    
C35   C37   A    
C1    N1    A    
C19   H7    S    
N14   Ni3   S    
C81   O3    D    
C2    C80   A    
C29   O1    S    
C4    C24   A    
C78   C80   A    
C43   C52   A    
C4    C41   S    
C1    H1    S    
C12   C79   S    
C16   H4    S    
C60   C62   A    
C17   C39   A    
C68   N8    A    
C67   H35   S    
C72   N10   A    
C65   H31   S    
N12   Ni2   S    
C9    H43   S    
N15   Ni3   S    
C73   N11   A    
N1    Ni1   S    
C49   C51   A    
C74   N12   A    
C50   C52   A    
C72   O8    S    
C27   H11   S    
C3    C75   A    
N4    Ni1   S    
C15   C39   A    
C16   C40   A    
N8    Ni3   S    
C48   C81   S    
N4    N14   A    
C44   O6    S    
N6    N10   A    
C6    C54   S    
C43   O5    S    
C64   H30   S    
C50   H15   S    
C53   C60   A    
O1    H45   S    
C54   C59   A    
C77   C79   A    
C15   C69   A    
C59   C61   A    
C73   H37   S    
C46   H34   S    
C51   C52   A    
C34   H14   S    
C75   H39   S    
C75   N13   A    
C74   H38   S    
C15   H3    S    
C5    C45   A    
N2    Ni2   S    
C33   H13   S    
C8    C35   S    
C64   C66   A    
C63   H29   S    
C9    C14   A    
C71   N9    A    
C25   C38   S    
C39   H19   S    
O7    H51   S    
N8    N12   A    
C32   H6    S    
C8    C74   A    
C22   H10   S    
C16   C70   A    
C28   H12   S    
C82   H48   S    
C9    C11   A    
C56   H26   S    
C10   C12   A    
C68   H36   S    
N5    N9    A    
C2    N2    A    
C44   C51   A    
C55   C62   A    
C23   H17   S    
N13   Ni4   S    
C82   O4    D    
C8    C68   A    
C55   C57   A    
C1    C79   A    
C14   C69   S    
C2    H2    S    
C60   H21   S    
C41   C50   A    
N6    Ni4   S    
C23   N3    A    
C20   C32   A    
C57   H24   S    
C21   C25   A    
C6    C46   A    
C19   C21   A    
C59   H22   S    
C26   C28   A    
C67   N7    A    
N16   Ni4   S    
C20   C22   A    
C10   C13   A    
C78   N16   A    
C46   N6    A    
C53   C58   A    
C26   C37   S    
N5    Ni3   S    
C11   C80   S    
C76   N14   A    
C25   C27   A    
C71   O7    S    
N7    N11   A    
C33   C38   A    
C40   H20   S    
C17   H27   S    
C12   C14   A    
C5    C71   A    
C81   H47   S    
C17   C63   A    
N10   Ni1   S    
C30   C32   A    
C11   C13   A    
C18   C64   A    
C66   C70   A    
C65   C69   A    
C20   H8    S    
C28   C30   A    
C33   C35   A    
C41   C48   A    
C56   C58   A    
C34   C36   A    
C42   C47   A    
C49   H16   S    
C61   C62   A    
C78   H42   S    
C18   H28   S    
C4    C76   A    
C77   H41   S    
C36   C38   A    
C42   C49   A    
C7    C67   A    
C45   H33   S    
N11   Ni1   S    
C18   C40   A    
C47   C82   S    
C29   C31   A    
C22   C26   A    
O5    H49   S    
C24   N4    A    
C56   C61   A    
C58   H23   S    
N3    N13   A    
C66   H32   S    
C43   C47   A    
N3    Ni2   S    
C77   N15   A    
N7    Ni4   S    
C44   C48   A    
C54   C57   A    
