data_mof_unit_61567.cif
_audit_creation_date              2013-03-05T15:45:19-0500
_audit_creation_method            fapswitch 2.2
_symmetry_space_group_name_H-M    P1
_symmetry_Int_Tables_number       1
_space_group_crystal_system       triclinic
_cell_length_a                    15.153226
_cell_length_b                    15.115819
_cell_length_c                    16.04216
_cell_angle_alpha                 89.629507
_cell_angle_beta                  90.498062
_cell_angle_gamma                 90.053465
_cell_volume                      3674.29457277

loop_
_atom_site_label
_atom_site_type_symbol
_atom_site_description
_atom_site_fract_x
_atom_site_fract_y
_atom_site_fract_z
_atom_type_partial_charge
Zn1   Zn    Zn3+2 0.574310 0.433680 0.576480 1.080547
Zn2   Zn    Zn3+2 0.433700 0.417860 0.431740 1.114857
Zn3   Zn    Zn3+2 0.574160 0.575160 0.430870 1.054456
Zn4   Zn    Zn3+2 0.417840 0.573310 0.560900 1.053374
O1    O     O_3   0.500000 0.500000 0.500000 -0.545821
O2    O     O_R   0.296270 0.542620 0.535390 -0.622804
O3    O     O_R   0.698230 0.462280 0.560770 -0.612011
O4    O     O_R   0.461480 0.296280 0.460320 -0.600138
O5    O     O_R   0.544020 0.698820 0.443520 -0.639680
O6    O     O_R   0.461330 0.435620 0.316920 -0.604405
O7    O     O_R   0.434750 0.558200 0.677930 -0.634302
O8    O     O_R   0.559650 0.545720 0.316320 -0.612986
O9    O     O_R   0.544270 0.460460 0.688830 -0.607376
O10   O     O_R   0.559890 0.307360 0.561630 -0.591778
O11   O     O_R   0.434610 0.697530 0.534530 -0.600365
O12   O     O_R   0.307380 0.433810 0.444990 -0.584849
O13   O     O_R   0.698130 0.561300 0.458860 -0.607741
C1    C     C_R   0.260063 0.486931 0.486424 0.903309
C2    C     C_R   0.739686 0.514119 0.512248 0.891112
C3    C     C_R   0.513797 0.259814 0.512735 0.901580
C4    C     C_R   0.485268 0.739575 0.485355 0.877928
C5    C     C_R   0.512612 0.488494 0.277403 0.860255
C6    C     C_R   0.487383 0.511155 0.722672 0.802291
C7    C     C_1   0.519158 0.482208 0.188681 -0.036029
C8    C     C_2   0.534781 0.470211 0.024911 0.313813
C9    C     C_2   0.482028 0.521187 0.976395 -0.270671
C10   C     C_1   0.482176 0.518550 0.886638 0.139825
C11   C     C_1   0.525753 0.476779 0.114159 -0.002811
C12   C     C_1   0.483568 0.515716 0.811666 -0.039542
H1    H     H_    0.435206 0.565833 0.005121 0.171971
C13   C     C_R   0.164514 0.488596 0.473136 -0.181866
C14   C     C_R   0.835559 0.516025 0.515813 -0.165595
C15   C     C_R   0.966633 0.531505 0.600709 0.447753
C16   C     C_R   0.875720 0.533619 0.592245 -0.259074
C17   C     C_R   0.885906 0.495372 0.445356 0.382005
C18   C     C_R   0.979586 0.495447 0.451619 -0.123262
C19   C     C_R   0.019263 0.511964 0.531167 -0.014918
C20   C     C_R   0.110894 0.508206 0.540316 -0.168625
C21   C     C_R   0.127337 0.474938 0.393637 0.217724
C22   C     C_R   0.035416 0.479064 0.382325 0.259460
H2    H     H_    0.141915 0.519529 0.600347 0.223511
H3    H     H_    0.835695 0.548420 0.646092 0.202856
C23   C     C_R   0.522531 0.163305 0.513395 -0.237740
C24   C     C_R   0.474349 0.835036 0.477967 -0.145705
C25   C     C_R   0.378831 0.964369 0.472961 0.266513
C26   C     C_R   0.389828 0.872283 0.468733 0.293450
C27   C     C_R   0.548174 0.889117 0.485285 -0.240510
C28   C     C_R   0.538379 0.980481 0.491648 0.028307
C29   C     C_R   0.453023 0.019293 0.490072 -0.093574
C30   C     C_R   0.445716 0.110959 0.506661 0.352879
C31   C     C_R   0.606764 0.123748 0.511601 0.250578
C32   C     C_R   0.613685 0.032683 0.501987 -0.168586
H4    H     H_    0.678654 0.002604 0.502262 0.194250
H5    H     H_    0.613214 0.859432 0.490291 0.179125
N1    N     N_R   0.686109 0.175098 0.517732 0.215218
O14   O     O_R   0.706888 0.212558 0.587996 -0.297488
O15   O     O_R   0.746211 0.167370 0.460828 -0.312539
N2    N     N_R   0.294210 0.000975 0.452078 0.274401
O16   O     O_R   0.225385 0.981365 0.496517 -0.235938
O17   O     O_R   0.284542 0.047883 0.384323 -0.266745
Cl1   Cl    Cl    0.297926 0.804049 0.445230 -0.449216
N3    N     N_R   0.599014 0.409278 0.992064 0.244771
O18   O     O_R   0.634309 0.349862 0.041021 -0.291160
O19   O     O_R   0.628837 0.417278 0.916566 -0.326875
N4    N     N_R   0.183051 0.464304 0.322487 0.239074
O20   O     O_R   0.181983 0.390728 0.280908 -0.257283
O21   O     O_R   0.237064 0.527173 0.300806 -0.352125
Cl2   Cl    Cl    0.010996 0.553822 0.700540 -0.498421
N5    N     N_R   0.001679 0.476294 0.298774 0.263441
O22   O     O_R   0.998778 0.401734 0.258767 -0.222401
O23   O     O_R   0.983545 0.549726 0.259527 -0.269468
Cl3   Cl    Cl    0.827800 0.459293 0.355099 -0.443948
Cl4   Cl    Cl    0.343276 0.160611 0.532268 -0.464260

loop_
_geom_bond_atom_site_label_1
_geom_bond_atom_site_label_2
_geom_bond_distance
_ccdc_geom_bond_type
C27   C28   1.393636 A    
N1    O14   1.300795 A    
C24   C27   1.389522 A    
C23   C30   1.410619 A    
Zn3   O13   1.938891 S    
C19   C20   1.396149 A    
Zn3   O5    1.936978 S    
O10   C3    1.271404 A    
C10   C12   1.204119 T    
C4    C24   1.456539 S    
Zn2   O12   1.943168 S    
C31   N1    1.433505 S    
C17   C18   1.422232 A    
C16   H3    1.084429 S    
C13   C20   1.388992 A    
C25   C29   1.422816 A    
C15   C19   1.409965 A    
O5    C4    1.280336 A    
Zn4   O11   1.939058 S    
C15   C16   1.383507 A    
Zn3   O8    1.904371 S    
N5    O23   1.300958 A    
C25   C26   1.404185 A    
O6    C5    1.282717 A    
Zn4   O7    1.904919 S    
C21   N4    1.435529 S    
N4    O21   1.301217 A    
C23   C31   1.410618 A    
C9    C10   1.440725 S    
O4    C3    1.273807 A    
O11   C4    1.272260 A    
C27   H5    1.085396 S    
Zn1   O1    1.934013 S    
C2    C14   1.453681 S    
C6    C12   1.431429 S    
O7    C6    1.281202 A    
C28   C29   1.420715 A    
O13   C2    1.273679 A    
C13   C21   1.406124 A    
C17   Cl3   1.776600 S    
C9    H1    1.087096 S    
O3    C2    1.270521 A    
C8    N3    1.445779 S    
N1    O15   1.300929 A    
N5    O22   1.301086 A    
O2    C1    1.275488 A    
C5    C7    1.431392 S    
C25   N2    1.433216 S    
N2    O16   1.301298 A    
Zn2   O1    1.935506 S    
Zn1   O9    1.908805 S    
C22   N5    1.431223 S    
C26   Cl1   1.771590 S    
N2    O17   1.301192 A    
C31   C32   1.390298 A    
Zn2   O6    1.909710 S    
C14   C17   1.406070 A    
O8    C5    1.282252 A    
C28   C32   1.396083 A    
C3    C23   1.464877 S    
C32   H4    1.084748 S    
O9    C6    1.280546 A    
C20   H2    1.082487 S    
O12   C1    1.271583 A    
N4    O20   1.300563 A    
C30   Cl4   1.777324 S    
C21   C22   1.404501 A    
C29   C30   1.417236 A    
C18   C19   1.429274 A    
C18   C22   1.425845 A    
N3    O19   1.301252 A    
Zn1   O10   1.937685 S    
Zn3   O1    1.945877 S    
C8    C9    1.349487 D    
Zn1   O3    1.944686 S    
Zn4   O2    1.940117 S    
Zn2   O4    1.937018 S    
N3    O18   1.301528 A    
C7    C11   1.203861 T    
C15   Cl2   1.765888 S    
C24   C26   1.405786 A    
Zn4   O1    1.941690 S    
C8    C11   1.443490 S    
C1    C13   1.461867 S    
C14   C16   1.391199 A    
