data_mof_unit_15239.cif
_audit_creation_date              2013-03-05T15:51:49-0500
_audit_creation_method            fapswitch 2.2
_symmetry_space_group_name_H-M    P1
_symmetry_Int_Tables_number       1
_space_group_crystal_system       triclinic
_cell_length_a                    10.981626
_cell_length_b                    10.960453
_cell_length_c                    18.794555
_cell_angle_alpha                 90.239121
_cell_angle_beta                  90.100675
_cell_angle_gamma                 60.117181
_cell_volume                      1961.39751994

loop_
_atom_site_label
_atom_site_type_symbol
_atom_site_description
_atom_site_fract_x
_atom_site_fract_y
_atom_site_fract_z
_atom_type_partial_charge
O1    O     O_R   0.507380 0.255700 0.581440 -0.530565
O2    O     O_R   0.280320 0.527350 0.578930 -0.503593
C1    C     C_R   0.239440 0.645729 0.610310 0.541919
O3    O     O_R   0.260510 0.739590 0.584590 -0.522112
O4    O     O_R   0.532300 0.695080 0.573820 -0.510362
C2    C     C_R   0.653680 0.622154 0.600866 0.535999
O5    O     O_R   0.744840 0.503500 0.576370 -0.528765
O6    O     O_R   0.699120 0.276560 0.571960 -0.495802
C3    C     C_R   0.630986 0.223935 0.600929 0.542394
O7    O     O_R   0.498940 0.256500 0.419860 -0.490713
O8    O     O_R   0.272500 0.528080 0.429150 -0.512389
C4    C     C_R   0.224053 0.648274 0.400561 0.563963
O9    O     O_R   0.252060 0.740380 0.423010 -0.478853
O10   O     O_R   0.524480 0.695810 0.424040 -0.503872
C5    C     C_R   0.646218 0.626472 0.394481 0.530854
O11   O     O_R   0.736390 0.504290 0.414790 -0.507302
O12   O     O_R   0.691300 0.277290 0.422170 -0.461199
C6    C     C_R   0.617692 0.226197 0.396070 0.561725
Cr1   Cr    Cr6+3 0.392960 0.397920 0.502240 1.057052
Cr2   Cr    Cr6+3 0.398340 0.708480 0.501250 1.056655
Cr3   Cr    Cr6+3 0.708670 0.393570 0.496460 1.072275
O13   O     O_3   0.499990 0.499990 0.499980 -0.278546
C7    C     C_3   0.589224 0.816581 0.779246 -0.233665
H1    H     H_    0.627625 0.891135 0.788104 0.148569
H2    H     H_    0.484972 0.859329 0.805524 0.120324
C8    C     C_3   0.574139 0.802232 0.698684 -0.244290
H3    H     H_    0.462061 0.839031 0.686322 0.133513
H4    H     H_    0.605031 0.870035 0.668862 0.122092
H5    H     H_    0.875942 0.696247 0.780413 0.134004
H6    H     H_    0.854823 0.668949 0.662103 0.123771
C9    C     C_3   0.838824 0.619500 0.772366 -0.220032
C10   C     C_3   0.643765 0.568553 0.801090 -0.250370
C11   C     C_3   0.697323 0.672723 0.812344 0.047571
H7    H     H_    0.719551 0.464130 0.823401 0.122982
H8    H     H_    0.542082 0.606363 0.829307 0.118737
C12   C     C_3   0.668683 0.646696 0.676381 0.059191
C13   C     C_3   0.822812 0.602868 0.692844 -0.241874
C14   C     C_3   0.623907 0.555304 0.720857 -0.216257
H9    H     H_    0.511878 0.588864 0.710233 0.126915
H10   H     H_    0.685441 0.443334 0.704939 0.134679
H11   H     H_    0.919674 0.515848 0.793570 0.138597
H12   H     H_    0.894796 0.491316 0.677494 0.132915
C15   C     C_R   0.689982 0.139779 0.820805 0.015699
C16   C     C_R   0.794943 0.142426 0.780547 0.015531
C17   C     C_R   0.788311 0.150912 0.708172 0.019452
C18   C     C_R   0.577272 0.139531 0.708657 -0.186895
C19   C     C_R   0.577971 0.142125 0.782157 -0.181123
C20   C     C_3   0.928257 0.146305 0.784328 -0.281819
C21   C     C_3   0.920220 0.157727 0.702505 -0.271936
C22   C     C_R   0.675414 0.158353 0.669994 0.017693
H13   H     H_    0.490905 0.135845 0.682773 0.137230
H14   H     H_    0.492643 0.136853 0.807968 0.142281
H15   H     H_    0.016424 0.046391 0.804219 0.154945
H16   H     H_    0.915638 0.242299 0.811151 0.123601
H17   H     H_    0.903293 0.259881 0.682225 0.142484
H18   H     H_    0.004904 0.063806 0.675071 0.148768
C23   C     C_R   0.177716 0.669849 0.834540 0.016903
C24   C     C_R   0.152903 0.577313 0.793902 0.019378
C25   C     C_R   0.161382 0.575059 0.720113 -0.004805
C26   C     C_R   0.210891 0.765689 0.725205 -0.166296
C27   C     C_R   0.207872 0.763801 0.799062 -0.171065
C28   C     C_3   0.228662 0.420793 0.797823 -0.284193
C29   C     C_3   0.235421 0.418830 0.717346 -0.270990
C30   C     C_R   0.193326 0.667013 0.684419 0.016077
H19   H     H_    0.236769 0.839033 0.700639 0.131406
H20   H     H_    0.225089 0.839143 0.828391 0.124422
H21   H     H_    0.162080 0.379538 0.819242 0.133293
H22   H     H_    0.332306 0.379250 0.824208 0.141416
H23   H     H_    0.342880 0.376103 0.696246 0.175465
H24   H     H_    0.171043 0.378528 0.691718 0.130966
C31   C     C_R   0.709887 0.708840 0.181738 0.005821
C32   C     C_R   0.802357 0.585636 0.216760 -0.001822
C33   C     C_R   0.790590 0.568240 0.287581 0.003470
C34   C     C_R   0.603557 0.806817 0.297790 -0.159337
C35   C     C_R   0.614515 0.823974 0.223743 -0.159539
C36   C     C_3   0.851745 0.434892 0.199491 -0.255227
C37   C     C_3   0.839499 0.415314 0.278151 -0.208198
C38   C     C_R   0.681864 0.671779 0.328145 0.003776
H25   H     H_    0.522892 0.892776 0.328458 0.186019
H26   H     H_    0.543119 0.922636 0.198777 0.159546
H27   H     H_    0.961944 0.377733 0.180006 0.169016
H28   H     H_    0.775077 0.420720 0.166823 0.148750
H29   H     H_    0.756901 0.388220 0.290633 0.157055
H30   H     H_    0.942199 0.350803 0.304797 0.242804
C39   C     C_R   0.663781 0.142180 0.179188 -0.035379
C40   C     C_R   0.549168 0.154106 0.215174 -0.051657
C41   C     C_R   0.543562 0.156133 0.287731 -0.001492
C42   C     C_R   0.780649 0.116014 0.293780 0.162445
C43   C     C_R   0.784379 0.113732 0.219164 -0.150328
C44   C     C_3   0.397354 0.252644 0.204573 -0.244860
C45   C     C_3   0.387262 0.255390 0.285476 0.108596
C46   C     C_R   0.652344 0.155001 0.327871 -0.006661
H31   H     H_    0.882383 0.086438 0.192802 0.177266
H32   H     H_    0.346418 0.201131 0.175903 0.183639
H33   H     H_    0.377251 0.354258 0.181572 0.109744
H34   H     H_    0.356064 0.358908 0.309726 0.131608
C47   C     C_R   0.156283 0.657804 0.180114 0.018909
C48   C     C_R   0.248432 0.695638 0.208882 -0.013815
C49   C     C_R   0.267811 0.690203 0.280457 -0.008128
C50   C     C_R   0.118108 0.592101 0.297896 -0.155013
C51   C     C_R   0.105171 0.589185 0.223959 -0.158214
C52   C     C_3   0.271479 0.817967 0.200270 -0.245036
C53   C     C_3   0.298295 0.807252 0.279886 -0.208907
C54   C     C_R   0.190262 0.656088 0.326571 0.046166
H35   H     H_    0.072129 0.546237 0.331920 0.152210
H36   H     H_    0.047509 0.543068 0.201449 0.151615
H37   H     H_    0.175028 0.916966 0.185278 0.193866
H38   H     H_    0.366645 0.791209 0.168257 0.142468
H39   H     H_    0.408451 0.763696 0.293889 0.144179
H40   H     H_    0.224309 0.899150 0.311750 0.257681
O14   O     O_R   0.089400 0.825690 0.930570 -0.524608
O15   O     O_R   0.818460 0.054440 0.929850 -0.493312
C55   C     C_R   0.702646 0.099578 0.895355 0.543708
O16   O     O_R   0.606060 0.077150 0.915510 -0.536104
O17   O     O_R   0.646550 0.806680 0.917570 -0.506175
C56   C     C_R   0.722167 0.687247 0.888553 0.548137
O18   O     O_R   0.837170 0.593410 0.915250 -0.524553
O19   O     O_R   0.065200 0.635530 0.931570 -0.500910
C57   C     C_R   0.118460 0.705997 0.905887 0.543680
O20   O     O_R   0.068260 0.828890 0.091840 -0.523707
O21   O     O_R   0.798870 0.057410 0.079340 -0.513432
C58   C     C_R   0.677025 0.104547 0.104838 0.549121
O22   O     O_R   0.584930 0.080350 0.076780 -0.520661
O23   O     O_R   0.626960 0.809650 0.067060 -0.504579
C59   C     C_R   0.731384 0.717069 0.105542 0.566754
O24   O     O_R   0.816040 0.596610 0.076510 -0.520924
O25   O     O_R   0.045610 0.638500 0.081060 -0.527837
C60   C     C_R   0.093890 0.707893 0.111961 0.548342
Cr4   Cr    Cr6+3 0.937650 0.938540 0.007610 1.009114
Cr5   Cr    Cr6+3 0.625330 0.937370 0.994520 1.004466
Cr6   Cr    Cr6+3 0.937940 0.625230 0.001190 1.003409
O26   O     O_3   0.833640 0.833710 0.001100 -0.270097
N1    N     N_R   0.904863 0.082891 0.333565 0.077003
O27   O     O_R   0.928701 0.019083 0.394534 -0.324537
O28   O     O_R   0.001691 0.102463 0.305534 -0.368627
N2    N     N_R   0.308694 0.190104 0.313259 0.074883
O29   O     O_R   0.213487 0.183527 0.274797 -0.369092
O30   O     O_R   0.320788 0.154528 0.379920 -0.316526

loop_
_geom_bond_atom_site_label_1
_geom_bond_atom_site_label_2
_geom_bond_distance
_ccdc_geom_bond_type
C24   C28   1.489724 S    
C49   C53   1.478552 S    
O11   Cr3   2.075263 S    
C41   C45   1.506944 S    
C32   C36   1.494174 S    
C47   C48   1.379379 A    
C23   C24   1.398018 A    
C44   H33   1.111169 S    
O4    Cr2   1.955840 S    
C1    C30   1.460460 S    
C20   H16   1.109450 S    
O8    Cr1   1.949784 S    
C50   H35   1.083181 S    
C59   O24   1.295319 A    
C28   H21   1.110462 S    
C53   H40   1.102059 S    
C17   C22   1.398292 A    
C12   C13   1.542910 S    
C42   N1    1.434167 S    
C4    C54   1.430502 S    
C39   C40   1.377305 A    
O4    C2    1.270185 A    
C5    C38   1.467935 S    
C37   H29   1.111627 S    
O17   C56   1.270051 A    
C50   C54   1.399727 A    
C56   O18   1.269766 A    
O14   C57   1.271359 A    
C7    C8    1.538776 S    
C13   H12   1.112564 S    
O19   C57   1.275090 A    
O19   Cr6   1.960304 S    
C45   H34   1.105132 S    
C27   H20   1.083013 S    
O14   Cr4   2.084012 S    
C45   N2    1.465955 S    
C29   H23   1.103890 S    
O6    C3    1.273995 A    
C7    C11   1.556527 S    
C33   C38   1.393010 A    
C9    C11   1.554562 S    
C52   H38   1.111534 S    
C10   C14   1.539845 S    
O15   Cr4   1.953140 S    
C35   H26   1.078133 S    
C23   C57   1.456120 S    
Cr4   O26   1.986406 S    
C49   C54   1.392426 A    
C53   H39   1.088578 S    
C31   C35   1.410762 A    
C41   C46   1.406603 A    
O16   Cr5   2.071686 S    
C52   C53   1.518235 S    
C47   C60   1.428138 S    
O15   C55   1.286623 A    
C44   H32   1.110455 S    
C20   H15   1.105465 S    
O1    Cr1   2.070140 S    
C34   C35   1.418428 A    
O20   Cr4   2.073145 S    
C10   H8    1.113111 S    
O10   Cr2   1.964078 S    
C39   C58   1.442243 S    
Cr1   O13   1.986372 S    
O1    C3    1.275267 A    
C36   C37   1.510560 S    
N2    O30   1.300470 A    
C40   C44   1.480551 S    
C36   H28   1.112509 S    
C39   C43   1.415142 A    
C40   C41   1.364770 A    
N2    O29   1.301111 A    
C37   H30   1.108638 S    
C24   C25   1.389415 A    
C21   H17   1.108761 S    
C18   H13   1.083624 S    
O12   Cr3   1.958736 S    
C9    C13   1.525331 S    
H6    C13   1.113500 S    
C26   C27   1.389054 A    
C10   H7    1.109978 S    
Cr5   O26   1.987339 S    
C15   C16   1.392286 A    
C28   C29   1.514025 S    
C29   H24   1.111374 S    
C17   C21   1.491227 S    
O7    Cr1   2.083994 S    
C7    H1    1.102395 S    
O12   C6    1.286472 A    
C8    H3    1.112045 S    
O23   Cr5   1.951813 S    
C52   H37   1.111283 S    
C42   C46   1.406894 A    
C42   C43   1.402803 A    
O21   C58   1.264245 A    
C2    O5    1.266790 A    
C8    C12   1.546516 S    
C20   C21   1.542250 S    
Cr2   O13   1.981504 S    
C26   H19   1.082300 S    
C34   H25   1.081769 S    
O22   Cr5   2.081428 S    
N1    O27   1.301486 A    
O25   C60   1.262509 A    
C16   C17   1.363148 A    
C55   O16   1.261330 A    
O5    Cr3   2.079621 S    
C51   H36   1.073150 S    
C18   C19   1.381655 A    
C11   C56   1.480301 S    
C9    H11   1.111410 S    
O9    Cr2   2.073982 S    
O2    Cr1   1.964865 S    
C8    H4    1.112152 S    
C3    C22   1.447664 S    
O21   Cr4   1.962546 S    
C32   C33   1.360889 A    
O6    Cr3   1.954234 S    
C36   H27   1.111438 S    
O8    C4    1.270333 A    
O20   C60   1.269978 A    
C23   C27   1.400351 A    
C19   H14   1.082823 S    
C21   H18   1.110728 S    
C18   C22   1.399176 A    
C25   C29   1.485930 S    
C28   H22   1.110040 S    
C26   C30   1.412433 A    
C6    C46   1.447112 S    
C10   C11   1.536542 S    
C12   C14   1.563047 S    
O2    C1    1.283343 A    
C31   C32   1.388033 A    
H5    C9    1.112200 S    
C16   C20   1.487211 S    
C48   C52   1.492658 S    
C15   C55   1.456063 S    
C14   H10   1.106138 S    
C44   C45   1.523852 S    
C14   H9    1.112449 S    
O24   Cr6   2.079221 S    
O7    C6    1.257018 A    
C5    O11   1.265379 A    
C50   C51   1.398465 A    
C2    C12   1.467652 S    
C7    H2    1.113415 S    
C43   H31   1.083092 S    
Cr6   O26   1.981250 S    
O18   Cr6   2.080556 S    
O25   Cr6   1.958539 S    
O3    Cr2   2.085726 S    
C25   C30   1.395574 A    
C4    O9    1.263776 A    
C48   C49   1.358490 A    
C34   C38   1.411611 A    
N1    O28   1.297863 A    
C33   C37   1.493359 S    
O10   C5    1.288460 A    
C31   C59   1.462243 S    
C58   O22   1.278859 A    
Cr3   O13   1.988189 S    
C15   C19   1.416631 A    
C47   C51   1.409677 A    
C1    O3    1.259877 A    
O23   C59   1.308241 A    
O17   Cr5   1.961894 S    
