data_mof_unit_59584.cif
_audit_creation_date              2012-10-26T17:11:25-0400
_audit_creation_method            fapswitch 2.2
_symmetry_space_group_name_H-M    P1
_symmetry_Int_Tables_number       1
_space_group_crystal_system       triclinic
_cell_length_a                    28.016001
_cell_length_b                    18.730194
_cell_length_c                    16.874965
_cell_angle_alpha                 90.201223
_cell_angle_beta                  62.485217
_cell_angle_gamma                 90.300108
_cell_volume                      7853.36148396

loop_
_atom_site_label
_atom_site_type_symbol
_atom_type_description
_atom_site_fract_x
_atom_site_fract_y
_atom_site_fract_z
_atom_type_partial_charge
C1    C     C_R   0.294972 0.728173 0.329762 0.553873
C2    C     C_R   0.597133 0.000334 0.513749 0.024349
C3    C     C_R   0.690299 0.714693 0.903768 -0.008767
C4    C     C_R   0.926482 0.903133 0.066584 0.554448
C5    C     C_R   0.073493 0.096901 0.933436 0.554600
C6    C     C_R   0.073557 0.903256 0.933292 0.553982
C7    C     C_R   0.926437 0.096737 0.066713 0.554190
C8    C     C_R   0.426506 0.403100 0.066564 0.554329
C9    C     C_R   0.573454 0.596956 0.933469 0.554559
C10   C     C_R   0.573554 0.403250 0.933294 0.554062
C11   C     C_R   0.426432 0.596730 0.066717 0.553818
C12   C     C_R   0.040360 0.625369 0.528764 0.011611
C13   C     C_R   0.912669 0.500512 0.455254 0.023009
C14   C     C_R   0.972704 0.374249 0.426083 0.011833
C15   C     C_R   0.956127 0.628635 0.483165 0.006425
C16   C     C_R   0.069414 0.375884 0.440068 0.009215
C17   C     C_R   0.528480 0.119702 0.570893 0.013446
C18   C     C_R   0.471526 0.880298 0.429086 0.013443
C19   C     C_R   0.431145 0.118571 0.559237 0.011390
C20   C     C_R   0.568863 0.881429 0.440739 0.011330
C21   C     C_R   0.014029 0.689757 0.532881 -0.128714
C22   C     C_R   0.005144 0.313123 0.404797 -0.129067
C23   C     C_R   0.973665 0.691905 0.506520 -0.130489
C24   C     C_R   0.100160 0.499388 0.502673 0.023176
C25   C     C_R   0.053518 0.314292 0.410348 -0.130794
C26   C     C_R   0.493031 0.177716 0.602754 -0.128604
C27   C     C_R   0.506977 0.822284 0.397222 -0.128617
C28   C     C_R   0.444690 0.177012 0.597375 -0.130332
C29   C     C_R   0.555318 0.822990 0.402599 -0.130378
C30   C     C_R   0.980217 0.563656 0.483381 0.023486
C31   C     C_R   0.037440 0.437204 0.461171 0.024088
C32   C     C_R   0.024737 0.562695 0.500786 0.023310
C33   C     C_R   0.989910 0.436956 0.451403 0.024287
C34   C     C_R   0.465862 0.059596 0.528501 0.023803
C35   C     C_R   0.616393 0.881326 0.448983 -0.117436
C36   C     C_R   0.534146 0.940404 0.471476 0.023811
C37   C     C_R   0.514487 0.059957 0.534913 0.023364
C38   C     C_R   0.485520 0.940044 0.465064 0.023370
C39   C     C_R   0.451387 0.999748 0.493304 -0.006516
C40   C     C_R   0.548620 0.000252 0.506674 -0.006515
C41   C     C_R   0.960977 0.500269 0.463090 -0.006369
C42   C     C_R   0.053780 0.499487 0.489312 -0.006646
C43   C     C_R   0.386236 0.937201 0.458025 -0.001231
C44   C     C_R   0.613768 0.062798 0.541961 -0.001239
C45   C     C_R   0.629345 0.938260 0.491330 -0.002144
C46   C     C_R   0.383614 0.118674 0.550997 -0.117444
C47   C     C_R   0.370661 0.061739 0.508653 -0.002144
C48   C     C_R   0.890452 0.435272 0.444519 -0.001889
C49   C     C_R   0.116563 0.562935 0.529515 -0.001642
C50   C     C_R   0.130650 0.436324 0.486969 -0.001893
C51   C     C_R   0.887286 0.566230 0.457692 -0.001484
C52   C     C_R   0.333949 0.935476 0.463097 -0.026835
C53   C     C_R   0.666053 0.064523 0.536894 -0.026856
C54   C     C_R   0.673739 0.936257 0.511061 -0.023883
C55   C     C_R   0.326265 0.063743 0.488927 -0.024012
C56   C     C_R   0.836706 0.434776 0.454861 -0.026684
C57   C     C_R   0.422354 0.879165 0.425787 -0.115946
C58   C     C_R   0.166768 0.564222 0.532231 -0.026828
C59   C     C_R   0.174030 0.435504 0.509424 -0.022044
C60   C     C_R   0.835478 0.565684 0.460042 -0.023419
C61   C     C_R   0.307173 0.999837 0.471105 -0.162410
C62   C     C_R   0.692830 0.000162 0.528886 -0.162434
C63   C     C_R   0.811244 0.500078 0.459796 -0.164659
C64   C     C_R   0.192449 0.499701 0.528120 -0.163798
C65   C     C_R   0.577650 0.120833 0.574198 -0.115940
C66   C     C_R   0.116916 0.377116 0.448281 -0.117477
C67   C     C_R   0.914974 0.629719 0.459179 -0.117331
C68   C     C_R   0.923478 0.373639 0.422640 -0.117346
C69   C     C_R   0.705011 0.271796 0.670248 0.554453
C70   C     C_R   0.082997 0.623461 0.549661 -0.115229
C71   C     C_R   0.220998 0.767483 0.952968 0.030046
C72   C     C_R   0.778879 0.232293 0.047137 0.029897
C73   C     C_R   0.778448 0.767602 0.047745 0.031233
C74   C     C_R   0.221114 0.233184 0.952632 0.031365
C75   C     C_R   0.721020 0.267507 0.952944 0.029913
C76   C     C_R   0.278838 0.732223 0.047174 0.029940
C77   C     C_R   0.278889 0.266814 0.047364 0.031325
C78   C     C_R   0.720616 0.734092 0.953057 0.030748
C79   C     C_R   0.277569 0.770293 0.910489 -0.109087
C80   C     C_R   0.704924 0.728376 0.670359 0.564048
C81   C     C_R   0.722306 0.229507 0.089645 -0.109042
C82   C     C_R   0.721985 0.771791 0.089931 -0.109844
C83   C     C_R   0.277569 0.228983 0.910511 -0.109994
C84   C     C_R   0.777592 0.270287 0.910438 -0.109045
C85   C     C_R   0.222265 0.729411 0.089660 -0.109323
C86   C     C_R   0.222434 0.271015 0.089484 -0.110054
C87   C     C_R   0.777068 0.729914 0.910909 -0.109696
C88   C     C_R   0.306164 0.752775 0.957044 -0.110211
C89   C     C_R   0.693700 0.247004 0.043095 -0.110187
C90   C     C_R   0.693352 0.755131 0.043053 -0.110809
C91   C     C_R   0.295038 0.271691 0.329664 0.555030
C92   C     C_R   0.306170 0.245694 0.957406 -0.110764
C93   C     C_R   0.806196 0.252792 0.956987 -0.110238
C94   C     C_R   0.193669 0.746931 0.043102 -0.110445
C95   C     C_R   0.193833 0.254304 0.042590 -0.110781
C96   C     C_R   0.805692 0.746559 0.957768 -0.110871
C97   C     C_R   0.144739 0.829977 0.943664 -0.117499
C98   C     C_R   0.855182 0.169888 0.056405 -0.117160
C99   C     C_R   0.855029 0.829686 0.056631 -0.118276
C100  C     C_R   0.144688 0.170790 0.943607 -0.118311
C101  C     C_R   0.644746 0.329984 0.943655 -0.117014
C102  C     C_R   0.794979 0.228187 0.329757 0.554129
C103  C     C_R   0.355149 0.669835 0.056432 -0.117149
C104  C     C_R   0.355313 0.329209 0.056393 -0.118345
C105  C     C_R   0.644333 0.671389 0.943903 -0.118206
C106  C     C_R   0.117967 0.852086 0.895027 -0.013771
C107  C     C_R   0.882008 0.147877 0.104993 -0.013599
C108  C     C_R   0.882051 0.851808 0.104940 -0.013854
C109  C     C_R   0.117844 0.148347 0.895136 -0.013879
C110  C     C_R   0.617959 0.352069 0.895033 -0.013546
C111  C     C_R   0.381989 0.647849 0.105006 -0.013659
C112  C     C_R   0.382155 0.351654 0.104865 -0.013908
C113  C     C_R   0.205019 0.771810 0.670244 0.555706
C114  C     C_R   0.617684 0.648591 0.895257 -0.013662
C115  C     C_R   0.136593 0.829756 0.806884 -0.139239
C116  C     C_R   0.863414 0.170266 0.193108 -0.139506
C117  C     C_R   0.863579 0.829499 0.192985 -0.138340
C118  C     C_R   0.136407 0.170491 0.807007 -0.137135
C119  C     C_R   0.636570 0.329712 0.806902 -0.139499
C120  C     C_R   0.363398 0.670242 0.193118 -0.139674
C121  C     C_R   0.363591 0.329514 0.192995 -0.137012
C122  C     C_R   0.636328 0.670585 0.807047 -0.137212
C123  C     C_R   0.182497 0.787664 0.765802 -0.014476
C124  C     C_R   0.204960 0.228311 0.670337 0.554674
C125  C     C_R   0.817485 0.212310 0.234210 -0.014322
C126  C     C_R   0.817425 0.787495 0.234268 -0.014197
C127  C     C_R   0.182477 0.212657 0.765796 -0.014564
C128  C     C_R   0.682480 0.287632 0.765813 -0.014489
C129  C     C_R   0.317460 0.712267 0.234228 -0.014405
C130  C     C_R   0.317520 0.287346 0.234205 -0.014383
C131  C     C_R   0.682296 0.712953 0.765922 -0.014532
C132  C     C_R   0.209116 0.765568 0.814570 -0.117004
C133  C     C_R   0.790816 0.234316 0.185486 -0.116835
C134  C     C_R   0.790423 0.765457 0.185842 -0.120129
C135  C     C_R   0.795019 0.771728 0.329675 0.548765
C136  C     C_R   0.209305 0.235007 0.814378 -0.120219
C137  C     C_R   0.709107 0.265547 0.814572 -0.116787
C138  C     C_R   0.290769 0.734237 0.185524 -0.116820
C139  C     C_R   0.290693 0.264996 0.185623 -0.120044
C140  C     C_R   0.708894 0.735714 0.814709 -0.117358
C141  C     C_R   0.196943 0.631480 0.525934 0.550858
C142  C     C_R   0.803758 0.368180 0.471394 0.549991
C143  C     C_R   0.802994 0.631584 0.474142 0.555730
C144  C     C_R   0.200630 0.368903 0.513918 0.556330
C145  C     C_R   0.696607 0.131755 0.527631 0.549689
C146  C     C_R   0.402873 0.999666 0.486233 0.024384
C147  C     C_R   0.303394 0.868244 0.472366 0.549775
C148  C     C_R   0.299359 0.130905 0.486149 0.555024
C149  C     C_R   0.700642 0.869094 0.513845 0.555255
C150  C     C_R   0.190703 0.786931 0.903597 -0.009122
C151  C     C_R   0.809199 0.212900 0.096487 -0.009175
C152  C     C_R   0.808874 0.786736 0.096930 -0.008720
C153  C     C_R   0.190766 0.213882 0.903374 -0.008520
C154  C     C_R   0.690709 0.286933 0.903587 -0.009083
C155  C     C_R   0.309154 0.712823 0.096526 -0.009142
C156  C     C_R   0.309234 0.286117 0.096625 -0.008487
Cu1   Cu    Cu3+1 0.209920 0.785290 0.495070 0.912402
Cu2   Cu    Cu3+1 0.504760 0.500000 0.075850 0.921365
Cu3   Cu    Cu3+1 0.995240 1.000000 0.924150 0.921529
Cu4   Cu    Cu3+1 0.004760 0.000000 0.075850 0.918007
Cu5   Cu    Cu3+1 0.790080 0.214710 0.504930 0.914573
Cu6   Cu    Cu3+1 0.790080 0.785290 0.504930 0.906856
Cu7   Cu    Cu3+1 0.209920 0.214710 0.495070 0.911150
Cu8   Cu    Cu3+1 0.709920 0.285290 0.495070 0.918810
Cu9   Cu    Cu3+1 0.290080 0.714710 0.504930 0.919005
Cu10  Cu    Cu3+1 0.290080 0.285290 0.504930 0.914775
Cu11  Cu    Cu3+1 0.709920 0.714710 0.495070 0.915655
Cu12  Cu    Cu3+1 0.495240 0.500000 0.924150 0.921432
H1    H     H_    0.269993 0.999876 0.466083 0.159613
H2    H     H_    0.349674 0.756284 0.922879 0.107460
H3    H     H_    0.349616 0.241262 0.923650 0.105125
H4    H     H_    0.649904 0.759507 0.076853 0.105087
H5    H     H_    0.299746 0.787223 0.841552 0.109524
H6    H     H_    0.700136 0.212622 0.158600 0.109574
H7    H     H_    0.699999 0.789131 0.158783 0.102949
H8    H     H_    0.299580 0.211558 0.841696 0.102859
H9    H     H_    0.799764 0.287176 0.841484 0.109568
H10   H     H_    0.200090 0.712492 0.158602 0.109254
H11   H     H_    0.200424 0.288441 0.158298 0.103931
H12   H     H_    0.730009 0.000123 0.533911 0.159625
H13   H     H_    0.799063 0.712513 0.842092 0.109011
H14   H     H_    0.131232 0.848587 0.011493 0.130755
H15   H     H_    0.868665 0.151231 0.988602 0.131244
H16   H     H_    0.868451 0.848299 0.988904 0.130710
H17   H     H_    0.131202 0.152306 0.011403 0.130191
H18   H     H_    0.631253 0.348618 0.011470 0.131290
H19   H     H_    0.368634 0.651181 0.988626 0.131293
H20   H     H_    0.368800 0.347691 0.988595 0.130185
H21   H     H_    0.630807 0.652992 0.011743 0.130182
H22   H     H_    0.116517 0.847560 0.768941 0.153280
H23   H     H_    0.770733 0.499795 0.467152 0.159713
H24   H     H_    0.883534 0.152541 0.231015 0.152765
H25   H     H_    0.883919 0.847302 0.230740 0.153755
H26   H     H_    0.116206 0.152435 0.769135 0.155444
H27   H     H_    0.616482 0.347496 0.768969 0.152971
H28   H     H_    0.383531 0.652540 0.231014 0.152942
H29   H     H_    0.383790 0.347571 0.230868 0.155562
H30   H     H_    0.616293 0.652229 0.769037 0.155405
H31   H     H_    0.244704 0.732576 0.782972 0.131008
H32   H     H_    0.755213 0.267279 0.217097 0.131041
H33   H     H_    0.754530 0.732664 0.217568 0.127419
H34   H     H_    0.228357 0.499739 0.537007 0.158772
H35   H     H_    0.245140 0.267912 0.782704 0.127511
H36   H     H_    0.744695 0.232555 0.782972 0.130963
H37   H     H_    0.255155 0.767180 0.217144 0.130789
H38   H     H_    0.254858 0.232091 0.217298 0.127416
H39   H     H_    0.744635 0.768798 0.783116 0.130290
H40   H     H_    0.581773 0.777280 0.378072 0.101292
H41   H     H_    0.418237 0.222723 0.621899 0.101344
H42   H     H_    0.497149 0.776074 0.368675 0.105165
H43   H     H_    0.502859 0.223927 0.631301 0.105190
H44   H     H_    0.077899 0.266486 0.393294 0.101640
H45   H     H_    0.150157 0.743436 0.077267 0.106437
H46   H     H_    0.954927 0.742554 0.507303 0.103376
H47   H     H_    0.993137 0.264426 0.383880 0.104365
H48   H     H_    0.026060 0.738816 0.553054 0.104238
H49   H     H_    0.643731 0.837494 0.418548 0.143012
H50   H     H_    0.356276 0.162505 0.581436 0.142777
H51   H     H_    0.413741 0.833767 0.394658 0.136871
H52   H     H_    0.586261 0.166229 0.605333 0.136843
H53   H     H_    0.143309 0.332092 0.420601 0.146625
H54   H     H_    0.907582 0.681280 0.439847 0.153398
H55   H     H_    0.912822 0.325396 0.399276 0.142134
H56   H     H_    0.849708 0.256276 0.922799 0.107395
H57   H     H_    0.088661 0.669744 0.582637 0.143405
H58   H     H_    0.849134 0.742101 0.923972 0.106199
H59   H     H_    0.150387 0.258737 0.076345 0.105778
H60   H     H_    0.650189 0.243528 0.077282 0.107481
O1    O     O_R   0.255040 0.869590 0.478480 -0.507116
O2    O     O_R   0.817950 0.203450 0.375560 -0.516344
O3    O     O_R   0.817950 0.796550 0.375560 -0.516622
O4    O     O_R   0.182050 0.203450 0.624440 -0.508533
O5    O     O_R   0.682050 0.296550 0.624440 -0.515228
O6    O     O_R   0.317950 0.703450 0.375560 -0.515561
O7    O     O_R   0.317950 0.296550 0.375560 -0.508142
O8    O     O_R   0.682050 0.703450 0.624440 -0.505801
O9    O     O_R   0.250530 0.763330 0.367210 -0.511485
O10   O     O_R   0.749470 0.236670 0.632790 -0.510781
O11   O     O_R   0.749470 0.763330 0.632790 -0.510135
O12   O     O_R   0.744960 0.130410 0.521520 -0.507077
O13   O     O_R   0.250530 0.236670 0.367210 -0.522759
O14   O     O_R   0.750530 0.263330 0.367210 -0.510833
O15   O     O_R   0.249470 0.736670 0.632790 -0.510429
O16   O     O_R   0.249470 0.263330 0.632790 -0.522090
O17   O     O_R   0.750530 0.736670 0.367210 -0.523827
O18   O     O_R   0.177260 0.690030 0.513710 -0.518740
O19   O     O_R   0.822740 0.309970 0.486290 -0.515963
O20   O     O_R   0.822740 0.690030 0.486290 -0.525884
O21   O     O_R   0.177260 0.309970 0.513710 -0.519331
O22   O     O_R   0.677260 0.190030 0.513710 -0.513491
O23   O     O_R   0.744960 0.869590 0.521520 -0.507946
O24   O     O_R   0.322740 0.809970 0.486290 -0.513473
O25   O     O_R   0.322740 0.190030 0.486290 -0.516453
O26   O     O_R   0.677260 0.809970 0.513710 -0.516690
O27   O     O_R   0.051640 0.926880 0.885090 -0.512339
O28   O     O_R   0.948360 0.073120 0.114910 -0.512710
O29   O     O_R   0.948360 0.926880 0.114910 -0.512437
O30   O     O_R   0.051640 0.073120 0.885090 -0.511567
O31   O     O_R   0.551640 0.426880 0.885090 -0.512603
O32   O     O_R   0.448360 0.573120 0.114910 -0.512744
O33   O     O_R   0.448360 0.426880 0.114910 -0.511529
O34   O     O_R   0.255040 0.130410 0.478480 -0.507722
O35   O     O_R   0.551640 0.573120 0.885090 -0.511413
O36   O     O_R   0.940620 0.926560 0.986760 -0.513833
O37   O     O_R   0.059380 0.073440 0.013240 -0.514194
O38   O     O_R   0.059380 0.926560 0.013240 -0.513835
O39   O     O_R   0.940620 0.073440 0.986760 -0.513202
O40   O     O_R   0.440620 0.426560 0.986760 -0.514339
O41   O     O_R   0.559380 0.573440 0.013240 -0.514274
O42   O     O_R   0.559380 0.426560 0.013240 -0.513201
O43   O     O_R   0.440620 0.573440 0.986760 -0.513324
O44   O     O_R   0.755040 0.369590 0.478480 -0.506087
O45   O     O_R   0.244960 0.630410 0.521520 -0.505682
O46   O     O_R   0.244960 0.369590 0.521520 -0.507634
O47   O     O_R   0.755040 0.630410 0.478480 -0.505740
O48   O     O_R   0.182050 0.796550 0.624440 -0.514631

loop_
_geom_bond_atom_site_label_1
_geom_bond_atom_site_label_2
_ccdc_geom_bond_type
C100  C153  A    
C5    O37   A    
C31   C42   A    
C132  C150  A    
C79   H5    S    
C133  C151  A    
C74   C83   A    
C102  C125  S    
C14   C33   A    
C19   C46   A    
C3    C105  A    
C16   C31   A    
C120  H28   S    
C29   H40   S    
C9    C114  S    
C1    C129  S    
C52   C61   A    
C77   C156  S    
Cu9   O24   S    
Cu10  O16   S    
C144  O46   A    
C98   H15   S    
C131  C140  A    
C13   C51   A    
C44   C53   A    
C91   O13   A    
Cu3   O36   S    
C113  O15   A    
C97   C150  A    
C124  O16   A    
Cu1   O18   S    
Cu6   O3    S    
C119  C128  A    
C116  H24   S    
C47   C146  A    
C100  C109  A    
C58   C64   A    
Cu12  O40   S    
C113  O48   A    
C138  H37   S    
C109  C118  A    
C147  O24   A    
C115  C123  A    
C105  H21   S    
C103  H19   S    
C127  C136  A    
Cu5   O10   S    
C28   H41   S    
C120  C129  A    
C96   H58   S    
Cu8   O22   S    
C139  H38   S    
C105  C114  A    
C36   C40   A    
C72   C151  S    
C6    C106  S    
C21   H48   S    
C124  O4    A    
C124  C127  S    
C61   H1    S    
C50   C59   A    
C35   C45   A    
C140  H39   S    
C15   C30   A    
C16   C25   A    
C82   C90   A    
C137  H36   S    
C76   C155  S    
C106  C115  A    
C18   C38   A    
C136  C153  A    
C147  O1    A    
C58   C141  S    
Cu4   O29   S    
C6    O27   A    
C119  H27   S    
C84   C93   A    
C95   H59   S    
C117  H25   S    
C86   C95   A    
C2    C40   A    
C126  C134  A    
C102  O2    A    
C10   O31   A    
C148  O34   A    
C76   C85   A    
C78   C87   A    
C144  O21   A    
Cu4   O38   S    
C123  C132  A    
C27   C29   A    
C80   O8    A    
C141  O45   A    
C121  C130  A    
Cu1   O48   S    
C71   C79   A    
Cu1   O1    S    
Cu5   O12   S    
C99   C108  A    
Cu2   O41   S    
Cu12  O31   S    
C77   C86   A    
C37   C40   A    
C60   C143  S    
C38   C39   A    
C43   C52   A    
C71   C150  S    
C91   O7    A    
C143  O20   A    
Cu7   O34   S    
C85   C94   A    
C69   O5    A    
Cu10  O46   S    
C20   C35   A    
C69   C128  S    
C2    C44   A    
C85   H10   S    
C22   C25   A    
C6    O38   A    
C30   C41   A    
C102  O14   A    
C83   H8    S    
C44   C65   A    
C118  H26   S    
C35   H49   S    
C2    C45   A    
C24   C50   A    
C104  H20   S    
C34   C39   A    
Cu7   O4    S    
Cu12  O43   S    
Cu1   Cu9   S    
C104  C112  A    
C1    O9    A    
Cu6   O23   S    
C4    O36   A    
C15   C67   A    
C51   C67   A    
C122  H30   S    
C7    O39   A    
C19   C28   A    
C116  C125  A    
C73   C152  S    
C7    C107  S    
C118  C127  A    
C89   H60   S    
C122  C131  A    
C134  H33   S    
C117  C126  A    
C12   C70   A    
C32   C42   A    
C11   O43   A    
C108  C117  A    
C110  C119  A    
C87   H13   S    
C52   C147  S    
C99   C152  A    
Cu3   O30   S    
C14   C22   A    
C100  H17   S    
C81   C89   A    
C112  C121  A    
Cu6   O11   S    
C55   C148  S    
C101  C154  A    
Cu2   O32   S    
C55   C61   A    
C86   H11   S    
Cu7   O13   S    
C84   H9    S    
C107  C116  A    
C75   C89   A    
C82   H7    S    
C142  O19   A    
C51   C60   A    
C8    O33   A    
C136  H35   S    
C138  C155  A    
C4    O29   A    
C46   H50   S    
C34   C37   A    
C24   C42   A    
C135  O17   A    
Cu3   O27   S    
Cu8   O14   S    
C13   C41   A    
Cu2   Cu12  S    
C97   H14   S    
C78   C90   A    
C4    C108  S    
C80   O11   A    
Cu5   O19   S    
C8    C112  S    
C7    O28   A    
C125  C133  A    
C145  O12   A    
Cu10  O7    S    
Cu10  O25   S    
C103  C111  A    
C9    O41   A    
C69   O10   A    
C72   C81   A    
C56   C142  S    
Cu9   O6    S    
C80   C131  S    
C135  O3    A    
C143  O47   A    
C66   H53   S    
C130  C139  A    
C79   C88   A    
C98   C151  A    
Cu11  O8    S    
C45   C54   A    
C88   H2    S    
C11   C111  S    
Cu7   Cu10  S    
C71   C94   A    
C54   C62   A    
C27   H42   S    
C98   C107  A    
C25   H44   S    
C65   H52   S    
C18   C57   A    
Cu3   Cu4   S    
C113  C123  S    
C1    O6    A    
C134  C152  A    
C53   C145  S    
C48   C68   A    
C72   C93   A    
C103  C155  A    
C126  C135  S    
C49   C70   A    
C21   C23   A    
C16   C66   A    
C73   C82   A    
Cu5   Cu8   S    
C46   C47   A    
C94   H45   S    
C17   C65   A    
Cu2   O42   S    
C33   C41   A    
C11   O32   A    
Cu4   O28   S    
C36   C38   A    
C101  C110  A    
C43   C146  A    
C5    C109  S    
C63   H23   S    
C39   C146  A    
C137  C154  A    
C10   C110  S    
C93   H56   S    
Cu6   O20   S    
C75   C84   A    
Cu5   O2    S    
C20   C36   A    
C10   O42   A    
C90   H4    S    
C14   C68   A    
C73   C96   A    
C3    C78   S    
C23   H46   S    
C149  O23   A    
C77   C92   A    
C70   H57   S    
C8    O40   A    
C91   C130  S    
C83   C92   A    
C59   C64   A    
C60   C63   A    
C17   C26   A    
C62   H12   S    
C92   H3    S    
Cu3   O39   S    
C115  H22   S    
C129  C138  A    
C31   C33   A    
C26   H43   S    
C76   C88   A    
C15   C23   A    
Cu8   O44   S    
C148  O25   A    
Cu11  O26   S    
C12   C32   A    
C54   C149  S    
C20   C29   A    
C145  O22   A    
Cu7   O21   S    
Cu11  O47   S    
C43   C57   A    
C57   H51   S    
C149  O26   A    
Cu11  O17   S    
C12   C21   A    
C132  H31   S    
C49   C58   A    
C74   C153  S    
C111  C120  A    
C67   H54   S    
C128  C137  A    
C53   C62   A    
Cu2   O33   S    
C87   C96   A    
C141  O18   A    
C56   C63   A    
C17   C37   A    
C104  C156  A    
C50   C66   A    
C121  H29   S    
C99   H16   S    
Cu9   O15   S    
C59   C144  S    
C133  H32   S    
C68   H55   S    
C97   C106  A    
C101  H18   S    
C47   C55   A    
Cu1   O9    S    
C24   C49   A    
C48   C56   A    
C64   H34   S    
Cu8   O5    S    
C74   C95   A    
C18   C27   A    
C19   C34   A    
C13   C48   A    
C26   C28   A    
C81   H6    S    
C30   C32   A    
C75   C154  S    
C139  C156  A    
C9    O35   A    
C5    O30   A    
Cu12  O35   S    
C142  O44   A    
Cu6   Cu11  S    
C114  C122  A    
Cu4   O37   S    
C3    C140  A    
Cu9   O45   S    
C22   H47   S    
