data_mof_unit_24210.cif
_audit_creation_date              2012-10-26T18:33:35-0400
_audit_creation_method            fapswitch 2.2
_symmetry_space_group_name_H-M    P1
_symmetry_Int_Tables_number       1
_space_group_crystal_system       triclinic
_cell_length_a                    15.081526
_cell_length_b                    13.686263
_cell_length_c                    10.754644
_cell_angle_alpha                 90.138083
_cell_angle_beta                  89.995801
_cell_angle_gamma                 89.88713
_cell_volume                      2219.85241734

loop_
_atom_site_label
_atom_site_type_symbol
_atom_type_description
_atom_site_fract_x
_atom_site_fract_y
_atom_site_fract_z
_atom_type_partial_charge
C1    C     C_R   0.328468 0.500091 0.499958 0.555298
C2    C     C_R   0.046651 0.677260 0.469124 -0.126506
C3    C     C_R   0.092952 0.589368 0.484189 -0.016777
C4    C     C_R   0.501310 0.500023 0.259787 0.586631
C5    C     C_R   0.046407 0.500987 0.498988 0.050021
C6    C     C_R   0.092901 0.412104 0.513753 0.018557
C7    C     C_R   0.046367 0.324402 0.528198 -0.133473
C8    C     C_R   0.954026 0.324499 0.527930 -0.133420
C9    C     C_R   0.185359 0.588508 0.484877 -0.141272
C10   C     C_R   0.231661 0.500333 0.499599 -0.007748
C11   C     C_R   0.185271 0.412393 0.513803 -0.131595
C12   C     C_3   0.574450 0.431092 0.927496 -0.253688
C13   C     C_R   0.441543 0.793545 0.574092 0.029891
C14   C     C_R   0.441697 0.206986 0.574333 0.033849
C15   C     C_R   0.558574 0.793003 0.426181 0.050975
C16   C     C_R   0.558193 0.206462 0.425578 0.036438
C17   C     C_R   0.559937 0.896072 0.424315 -0.015957
C18   C     C_R   0.559723 0.103357 0.423974 -0.018565
C19   C     C_R   0.671497 0.499945 0.499084 0.535021
C20   C     C_R   0.500047 0.948162 0.500081 0.051684
C21   C     C_R   0.500013 0.051828 0.500026 0.053334
C22   C     C_R   0.440229 0.896638 0.575978 -0.016040
C23   C     C_R   0.814978 0.412407 0.512908 -0.144014
C24   C     C_R   0.440286 0.103909 0.576062 -0.016482
C25   C     C_R   0.619470 0.948061 0.348828 -0.139428
C26   C     C_R   0.619300 0.050781 0.348567 -0.151117
C27   C     C_R   0.380881 0.051905 0.651727 -0.148559
C28   C     C_R   0.380820 0.949198 0.651632 -0.145866
C29   C     C_R   0.501466 0.500265 0.740205 0.549584
C30   C     C_3   0.515297 0.606995 0.069701 0.135627
C31   C     C_3   0.409374 0.463868 0.072072 0.135936
C32   C     C_3   0.521583 0.605647 0.927217 -0.211432
C33   C     C_3   0.409376 0.467639 0.926031 -0.232751
C34   C     C_R   0.768274 0.500077 0.497850 -0.034221
C35   C     C_3   0.573259 0.428675 0.070755 -0.241285
C36   C     C_3   0.501536 0.500069 0.122077 0.052724
C37   C     C_3   0.501606 0.501086 0.877759 -0.020880
C38   C     C_3   0.666685 0.629620 0.129202 -0.112930
C39   C     C_3   0.381918 0.290117 0.060644 -0.107037
C40   C     C_3   0.882338 0.814955 0.571032 -0.319801
C41   C     C_R   0.814031 0.588214 0.482042 -0.139043
C42   C     C_R   0.906719 0.590238 0.483793 0.036057
C43   C     C_R   0.953428 0.501293 0.498780 0.029244
C44   C     C_R   0.907256 0.412295 0.513208 0.011788
C45   C     C_R   0.953814 0.678763 0.469797 0.136953
Cu1   Cu    Cu3+1 0.499990 0.597420 0.500010 0.938216
Cu2   Cu    Cu3+1 0.499990 0.402580 0.500010 0.944386
H1    H     H_    0.082605 0.745226 0.458094 0.102432
H2    H     H_    0.666092 0.909299 0.289932 0.116429
H3    H     H_    0.665798 0.089077 0.289458 0.100670
H4    H     H_    0.334445 0.090639 0.710929 0.095650
H5    H     H_    0.334321 0.910901 0.710740 0.100399
H6    H     H_    0.452091 0.646116 0.090113 0.126827
H7    H     H_    0.359410 0.519166 0.101871 0.110064
H8    H     H_    0.472737 0.658925 0.889070 0.108988
H9    H     H_    0.358536 0.521517 0.895212 0.078304
H10   H     H_    0.587813 0.630005 0.894574 0.148451
H11   H     H_    0.390531 0.398680 0.879300 0.124574
H12   H     H_    0.221142 0.656553 0.473478 0.124877
H13   H     H_    0.640180 0.443576 0.107911 0.087618
H14   H     H_    0.559355 0.353109 0.102462 0.147589
H15   H     H_    0.640786 0.455412 0.894611 0.112627
H16   H     H_    0.564128 0.355836 0.891034 0.134672
H17   H     H_    0.779599 0.344162 0.524865 0.125564
H18   H     H_    0.777010 0.655154 0.467960 0.159331
H19   H     H_    0.686212 0.593328 0.041080 0.102128
H20   H     H_    0.675035 0.580552 0.210356 0.125694
H21   H     H_    0.713522 0.691047 0.143154 0.129960
H22   H     H_    0.443875 0.280561 0.006551 0.099900
H23   H     H_    0.220924 0.344131 0.525439 0.122571
H24   H     H_    0.322629 0.287708 0.999472 0.111605
H25   H     H_    0.377249 0.226772 0.124425 0.144308
H26   H     H_    0.940744 0.817728 0.397293 0.246168
H27   H     H_    0.941968 0.836042 0.625513 0.138998
H28   H     H_    0.840874 0.764613 0.627175 0.157073
H29   H     H_    0.842756 0.881630 0.551225 0.142433
H30   H     H_    0.081391 0.255786 0.539623 0.103884
H31   H     H_    0.919157 0.255914 0.539144 0.103674
H32   H     H_    0.396087 0.752785 0.632001 0.116998
H33   H     H_    0.396385 0.248153 0.632487 0.110922
H34   H     H_    0.604305 0.751849 0.368726 0.153851
H35   H     H_    0.603488 0.247237 0.367432 0.114408
N1    N     N_R   0.499930 0.743810 0.499950 -0.242626
N2    N     N_R   0.499930 0.256190 0.499950 -0.236134
N3    N     N_2   0.908487 0.769384 0.455142 -0.536131
O1    O     O_R   0.370250 0.582280 0.500040 -0.515751
O2    O     O_3   0.381251 0.376205 0.132939 -0.543884
O3    O     O_R   0.370250 0.417720 0.500040 -0.497729
O4    O     O_R   0.499970 0.582270 0.317700 -0.479142
O5    O     O_R   0.499970 0.417730 0.317700 -0.469964
O6    O     O_R   0.629730 0.582260 0.499980 -0.516577
O7    O     O_R   0.629730 0.417740 0.499980 -0.516202
O8    O     O_R   0.500000 0.582270 0.682320 -0.511844
O9    O     O_R   0.500000 0.417730 0.682320 -0.512583
O10   O     O_3   0.580024 0.668238 0.127127 -0.563398

loop_
_geom_bond_atom_site_label_1
_geom_bond_atom_site_label_2
_ccdc_geom_bond_type
C30   C32   S    
C13   H32   S    
C33   H11   S    
C18   C21   A    
Cu2   O7    S    
C35   C36   S    
C18   C26   A    
C24   C27   A    
C39   O2    S    
C4    C36   S    
C11   H23   S    
C7    C8    A    
C15   H34   S    
Cu1   O4    S    
C26   H3    S    
C5    C6    A    
C16   N2    A    
C17   C20   A    
C41   C42   A    
C14   C24   A    
C12   C37   S    
C19   O7    A    
C38   H19   S    
C38   O10   S    
C39   H25   S    
C31   C33   S    
C14   N2    A    
C9    C10   A    
C32   H8    S    
C7    H30   S    
C1    O3    A    
C5    C43   A    
C22   C28   A    
C8    H31   S    
C34   C41   A    
C32   H10   S    
C27   H4    S    
C4    O5    A    
C2    C45   A    
C30   H6    S    
C31   O2    S    
C6    C11   A    
C12   H16   S    
C41   H18   S    
Cu1   O6    S    
C2    H1    S    
C25   C26   A    
Cu2   N2    S    
C33   C37   S    
C23   C44   A    
C40   H29   S    
C35   H13   S    
C9    H12   S    
C42   C45   A    
C40   N3    S    
C45   N3    S    
C43   C44   A    
C30   O10   S    
C3    C9    A    
C12   H15   S    
C23   C34   A    
C16   H35   S    
C39   H22   S    
C35   H14   S    
C32   C37   S    
C38   H20   S    
C12   C35   S    
H26   N3    S    
C23   H17   S    
C38   H21   S    
C14   H33   S    
Cu2   O5    S    
C42   C43   A    
C4    O4    A    
C1    O1    A    
C15   C17   A    
Cu1   Cu2   S    
C1    C10   S    
C8    C44   A    
C20   C22   A    
C3    C5    A    
C19   C34   S    
C15   N1    A    
C6    C7    A    
C13   N1    A    
C40   H28   S    
C30   C36   S    
C17   C25   A    
Cu2   O3    S    
C2    C3    A    
C29   O8    A    
C28   H5    S    
C29   O9    A    
Cu1   O8    S    
C33   H9    S    
Cu2   O9    S    
C40   H27   S    
C13   C22   A    
C31   H7    S    
C25   H2    S    
C19   O6    A    
C10   C11   A    
Cu1   N1    S    
C20   C21   A    
C16   C18   A    
C21   C24   A    
C29   C37   S    
C27   C28   A    
C39   H24   S    
C31   C36   S    
Cu1   O1    S    
