data_mof_unit_24923.cif
_audit_creation_date              2012-12-10T18:58:43-0500
_audit_creation_method            fapswitch 2.2
_symmetry_space_group_name_H-M    P1
_symmetry_Int_Tables_number       1
_space_group_crystal_system       triclinic
_cell_length_a                    13.001339
_cell_length_b                    10.890113
_cell_length_c                    9.569012
_cell_angle_alpha                 90.612126
_cell_angle_beta                  96.177066
_cell_angle_gamma                 90.950567
_cell_volume                      1346.68126325

loop_
_atom_site_label
_atom_site_type_symbol
_atom_type_description
_atom_site_fract_x
_atom_site_fract_y
_atom_site_fract_z
_atom_type_partial_charge
C1    C     C_R   0.497041 0.262621 0.498515 0.817083
C2    C     C_R   0.028717 0.475593 0.565565 0.117930
C3    C     C_R   0.972178 0.497105 0.434362 0.169917
C4    C     C_R   0.864919 0.499522 0.424482 -0.306829
C5    C     C_R   0.869788 0.455133 0.674019 0.264742
C6    C     C_R   0.977323 0.453268 0.683700 -0.234466
C7    C     C_R   0.522750 0.067508 0.620735 0.108545
C8    C     C_R   0.496360 0.129391 0.495560 -0.137318
C9    C     C_R   0.471507 0.060572 0.369955 0.234415
C10   C     C_R   0.471416 0.932701 0.375456 -0.296074
C11   C     C_R   0.496648 0.871251 0.501708 -0.132134
C12   C     C_R   0.300635 0.499173 0.473610 0.784388
C13   C     C_R   0.523829 0.940360 0.624498 0.120150
C14   C     C_3   0.473647 0.940549 0.758297 -0.491009
C15   C     C_3   0.472901 0.078823 0.753166 -0.439546
C16   C     C_R   0.581571 0.550930 0.085160 0.216318
C17   C     C_R   0.424053 0.441263 0.062581 -0.076477
C18   C     C_R   0.423640 0.441953 0.913889 -0.081667
C19   C     C_R   0.583808 0.544107 0.937959 0.247256
C20   C     C_3   0.631658 0.666753 0.926039 -0.548711
C21   C     C_3   0.618649 0.684553 0.081033 0.428168
C22   C     C_R   0.497797 0.737619 0.500734 0.804033
C23   C     C_R   0.699437 0.493793 0.526882 0.825366
C24   C     C_R   0.812551 0.483018 0.543759 -0.115038
C25   C     C_R   0.187895 0.497015 0.458268 -0.048045
C26   C     C_R   0.023865 0.516622 0.315231 -0.182033
C27   C     C_R   0.131494 0.516409 0.327101 -0.201900
C28   C     C_R   0.136066 0.475653 0.576755 -0.245033
Cu1   Cu    Cu3+1 0.499990 0.499980 0.640670 0.958577
Cu2   Cu    Cu3+1 0.500010 0.500020 0.359330 0.961815
H1    H     H_    0.822278 0.514398 0.323162 0.175393
H2    H     H_    0.526215 0.909975 0.848880 0.204356
H3    H     H_    0.393660 0.116752 0.736490 0.192317
H4    H     H_    0.525057 0.123882 0.839075 0.215469
H5    H     H_    0.361161 0.396589 0.108423 0.145594
H6    H     H_    0.360550 0.397065 0.848886 0.132146
H7    H     H_    0.713199 0.659769 0.902201 0.210648
H8    H     H_    0.585408 0.726560 0.853126 0.211729
H9    H     H_    0.981223 0.532873 0.213617 0.150667
H10   H     H_    0.020840 0.433212 0.783719 0.162360
H11   H     H_    0.170438 0.532700 0.234312 0.152958
H12   H     H_    0.179092 0.459004 0.678097 0.144424
H13   H     H_    0.444478 0.881597 0.282098 0.205727
H14   H     H_    0.395063 0.897234 0.746605 0.206800
N1    N     N_R   0.500660 0.500930 0.148010 -0.191858
N2    N     N_R   0.500660 0.500890 0.852110 -0.179799
O1    O     O_R   0.500000 0.319640 0.618810 -0.576129
O2    O     O_R   0.500010 0.319680 0.381230 -0.541714
O3    O     O_R   0.348990 0.499960 0.599490 -0.596092
O4    O     O_R   0.349000 0.500000 0.361910 -0.600176
O5    O     O_R   0.499990 0.680320 0.618770 -0.591524
O6    O     O_R   0.500000 0.680360 0.381190 -0.563265
O7    O     O_R   0.651000 0.500000 0.638090 -0.533975
O8    O     O_R   0.651010 0.500040 0.400510 -0.593435
N3    N     N_2   0.719311 0.709743 0.160223 -0.436090
H15   H     H_    0.774686 0.644306 0.151560 0.235499
C29   C     C_3   0.726507 0.774974 0.293716 -0.608124
H16   H     H_    0.809245 0.790609 0.332988 0.208378
H17   H     H_    0.690211 0.721014 0.372558 0.239668
H18   H     H_    0.689979 0.866116 0.282173 0.229965
N4    N     N_2   0.541823 0.777884 0.102798 -0.396431
H19   H     H_    0.568339 0.865839 0.086708 0.246275
C30   C     C_3   0.434220 0.758698 0.045587 -0.741622
H20   H     H_    0.394197 0.696439 0.113734 0.263126
H21   H     H_    0.427053 0.721675 0.936696 0.233813
H22   H     H_    0.393229 0.847484 0.042738 0.208051
Br1   Br    Br    0.809602 0.409645 0.841440 -0.578978
N5    N     N_2   0.439045 0.117539 0.239807 -0.398531
H23   H     H_    0.465049 0.073851 0.154392 0.245660
C31   C     C_3   0.329000 0.138992 0.217969 -0.672896
H24   H     H_    0.309555 0.183063 0.114670 0.209628
H25   H     H_    0.284950 0.050610 0.218017 0.217019
H26   H     H_    0.305441 0.200818 0.301552 0.230546

loop_
_geom_bond_atom_site_label_1
_geom_bond_atom_site_label_2
_ccdc_geom_bond_type
C16   N1    A    
C8    C9    A    
C12   O4    A    
C23   C24   S    
C30   H21   S    
C1    O2    A    
C23   O7    A    
C31   H24   S    
C25   C27   A    
C1    C8    S    
C20   H8    S    
C9    C10   A    
C27   H11   S    
C15   H4    S    
C21   N4    S    
C19   C20   S    
C7    C13   A    
Cu1   N2    S    
C5    Br1   S    
C31   H26   S    
C7    C15   S    
C12   O3    A    
Cu2   O4    S    
C30   H22   S    
C7    C8    A    
C14   H2    S    
Cu1   O3    S    
C13   C14   S    
C25   C28   A    
C20   H7    S    
Cu2   O8    S    
C18   H6    S    
C29   H16   S    
C2    C6    A    
C5    C24   A    
Cu1   O7    S    
Cu1   O1    S    
C16   C19   A    
C19   N2    A    
C5    C6    A    
C18   N2    A    
C14   H14   S    
C17   N1    A    
C17   C18   A    
C22   O6    A    
C2    C3    A    
N3    C29   S    
C26   C27   A    
N4    H19   S    
C4    C24   A    
C6    H10   S    
C26   H9    S    
C9    N5    S    
C4    H1    S    
C29   H17   S    
C10   C11   A    
C12   C25   S    
Cu1   Cu2   S    
C3    C4    A    
C11   C13   A    
C17   H5    S    
C20   C21   S    
C23   O8    A    
N5    C31   S    
Cu1   O5    S    
Cu2   O2    S    
C21   N3    S    
Cu2   O6    S    
C14   C15   S    
N5    H23   S    
C29   H18   S    
C2    C28   A    
C11   C22   S    
N3    H15   S    
C10   H13   S    
C16   C21   S    
C31   H25   S    
C3    C26   A    
C1    O1    A    
Cu2   N1    S    
C30   H20   S    
C15   H3    S    
C22   O5    A    
N4    C30   S    
C28   H12   S    
