data_mof_unit_27336.cif
_audit_creation_date              2012-12-11T14:34:08-0500
_audit_creation_method            fapswitch 2.2
_symmetry_space_group_name_H-M    P1
_symmetry_Int_Tables_number       1
_space_group_crystal_system       triclinic
_cell_length_a                    13.928292
_cell_length_b                    13.98752
_cell_length_c                    27.386264
_cell_angle_alpha                 90.005275
_cell_angle_beta                  89.689558
_cell_angle_gamma                 119.643665
_cell_volume                      4637.051729

loop_
_atom_site_label
_atom_site_type_symbol
_atom_type_description
_atom_site_fract_x
_atom_site_fract_y
_atom_site_fract_z
_atom_type_partial_charge
C1    C     C_R   0.237638 0.784734 0.570149 0.532893
C2    C     C_1   0.706056 0.858031 0.861055 -0.085418
C3    C     C_3   0.834191 0.967440 0.645768 -0.309157
C4    C     C_3   0.991642 0.838861 0.637198 -0.321786
C5    C     C_3   0.162813 0.166865 0.636465 -0.314110
C6    C     C_3   0.525551 0.519186 0.771440 -0.331325
C7    C     C_3   0.483269 0.049998 0.749392 -0.333790
C8    C     C_3   0.907411 0.391852 0.741102 -0.326037
C9    C     C_3   0.761744 0.617191 0.715262 -0.328238
C10   C     C_3   0.361095 0.076437 0.656616 -0.275836
C11   C     C_3   0.933125 0.252600 0.648802 -0.285014
C12   C     C_1   0.120657 0.883145 0.853569 -0.079931
C13   C     C_1   0.117409 0.243312 0.854208 -0.080678
C14   C     C_1   0.598606 0.790046 0.663498 -0.082103
C15   C     C_1   0.202011 0.811731 0.661609 -0.040779
C16   C     C_1   0.179855 0.386600 0.661184 -0.055669
C17   C     C_1   0.577634 0.780644 0.620631 -0.043922
C18   C     C_1   0.214240 0.798187 0.619326 -0.033549
C19   C     C_1   0.197730 0.413983 0.619123 -0.043091
C20   C     C_R   0.064353 0.150460 0.095890 0.578836
C21   C     C_R   0.214539 0.452522 0.570170 0.533743
C22   C     C_R   0.776996 0.884006 0.087979 0.549347
C23   C     C_R   0.115556 0.893068 0.087763 0.561118
C24   C     C_R   0.071025 0.162749 0.943242 0.537574
C25   C     C_R   0.780253 0.887167 0.950876 0.542815
C26   C     C_R   0.091445 0.929941 0.943512 0.536981
C27   C     C_R   0.636322 0.905637 0.362903 0.126911
C28   C     C_R   0.094365 0.745561 0.363769 0.128335
C29   C     C_R   0.250446 0.331875 0.367756 0.126071
C30   C     C_R   0.658798 0.919503 0.312194 0.023522
C31   C     C_R   0.078743 0.754775 0.313364 0.042752
C32   C     C_R   0.545202 0.760837 0.570700 0.535634
C33   C     C_R   0.225450 0.282342 0.320821 0.043960
C34   C     C_R   0.690939 0.936602 0.210095 0.019047
C35   C     C_R   0.053798 0.768292 0.212008 0.013593
C36   C     C_R   0.183950 0.203301 0.223593 0.015182
C37   C     C_R   0.233736 0.788048 0.431315 0.546719
C38   C     C_R   0.211464 0.443432 0.431656 0.551633
C39   C     C_R   0.556040 0.767511 0.431748 0.562197
C40   C     C_R   0.685692 0.020028 0.235954 -0.138028
C41   C     C_R   0.962355 0.699914 0.241157 -0.143049
C42   C     C_R   0.273138 0.208871 0.249405 -0.142935
C43   C     C_3   0.701193 0.748422 0.789038 -0.124247
C44   C     C_R   0.670529 0.012174 0.286481 -0.132629
C45   C     C_R   0.974452 0.693391 0.291361 -0.118541
C46   C     C_R   0.293210 0.247036 0.297576 -0.118936
C47   C     C_R   0.713834 0.947222 0.159979 -0.143414
C48   C     C_R   0.041464 0.779804 0.162238 -0.132613
C49   C     C_R   0.168134 0.174223 0.173969 -0.133675
C50   C     C_R   0.722116 0.863921 0.135273 -0.004890
C51   C     C_R   0.132552 0.855040 0.134402 -0.006004
C52   C     C_R   0.079881 0.172525 0.148555 -0.009816
C53   C     C_R   0.641657 0.733909 0.360499 -0.166071
C54   C     C_3   0.249311 0.966669 0.784315 -0.151446
C55   C     C_R   0.287512 0.888658 0.354379 -0.152349
C56   C     C_R   0.082929 0.346153 0.364529 -0.164507
C57   C     C_R   0.659477 0.744340 0.310657 0.004316
C58   C     C_R   0.274398 0.894147 0.304878 -0.000152
C59   C     C_R   0.058465 0.298690 0.318622 -0.000656
C60   C     C_R   0.665720 0.835843 0.286081 0.038363
C61   C     C_R   0.170449 0.826365 0.283935 0.031786
C62   C     C_R   0.131247 0.269696 0.295867 0.031911
C63   C     C_R   0.664242 0.660510 0.284730 -0.129751
C64   C     C_R   0.365691 0.964168 0.275891 -0.125301
C65   C     C_3   0.021839 0.266203 0.783301 -0.150593
C66   C     C_R   0.964649 0.285526 0.294123 -0.128921
C67   C     C_R   0.673127 0.665952 0.234230 -0.133240
C68   C     C_R   0.354300 0.967308 0.225766 -0.132637
C69   C     C_R   0.945355 0.248295 0.246234 -0.119129
C70   C     C_R   0.681214 0.757086 0.209446 0.016002
C71   C     C_R   0.251070 0.902084 0.204430 0.015886
C72   C     C_R   0.018411 0.221862 0.222599 0.021309
C73   C     C_3   0.529331 0.795241 0.745804 -0.252515
C74   C     C_3   0.184254 0.743878 0.746648 -0.276771
C75   C     C_3   0.237190 0.444739 0.745865 -0.270116
C76   C     C_3   0.653227 0.711077 0.735881 0.324118
C77   C     C_R   0.678854 0.843118 0.235203 0.067061
C78   C     C_R   0.158493 0.831466 0.233418 0.064564
C79   C     C_R   0.110634 0.230386 0.247537 0.062993
C80   C     C_R   0.697784 0.766076 0.159460 -0.129019
C81   C     C_R   0.237760 0.911252 0.154896 -0.138346
C82   C     C_R   0.002728 0.191133 0.173782 -0.125096
C83   C     C_R   0.619231 0.807470 0.385908 0.018348
C84   C     C_R   0.201158 0.810690 0.383696 0.004070
C85   C     C_R   0.181432 0.370022 0.388369 -0.000243
C86   C     C_3   0.726947 0.923516 0.723936 0.033887
C87   C     C_3   0.279456 0.950523 0.730343 0.324988
C88   C     C_3   0.068586 0.822211 0.716563 0.049961
C89   C     C_3   0.187038 0.255436 0.718462 0.039494
C90   C     C_3   0.750686 0.945461 0.779443 -0.213230
C91   C     C_3   0.046697 0.846828 0.769648 -0.211247
C92   C     C_3   0.170093 0.215660 0.772151 -0.209695
C93   C     C_1   0.735074 0.872125 0.902966 -0.026614
C94   C     C_1   0.105569 0.902531 0.894773 -0.021194
C95   C     C_1   0.099585 0.207261 0.895090 -0.021826
C96   C     C_3   0.628155 0.803420 0.715591 0.112993
C97   C     C_3   0.185534 0.833333 0.712456 0.133310
C98   C     C_3   0.033978 0.312631 0.729663 0.318742
C99   C     C_3   0.156951 0.349037 0.712037 0.126868
C100  C     C_3   0.555019 0.804029 0.801075 -0.229316
C101  C     C_3   0.159593 0.762832 0.799962 -0.234901
C102  C     C_3   0.220011 0.406194 0.799915 -0.231555
C103  C     C_3   0.678080 0.839234 0.809000 0.010080
C104  C     C_3   0.143097 0.864571 0.803047 0.010559
C105  C     C_3   0.132623 0.282674 0.803592 0.013066
C106  C     C_3   0.727637 0.069799 0.411815 -0.301813
C107  C     C_3   0.964137 0.556492 0.388948 -0.294462
C108  C     C_3   0.450538 0.426620 0.379885 -0.296045
Cr1   Cr    Cr6+3 0.164410 0.584450 0.499910 0.989716
Cr2   Cr    Cr6+3 0.415550 0.579960 0.499910 0.994183
Cr3   Cr    Cr6+3 0.420040 0.835590 0.499910 1.020698
Cr4   Cr    Cr6+3 0.155170 0.075460 0.019960 1.015667
Cr5   Cr    Cr6+3 0.924540 0.079710 0.019960 1.003009
Cr6   Cr    Cr6+3 0.920290 0.844830 0.019960 1.006204
H1    H     H_    0.535337 0.864668 0.818026 0.119910
H2    H     H_    0.792269 0.782531 0.788119 0.103049
H3    H     H_    0.238587 0.039986 0.787618 0.074665
H4    H     H_    0.960151 0.176974 0.784853 0.085377
H5    H     H_    0.693623 0.091642 0.217075 0.092583
H6    H     H_    0.881259 0.652076 0.225162 0.105856
H7    H     H_    0.328809 0.185853 0.232019 0.111714
H8    H     H_    0.668204 0.079423 0.304804 0.101536
H9    H     H_    0.901541 0.640335 0.312635 0.140722
H10   H     H_    0.363671 0.251035 0.315883 0.140881
H11   H     H_    0.702347 0.700652 0.140165 0.125243
H12   H     H_    0.084038 0.688393 0.813397 0.125638
H13   H     H_    0.307769 0.969057 0.133000 0.120722
H14   H     H_    0.931997 0.185633 0.154822 0.119650
H15   H     H_    0.658589 0.589565 0.303421 0.094015
H16   H     H_    0.446106 0.015820 0.291968 0.098436
H17   H     H_    0.908243 0.307731 0.311416 0.092114
H18   H     H_    0.514811 0.863281 0.735226 0.117282
H19   H     H_    0.120038 0.660558 0.734642 0.104065
H20   H     H_    0.323642 0.473558 0.734579 0.121927
H21   H     H_    0.634374 0.661643 0.378526 0.124462
H22   H     H_    0.369374 0.940243 0.369148 0.139954
H23   H     H_    0.299440 0.420328 0.815477 0.118422
H24   H     H_    0.026762 0.370393 0.380393 0.126363
H25   H     H_    0.701383 0.983123 0.710901 0.122229
H26   H     H_    0.006912 0.734709 0.709368 0.119522
H27   H     H_    0.276825 0.290476 0.710278 0.119124
H28   H     H_    0.732967 0.011339 0.791357 0.091703
H29   H     H_    0.968559 0.776173 0.783530 0.097745
H30   H     H_    0.249039 0.225381 0.786580 0.088711
H31   H     H_    0.839571 0.975861 0.787204 0.120463
H32   H     H_    0.035548 0.920176 0.771446 0.104725
H33   H     H_    0.107957 0.126533 0.774911 0.120865
H34   H     H_    0.451383 0.717547 0.738209 0.134875
H35   H     H_    0.670987 0.680119 0.815712 0.105574
H36   H     H_    0.317103 0.981835 0.809912 0.127965
H37   H     H_    0.990995 0.306984 0.808773 0.125280
H38   H     H_    0.731659 0.022305 0.140998 0.105538
H39   H     H_    0.959907 0.736863 0.146109 0.122935
H40   H     H_    0.225514 0.155797 0.154956 0.125927
H41   H     H_    0.579513 0.016791 0.374532 0.233298
H42   H     H_    0.710772 0.125057 0.434969 0.129622
H43   H     H_    0.787593 0.119583 0.382699 0.135744
H44   H     H_    0.764164 0.031148 0.435148 0.155372
H45   H     H_    0.264380 0.744556 0.744943 0.128330
H46   H     H_    0.003796 0.699020 0.429349 0.254686
H47   H     H_    0.981001 0.523875 0.422810 0.169202
H48   H     H_    0.004164 0.538815 0.357649 0.150541
H49   H     H_    0.873538 0.512626 0.383075 0.117518
H50   H     H_    0.330146 0.324170 0.431168 0.258365
H51   H     H_    0.489949 0.482903 0.411060 0.173729
H52   H     H_    0.447038 0.474937 0.348347 0.155743
H53   H     H_    0.502989 0.390431 0.369744 0.118545
H54   H     H_    0.675744 0.599947 0.214634 0.096514
H55   H     H_    0.425575 0.022200 0.203846 0.102313
H56   H     H_    0.226000 0.517788 0.742327 0.124551
H57   H     H_    0.875261 0.243568 0.227186 0.098198
H58   H     H_    0.867139 0.905241 0.709923 0.276530
H59   H     H_    0.921311 0.018917 0.634310 0.142744
H60   H     H_    0.788694 0.010947 0.635672 0.149945
H61   H     H_    0.801032 0.889486 0.625174 0.139776
H62   H     H_    0.047375 0.956032 0.693283 0.269997
H63   H     H_    0.012491 0.900868 0.607895 0.135263
H64   H     H_    0.902783 0.800637 0.645431 0.152266
H65   H     H_    0.008387 0.774036 0.623407 0.149694
H66   H     H_    0.041833 0.116059 0.692600 0.291714
H67   H     H_    0.501562 0.723149 0.818995 0.133763
H68   H     H_    0.115663 0.189648 0.611212 0.135531
H69   H     H_    0.148246 0.084682 0.625535 0.167149
H70   H     H_    0.252309 0.226575 0.632369 0.142428
H71   H     H_    0.519661 0.575515 0.701129 0.247498
H72   H     H_    0.461475 0.438141 0.757394 0.113321
H73   H     H_    0.493737 0.536864 0.805464 0.142117
H74   H     H_    0.599114 0.511744 0.780032 0.137896
H75   H     H_    0.402391 0.917379 0.701279 0.237083
H76   H     H_    0.551739 0.079976 0.722235 0.118687
H77   H     H_    0.510664 0.027646 0.783370 0.136382
H78   H     H_    0.229223 0.774970 0.823784 0.133465
H79   H     H_    0.466237 0.118077 0.757485 0.147192
H80   H     H_    0.057395 0.466709 0.704110 0.236429
H81   H     H_    0.857502 0.368027 0.707254 0.138098
H82   H     H_    0.914508 0.469954 0.754568 0.128515
H83   H     H_    0.863109 0.327297 0.769124 0.135274
H84   H     H_    0.718933 0.702267 0.667669 0.248180
H85   H     H_    0.829213 0.626498 0.690700 0.120988
H86   H     H_    0.690465 0.534594 0.707671 0.149042
H87   H     H_    0.789250 0.622539 0.753584 0.133476
H88   H     H_    0.274157 0.098168 0.713501 0.250100
H89   H     H_    0.192679 0.455739 0.821672 0.137493
H90   H     H_    0.328868 0.108092 0.627763 0.130731
H91   H     H_    0.372465 0.010586 0.640057 0.171101
H92   H     H_    0.442468 0.144705 0.668233 0.122291
H93   H     H_    0.875651 0.176437 0.715858 0.243462
H94   H     H_    0.972699 0.222414 0.622633 0.151304
H95   H     H_    0.966235 0.341829 0.642830 0.162725
H96   H     H_    0.843461 0.210402 0.640377 0.104301
N1    N     N_2   0.625672 0.986284 0.390518 -0.491555
N2    N     N_2   0.734035 0.702131 0.704434 -0.516939
N3    N     N_2   0.284840 0.037133 0.697869 -0.471822
N4    N     N_2   0.949733 0.226837 0.698435 -0.495398
N5    N     N_2   0.003304 0.673277 0.394017 -0.522934
N6    N     N_2   0.341833 0.339415 0.394161 -0.523897
N7    N     N_2   0.827717 0.946434 0.697907 -0.536433
N8    N     N_2   0.055350 0.891468 0.680505 -0.497696
N9    N     N_2   0.125245 0.162282 0.686332 -0.538613
N10   N     N_2   0.549409 0.604922 0.735555 -0.514016
N11   N     N_2   0.386305 0.953395 0.730693 -0.521136
N12   N     N_2   0.017259 0.408613 0.731055 -0.516186
O1    O     O_R   0.137150 0.468200 0.553200 -0.523722
O2    O     O_R   0.140110 0.470540 0.446010 -0.536089
O3    O     O_R   0.529460 0.669570 0.446010 -0.544874
O4    O     O_R   0.330430 0.859890 0.446010 -0.520109
O5    O     O_R   0.176710 0.690910 0.450560 -0.493033
O6    O     O_R   0.309090 0.485800 0.450560 -0.492371
O7    O     O_R   0.514200 0.823290 0.450560 -0.456245
O8    O     O_3   0.333333 0.666667 0.499990 -0.265538
O9    O     O_R   0.176750 0.985260 0.074180 -0.529462
O10   O     O_R   0.014740 0.191490 0.074180 -0.499808
O11   O     O_R   0.808510 0.823250 0.074180 -0.518034
O12   O     O_R   0.531800 0.668950 0.553200 -0.518489
O13   O     O_R   0.146100 0.172630 0.068980 -0.476142
O14   O     O_R   0.827370 0.973470 0.068980 -0.518355
O15   O     O_R   0.026530 0.853900 0.068980 -0.492348
O16   O     O_3   0.000000 0.000000 0.020040 -0.286797
O17   O     O_R   0.148270 0.170520 0.969620 -0.491891
O18   O     O_R   0.829480 0.977750 0.969620 -0.519729
O19   O     O_R   0.022250 0.851730 0.969620 -0.483437
O20   O     O_R   0.331050 0.862850 0.553200 -0.521204
O21   O     O_R   0.179100 0.982980 0.967000 -0.506353
O22   O     O_R   0.017020 0.196120 0.967000 -0.485887
O23   O     O_R   0.803880 0.820900 0.967000 -0.514349
O24   O     O_R   0.173970 0.688730 0.549930 -0.508317
O25   O     O_R   0.311270 0.485240 0.549930 -0.505107
O26   O     O_R   0.514760 0.826030 0.549930 -0.504718

loop_
_geom_bond_atom_site_label_1
_geom_bond_atom_site_label_2
_ccdc_geom_bond_type
Cr2   O25   S    
C67   H54   S    
Cr5   O14   S    
C108  H51   S    
C25   C93   S    
C20   O10   A    
H71   N10   S    
C6    H74   S    
C28   C84   A    
C31   C61   A    
C15   C18   T    
C36   C42   A    
C53   H21   S    
C91   C104  S    
C48   H39   S    
C101  H78   S    
C30   C44   A    
Cr1   O5    S    
C26   O19   A    
C21   O25   A    
C32   O12   A    
H50   N6    S    
C5    H69   S    
C1    C18   S    
Cr4   O9    S    
C74   H45   S    
C32   O26   A    
C34   C40   A    
C64   C68   A    
C54   C104  S    
C19   C21   S    
C10   H91   S    
C76   N10   S    
C65   C98   S    
C39   O7    A    
C72   C79   A    
C1    O24   A    
C16   C19   T    
C34   C77   A    
C69   H57   S    
C54   C87   S    
C23   O15   A    
C63   H15   S    
H75   N11   S    
Cr6   O23   S    
C80   H11   S    
C9    N2    S    
C55   H22   S    
C74   H19   S    
C29   C33   A    
C102  C105  S    
C42   C46   A    
C38   O2    A    
C88   H26   S    
C108  H52   S    
Cr2   O8    S    
C3    H59   S    
Cr5   O18   S    
C107  H47   S    
Cr3   O26   S    
C30   C60   A    
C75   C99   S    
C75   C102  S    
C65   H4    S    
C88   C91   S    
C37   C84   S    
C24   O22   A    
C89   C99   S    
Cr6   O11   S    
H84   N2    S    
C4    H63   S    
C5    H70   S    
C29   C85   A    
C88   C97   S    
Cr1   O1    S    
C9    H86   S    
Cr6   O16   S    
C20   O13   A    
C58   C61   A    
C106  H42   S    
C22   C50   S    
C98   N4    S    
C73   H18   S    
C41   H6    S    
H62   N8    S    
C81   H13   S    
C70   C77   A    
C33   C46   A    
C14   C17   T    
C46   H10   S    
C8    H83   S    
C100  H1    S    
C15   C97   S    
C35   C41   A    
C35   C48   A    
C14   C96   S    
C57   C63   A    
C47   C50   A    
C91   H29   S    
Cr4   O21   S    
C10   N3    S    
C58   C64   A    
C63   C67   A    
C60   C77   A    
C48   C51   A    
C17   C32   S    
C73   H34   S    
C70   C80   A    
C62   C79   A    
C13   C105  S    
C86   C90   S    
C24   C95   S    
C4    H64   S    
C53   C57   A    
C26   O21   A    
C33   C62   A    
C57   C60   A    
C87   C97   S    
C38   C85   S    
C25   O18   A    
C106  H44   S    
H46   N5    S    
C6    H73   S    
Cr2   O3    S    
C100  C103  S    
C45   H9    S    
C50   C80   A    
C102  H23   S    
C65   H37   S    
C69   C72   A    
C102  H89   S    
C28   C31   A    
C43   H2    S    
C89   N9    S    
C22   O11   A    
C56   H24   S    
Cr1   O8    S    
C49   H40   S    
C3    H60   S    
C23   C51   S    
C91   H32   S    
C107  H48   S    
C40   C44   A    
C61   C78   A    
C3    N7    S    
Cr5   O22   S    
Cr6   O19   S    
C75   H56   S    
C27   N1    S    
C101  H12   S    
C87   N3    S    
Cr2   O12   S    
C7    H76   S    
C90   H28   S    
C86   C96   S    
C89   C92   S    
C52   C82   A    
C100  H67   S    
C24   O17   A    
C82   H14   S    
C108  N6    S    
Cr1   O2    S    
C9    H87   S    
C86   H25   S    
C74   C101  S    
C22   O14   A    
C3    H61   S    
Cr5   O16   S    
C108  H53   S    
C64   H16   S    
Cr1   O24   S    
C101  C104  S    
C4    N8    S    
C26   C94   S    
Cr6   O15   S    
Cr3   O7    S    
C6    N10   S    
C54   H3    S    
C7    H79   S    
C11   H94   S    
C11   H95   S    
C4    H65   S    
C75   H20   S    
C106  H43   S    
C87   N11   S    
C5    H68   S    
C8    N12   S    
H58   N7    S    
Cr5   O10   S    
C38   O6    A    
C66   H17   S    
C43   C76   S    
Cr3   O8    S    
C51   C81   A    
C37   O4    A    
C59   C62   A    
C54   H36   S    
C68   H55   S    
Cr3   O4    S    
C2    C93   T    
C49   C52   A    
C107  H49   S    
C29   N6    S    
C36   C79   A    
C43   H35   S    
C89   H27   S    
C73   C100  S    
C65   C105  S    
C16   C99   S    
C12   C104  S    
Cr3   O20   S    
Cr4   O13   S    
C6    H72   S    
C35   C78   A    
Cr4   O16   S    
C56   C59   A    
H80   N12   S    
C53   C83   A    
C67   C70   A    
C8    H81   S    
H41   N1    S    
C10   H92   S    
C39   C83   S    
C11   H96   S    
C7    H77   S    
Cr2   O6    S    
C76   C96   S    
C12   C94   T    
C76   N2    S    
C56   C85   A    
C5    N9    S    
C2    C103  S    
C28   N5    S    
C68   C71   A    
C7    N11   S    
C106  N1    S    
C98   N12   S    
C44   H8    S    
C88   N8    S    
C8    H82   S    
H93   N4    S    
H88   N3    S    
C23   O9    A    
C92   H30   S    
Cr4   O17   S    
C43   C103  S    
C90   C103  S    
C39   O3    A    
C1    O20   A    
C36   C49   A    
C11   N4    S    
C27   C83   A    
C66   C69   A    
C21   O1    A    
C92   C105  S    
C37   O5    A    
C40   H5    S    
C107  N5    S    
C47   H38   S    
C13   C95   T    
C20   C52   S    
C98   C99   S    
C31   C45   A    
C55   C58   A    
C90   H31   S    
C92   H33   S    
C41   C45   A    
H66   N9    S    
C34   C47   A    
C73   C96   S    
C71   C81   A    
C55   C84   A    
C10   H90   S    
C86   N7    S    
C71   C78   A    
C72   C82   A    
C74   C97   S    
C9    H85   S    
C42   H7    S    
C59   C66   A    
C27   C30   A    
C25   O23   A    
