data_mof_unit_24877.cif
_audit_creation_date              2012-12-10T17:48:16-0500
_audit_creation_method            fapswitch 2.2
_symmetry_space_group_name_H-M    P1
_symmetry_Int_Tables_number       1
_space_group_crystal_system       triclinic
_cell_length_a                    13.871794
_cell_length_b                    14.754698
_cell_length_c                    14.553111
_cell_angle_alpha                 114.82823
_cell_angle_beta                  106.220758
_cell_angle_gamma                 72.131609
_cell_volume                      2533.57879204

loop_
_atom_site_label
_atom_site_type_symbol
_atom_type_description
_atom_site_fract_x
_atom_site_fract_y
_atom_site_fract_z
_atom_type_partial_charge
C1    C     C_R   0.513079 0.118886 0.689131 0.866606
C2    C     C_R   0.483456 0.881884 0.311000 0.884937
C3    C     C_R   0.509183 0.360595 0.927470 -0.119133
C4    C     C_R   0.491297 0.641758 0.075350 -0.127200
C5    C     C_R   0.536916 0.321993 0.007867 -0.095922
C6    C     C_R   0.502295 0.674533 0.000470 -0.070527
C7    C     C_R   0.505419 0.465538 0.951183 0.054439
C8    C     C_R   0.505295 0.535401 0.053412 0.023397
C9    C     C_R   0.527817 0.496190 0.132021 -0.163274
C10   C     C_R   0.512372 0.500126 0.877011 -0.271796
C11   C     C_R   0.541874 0.392418 0.110923 0.414667
C12   C     C_R   0.510857 0.602621 0.900003 0.446815
C13   C     C_R   0.342294 0.289462 0.315702 0.248746
C14   C     C_R   0.681774 0.695294 0.663504 0.318433
C15   C     C_R   0.362436 0.209449 0.351706 0.503022
C16   C     C_R   0.644633 0.786044 0.642743 0.559693
C17   C     C_R   0.482582 0.288277 0.493517 0.019481
C18   C     C_R   0.519019 0.710630 0.504840 -0.011417
C19   C     C_R   0.465834 0.371325 0.460911 -0.064518
C20   C     C_R   0.541578 0.623475 0.532683 -0.060949
C21   C     C_R   0.387865 0.373831 0.375143 -0.045055
C22   C     C_R   0.627215 0.615930 0.611312 -0.053842
C23   C     C_R   0.687012 0.986783 0.503994 0.808790
C24   C     C_R   0.313106 0.013706 0.496740 0.796636
C25   C     C_R   0.521860 0.452060 0.510115 0.022735
C26   C     C_R   0.485050 0.542770 0.484134 0.039095
C27   C     C_R   0.392183 0.549602 0.412028 0.387588
C28   C     C_R   0.614066 0.444541 0.582514 0.344161
C29   C     C_R   0.352063 0.462316 0.352029 -0.228803
C30   C     C_R   0.659483 0.528698 0.636742 -0.232879
C31   C     C_1   0.208258 0.023780 0.498330 -0.172051
C32   C     C_1   0.792424 0.979590 0.506859 -0.163123
C33   C     C_2   0.013502 0.043864 0.504357 0.382272
C34   C     C_2   0.988358 0.965477 0.510373 0.378483
C35   C     C_1   0.881229 0.973326 0.508971 -0.068378
C36   C     C_1   0.119975 0.033050 0.500696 -0.079011
C37   C     C_R   0.517597 0.186689 0.799614 -0.237414
C38   C     C_R   0.479602 0.815986 0.201066 -0.289760
C39   C     C_R   0.564207 0.214676 0.983365 0.289827
C40   C     C_R   0.505099 0.778218 0.027943 0.426774
C41   C     C_R   0.551688 0.147172 0.878996 0.233769
C42   C     C_R   0.497712 0.847573 0.129459 0.192131
C43   C     C_R   0.485868 0.293292 0.825240 0.318014
C44   C     C_R   0.464957 0.716716 0.169498 0.363074
Cu1   Cu    Cu3+1 0.526370 0.916390 0.524860 1.002607
Cu2   Cu    Cu3+1 0.473630 0.083610 0.475140 1.006091
H1    H     H_    0.540582 0.544462 0.212248 0.216841
H2    H     H_    0.527880 0.446639 0.801983 0.196666
H3    H     H_    0.286304 0.466797 0.291532 0.178662
H4    H     H_    0.724362 0.523138 0.697404 0.183578
H5    H     H_    0.465898 0.716453 0.437139 0.249529
H6    H     H_    0.530390 0.286135 0.564883 0.233527
N1    N     N_R   0.433980 0.209250 0.437830 -0.250121
N2    N     N_R   0.566020 0.790750 0.562170 -0.267432
O1    O     O_R   0.534760 0.019630 0.662610 -0.487105
O2    O     O_R   0.465240 0.980370 0.337390 -0.517541
O3    O     O_R   0.490220 0.160840 0.620610 -0.561252
O4    O     O_R   0.509780 0.839160 0.379390 -0.571574
O5    O     O_R   0.663260 0.919400 0.523940 -0.617339
O6    O     O_R   0.336740 0.080600 0.476060 -0.576797
O7    O     O_R   0.618720 0.060610 0.481950 -0.537274
O8    O     O_R   0.381280 0.939390 0.518050 -0.552619
O9    O     O_3   0.064922 0.877919 0.511626 -0.585471
C45   C     C_3   0.034402 0.813301 0.542329 0.052070
H7    H     H_    0.971430 0.779050 0.483655 0.147354
H8    H     H_    0.008935 0.856221 0.618335 0.134286
C46   C     C_3   0.125339 0.726614 0.552564 -0.723431
H9    H     H_    0.190677 0.758063 0.609031 0.268258
H10   H     H_    0.102871 0.676955 0.579336 0.178391
H11   H     H_    0.150009 0.679705 0.476968 0.253882
O10   O     O_3   0.937362 0.132155 0.504363 -0.580563
C47   C     C_3   0.973766 0.205806 0.492800 0.062747
H12   H     H_    0.999506 0.174335 0.417315 0.145905
H13   H     H_    0.038073 0.230674 0.556373 0.136397
C48   C     C_3   0.887470 0.299799 0.496529 -0.716431
H14   H     H_    0.865837 0.337480 0.574000 0.238587
H15   H     H_    0.913685 0.355103 0.480932 0.176154
H16   H     H_    0.819243 0.277757 0.437926 0.285871
O11   O     O_3   0.278230 0.286200 0.222764 -0.602457
C49   C     C_3   0.328359 0.212414 0.140573 0.112059
H17   H     H_    0.304269 0.139073 0.114889 0.175373
H18   H     H_    0.414137 0.197494 0.160618 0.156158
C50   C     C_3   0.296717 0.249325 0.051080 -0.820247
H19   H     H_    0.319804 0.322852 0.075008 0.239086
H20   H     H_    0.335104 0.191754 0.985851 0.209190
H21   H     H_    0.212068 0.260723 0.025386 0.254519
O12   O     O_3   0.763579 0.689548 0.742978 -0.543198
C51   C     C_3   0.853907 0.627332 0.702155 0.005968
H22   H     H_    0.890808 0.672222 0.682793 0.142668
H23   H     H_    0.839648 0.559497 0.631442 0.132541
C52   C     C_3   0.930435 0.588996 0.782748 -0.774123
H24   H     H_    0.897088 0.542029 0.803344 0.244207
H25   H     H_    0.001874 0.541243 0.751946 0.194169
H26   H     H_    0.950077 0.654758 0.852928 0.252252
O13   O     O_3   0.336807 0.642651 0.405447 -0.755072
H27   H     H_    0.272226 0.633932 0.354905 0.319407
O14   O     O_3   0.664040 0.352772 0.595124 -0.750893
H28   H     H_    0.723144 0.362553 0.652750 0.321391
O15   O     O_3   0.557946 0.363862 0.193680 -0.686508
H29   H     H_    0.511843 0.317004 0.175567 0.357209
O16   O     O_3   0.517071 0.633122 0.824428 -0.647609
H30   H     H_    0.511214 0.576211 0.756906 0.312842
O17   O     O_3   0.420490 0.694681 0.229782 -0.586149
C53   C     C_3   0.312099 0.726988 0.208947 0.100554
H31   H     H_    0.284709 0.789712 0.177724 0.107988
H32   H     H_    0.283316 0.758190 0.282587 0.188789
C54   C     C_3   0.264111 0.636259 0.135631 -0.823351
H33   H     H_    0.292044 0.572901 0.165310 0.254552
H34   H     H_    0.179079 0.659867 0.128232 0.209810
H35   H     H_    0.284624 0.608630 0.058436 0.240635
O18   O     O_3   0.426474 0.331736 0.750332 -0.572864
C55   C     C_3   0.321645 0.343474 0.750577 0.107073
H36   H     H_    0.299194 0.403767 0.823698 0.141999
H37   H     H_    0.304876 0.270224 0.740313 0.123655
C56   C     C_3   0.256629 0.375637 0.661655 -0.806799
H38   H     H_    0.276551 0.315984 0.587544 0.249341
H39   H     H_    0.173800 0.385802 0.661193 0.186250
H40   H     H_    0.270748 0.449016 0.669800 0.247745
O19   O     O_3   0.511600 0.944759 0.157976 -0.712065
H41   H     H_    0.444034 0.991155 0.171370 0.351860
O20   O     O_3   0.568375 0.043000 0.853410 -0.656312
H42   H     H_    0.553373 0.030165 0.909044 0.339879
O21   O     O_3   0.611025 0.177174 0.061354 -0.710725
H43   H     H_    0.659160 0.110871 0.034101 0.344571
O22   O     O_3   0.518848 0.809178 0.955702 -0.632208
H44   H     H_    0.512615 0.884119 0.983264 0.355822
O23   O     O_3   0.674168 0.875300 0.713959 -0.493647
C57   C     C_3   0.773694 0.878985 0.710195 0.171724
H45   H     H_    0.766859 0.947005 0.692550 0.155831
H46   H     H_    0.811913 0.811809 0.650071 0.054174
C58   C     C_3   0.841255 0.897240 0.816097 -0.775030
H47   H     H_    0.918967 0.900453 0.812393 0.179457
H48   H     H_    0.806905 0.971175 0.872228 0.256793
H49   H     H_    0.849215 0.835674 0.843906 0.286312
O24   O     O_3   0.316231 0.126865 0.296222 -0.574113
C59   C     C_3   0.210720 0.156796 0.303440 0.073353
H50   H     H_    0.168014 0.212139 0.264945 0.178118
H51   H     H_    0.199587 0.191936 0.385105 0.135447
C60   C     C_3   0.164048 0.062684 0.249625 -0.801688
H52   H     H_    0.204993 0.004439 0.284860 0.238975
H53   H     H_    0.081572 0.084260 0.256292 0.203029
H54   H     H_    0.170481 0.028886 0.166928 0.241308

loop_
_geom_bond_atom_site_label_1
_geom_bond_atom_site_label_2
_ccdc_geom_bond_type
C28   O14   S    
C7    C10   A    
O12   C51   S    
C13   O11   S    
O16   H30   S    
C27   C29   A    
O21   H43   S    
C27   O13   S    
O13   H27   S    
C4    C8    A    
C58   H49   S    
C57   H45   S    
C53   H32   S    
O14   H28   S    
O24   C59   S    
C39   C41   A    
C29   H3    S    
Cu1   Cu2   S    
C25   C28   A    
C23   O5    A    
C3    C43   A    
C26   C27   A    
C15   N1    A    
C19   C21   A    
C14   O12   S    
C38   C42   A    
C3    C7    A    
C47   C48   S    
C6    C12   A    
C60   H54   S    
C42   O19   S    
C15   O24   S    
C56   H38   S    
Cu1   O8    S    
C33   C36   S    
C39   O21   S    
C11   O15   S    
C34   C35   S    
C41   O20   S    
C55   H36   S    
C50   H19   S    
C8    C9    A    
C56   H39   S    
C54   H33   S    
C18   C20   A    
C1    C37   S    
C40   C42   A    
C30   H4    S    
C54   H34   S    
C43   O18   S    
C49   C50   S    
C17   H6    S    
C55   H37   S    
C53   H31   S    
C48   H16   S    
C44   O17   S    
C18   H5    S    
Cu1   O4    S    
Cu2   O7    S    
C46   H9    S    
C45   C46   S    
C7    C8    A    
C47   H13   S    
C52   H24   S    
C18   N2    A    
C49   H17   S    
C4    C44   A    
C3    C5    A    
C25   C26   A    
C21   C29   A    
O11   C49   S    
C46   H10   S    
C59   C60   S    
C37   C43   A    
C48   H14   S    
C32   C35   T    
C38   C44   A    
C1    O3    A    
C52   H25   S    
C48   H15   S    
C2    C38   S    
O15   H29   S    
C51   C52   S    
C24   O6    A    
C56   H40   S    
C33   C34   D    
C13   C21   A    
O19   H41   S    
C9    C11   A    
O20   H42   S    
C10   C12   A    
C59   H51   S    
C50   H20   S    
C51   H23   S    
Cu1   N2    S    
C9    H1    S    
C13   C15   A    
Cu2   O3    S    
C10   H2    S    
O22   H44   S    
C54   H35   S    
C14   C16   A    
C4    C6    A    
C58   H47   S    
C57   C58   S    
C17   N1    A    
Cu1   O5    S    
C24   O8    A    
C22   C30   A    
O18   C55   S    
Cu2   O6    S    
C20   C22   A    
C47   H12   S    
C58   H48   S    
C57   H46   S    
C60   H52   S    
C2    O4    A    
C5    C11   A    
C46   H11   S    
C23   C32   S    
C14   C22   A    
C5    C39   A    
C1    O1    A    
C24   C31   S    
C12   O16   S    
C2    O2    A    
C45   H7    S    
C52   H26   S    
C60   H53   S    
C20   C26   A    
C40   O22   S    
Cu2   N1    S    
C28   C30   A    
C34   O9    S    
C17   C19   A    
C49   H18   S    
C6    C40   A    
C53   C54   S    
C37   C41   A    
C19   C25   A    
C16   O23   S    
C16   N2    A    
C33   O10   S    
O9    C45   S    
C23   O7    A    
C50   H21   S    
O10   C47   S    
C51   H22   S    
Cu1   O1    S    
Cu2   O2    S    
O17   C53   S    
C31   C36   T    
C59   H50   S    
C55   C56   S    
O23   C57   S    
C45   H8    S    
