data_mof_unit_64786.cif
_audit_creation_date              2012-12-10T16:58:39-0500
_audit_creation_method            fapswitch 2.2
_symmetry_space_group_name_H-M    P1
_symmetry_Int_Tables_number       1
_space_group_crystal_system       triclinic
_cell_length_a                    13.15169
_cell_length_b                    13.134649
_cell_length_c                    15.571294
_cell_angle_alpha                 108.201224
_cell_angle_beta                  73.844216
_cell_angle_gamma                 91.149545
_cell_volume                      2447.73885128

loop_
_atom_site_label
_atom_site_type_symbol
_atom_type_description
_atom_site_fract_x
_atom_site_fract_y
_atom_site_fract_z
_atom_type_partial_charge
C1    C     C_R   0.218240 0.542248 0.535849 0.514399
C2    C     C_R   0.498328 0.467836 0.113405 -0.131798
C3    C     C_R   0.668681 0.379864 0.088655 -0.111948
C4    C     C_R   0.780928 0.457983 0.464284 0.505598
C5    C     C_R   0.432945 0.575328 0.855127 0.022849
C6    C     C_2   0.894428 0.443634 0.449453 -0.081373
C7    C     C_2   0.938321 0.498387 0.516132 -0.150886
C8    C     C_2   0.102942 0.556199 0.554381 -0.106114
C9    C     C_2   0.053807 0.488820 0.497554 -0.151399
C10   C     C_2   0.539677 0.894654 0.539257 -0.080928
C11   C     C_2   0.506301 0.938023 0.484179 -0.147974
C12   C     C_R   0.297671 0.624400 0.005748 -0.140110
C13   C     C_2   0.462898 0.103185 0.456787 -0.103322
C14   C     C_2   0.510189 0.053780 0.500190 -0.149165
C15   C     C_R   0.470603 0.218655 0.472076 0.513503
C16   C     C_R   0.529954 0.781286 0.527940 0.510548
C17   C     C_R   0.545204 0.443185 0.247719 0.500718
C18   C     C_R   0.457773 0.557008 0.752749 0.490683
C19   C     C_R   0.702568 0.384249 0.997163 0.022882
C20   C     C_R   0.567865 0.423001 0.146907 0.017907
C21   C     C_R   0.332427 0.622790 0.912651 -0.123472
C22   C     C_R   0.361072 0.576298 0.042502 -0.115194
C23   C     C_R   0.464130 0.529159 0.987545 0.036964
C24   C     C_R   0.502132 0.534749 0.894309 0.030486
C25   C     C_R   0.530940 0.477332 0.022074 0.016475
C26   C     C_R   0.635614 0.435751 0.964046 0.046717
C27   C     C_R   0.673176 0.450548 0.875952 -0.130916
C28   C     C_R   0.608708 0.501217 0.842815 -0.121711
Cl1   Cl    Cl    0.831963 0.329003 0.928811 -0.106376
H1    H     H_    0.722778 0.346505 0.115928 0.120207
H2    H     H_    0.422166 0.500418 0.162656 0.102880
H3    H     H_    0.278622 0.655170 0.884557 0.139225
H4    H     H_    0.326868 0.578445 0.114409 0.105044
H5    H     H_    0.219327 0.660242 0.049058 0.123323
H6    H     H_    0.645064 0.515791 0.776836 0.142546
H7    H     H_    0.099536 0.425570 0.435340 0.162020
H8    H     H_    0.889228 0.552266 0.582913 0.128869
H9    H     H_    0.057810 0.620815 0.615609 0.109063
H10   H     H_    0.943382 0.394690 0.380504 0.094808
H11   H     H_    0.552128 0.099483 0.549272 0.164694
H12   H     H_    0.473793 0.888418 0.429206 0.132990
H13   H     H_    0.419512 0.058056 0.408835 0.110243
H14   H     H_    0.567156 0.944281 0.597481 0.095026
H15   H     H_    0.753728 0.424830 0.832081 0.130200
O1    O     O_3   0.500000 0.500000 0.500000 -0.439326
O2    O     O_R   0.468210 0.402800 0.293550 -0.539368
O3    O     O_R   0.410220 0.615430 0.721590 -0.546446
O4    O     O_R   0.602670 0.506150 0.290200 -0.538356
O5    O     O_R   0.518910 0.475630 0.694660 -0.545598
O6    O     O_R   0.526920 0.270960 0.524520 -0.537484
O7    O     O_R   0.454490 0.752910 0.584610 -0.533953
O8    O     O_R   0.270990 0.462040 0.468400 -0.539110
O9    O     O_R   0.747590 0.514090 0.422470 -0.536105
O10   O     O_R   0.265290 0.607490 0.589320 -0.537673
O11   O     O_R   0.716130 0.416380 0.519810 -0.536945
O12   O     O_R   0.423930 0.265320 0.430520 -0.537303
O13   O     O_R   0.594650 0.710810 0.460350 -0.529992
Zn1   Zn    Zn3+2 0.564370 0.417180 0.558730 0.934050
Zn2   Zn    Zn3+2 0.417220 0.409120 0.424430 0.940493
Zn3   Zn    Zn3+2 0.609330 0.556780 0.419650 0.943238
Zn4   Zn    Zn3+2 0.409080 0.616930 0.597190 0.941697

loop_
_geom_bond_atom_site_label_1
_geom_bond_atom_site_label_2
_ccdc_geom_bond_type
O3    Zn4   S    
C3    H1    S    
C1    O10   A    
O12   Zn2   S    
O1    Zn3   S    
C3    C19   A    
C6    C7    D    
O8    Zn2   S    
C4    O9    A    
C9    H7    S    
C1    C8    S    
O7    Zn4   S    
C16   O7    A    
C23   C24   A    
C17   O4    A    
C18   O3    A    
C23   C25   A    
C1    O8    A    
C7    H8    S    
C14   H11   S    
C3    C20   A    
C11   C14   S    
C10   C16   S    
C13   C14   D    
C15   O12   A    
C26   C27   A    
O11   Zn1   S    
C5    C24   A    
C8    H9    S    
C22   H4    S    
C12   C21   A    
O1    Zn4   S    
C13   H13   S    
O10   Zn4   S    
O9    Zn3   S    
O4    Zn3   S    
C2    C25   A    
C16   O13   A    
C13   C15   S    
C4    O11   A    
O2    Zn2   S    
C21   H3    S    
O1    Zn1   S    
C15   O6    A    
C10   C11   D    
C2    C20   A    
O6    Zn1   S    
C12   C22   A    
C17   C20   S    
C5    C21   A    
C17   O2    A    
C28   H6    S    
C8    C9    D    
C4    C6    S    
C11   H12   S    
C25   C26   A    
C27   C28   A    
C7    C9    S    
C19   C26   A    
C22   C23   A    
O1    Zn2   S    
O13   Zn3   S    
C5    C18   S    
C10   H14   S    
C6    H10   S    
C12   H5    S    
C27   H15   S    
O5    Zn1   S    
C24   C28   A    
C18   O5    A    
C2    H2    S    
C19   Cl1   S    
