data_mof_unit_19526.cif
_audit_creation_date              2012-12-11T15:30:38-0500
_audit_creation_method            fapswitch 2.2
_symmetry_space_group_name_H-M    P1
_symmetry_Int_Tables_number       1
_space_group_crystal_system       triclinic
_cell_length_a                    6.992708
_cell_length_b                    20.425862
_cell_length_c                    24.469423
_cell_angle_alpha                 89.78402
_cell_angle_beta                  90.91787
_cell_angle_gamma                 89.4047
_cell_volume                      3494.35463368

loop_
_atom_site_label
_atom_site_type_symbol
_atom_type_description
_atom_site_fract_x
_atom_site_fract_y
_atom_site_fract_z
_atom_type_partial_charge
O1    O     O_R   0.507310 0.423620 0.460450 -0.531020
O2    O     O_R   0.170760 0.556060 0.437190 -0.541009
O3    O     O_R   0.004040 0.576380 0.539550 -0.540356
C1    C     C_R   0.338981 0.576473 0.421465 0.713579
O4    O     O_R   0.177350 0.422870 0.454070 -0.525165
O5    O     O_R   0.010680 0.442240 0.556560 -0.519795
C2    C     C_R   0.345394 0.398461 0.444000 0.767106
O6    O     O_R   0.500670 0.557760 0.443440 -0.544918
O7    O     O_3   0.340380 0.506510 0.533610 -0.365939
V1    V     V_3+5 0.064130 0.498790 0.493770 1.444732
O8    O     O_R   0.681170 0.443940 0.562810 -0.535817
C3    C     C_R   0.852393 0.423716 0.578317 0.758618
O9    O     O_R   0.674570 0.577130 0.545930 -0.538605
C4    C     C_R   0.842908 0.601036 0.556488 0.677564
V2    V     V_3+5 0.564560 0.501210 0.506230 1.438509
O10   O     O_3   0.838170 0.493490 0.466390 -0.374978
C5    C     C_R   0.975611 0.838232 0.911185 -0.042687
C6    C     C_R   0.848320 0.661847 0.588749 -0.035106
C7    C     C_R   0.037049 0.721805 0.906018 -0.164384
C8    C     C_R   0.028399 0.779214 0.936331 -0.170793
C9    C     C_R   0.931849 0.839596 0.854875 -0.208941
C10   C     C_R   0.942501 0.781672 0.822626 0.086490
C11   C     C_R   0.996033 0.722510 0.849676 0.143636
C12   C     C_R   0.904455 0.780331 0.764712 0.048910
C13   C     C_R   0.921023 0.719866 0.735160 0.060689
C14   C     C_R   0.974428 0.662798 0.764540 -0.187381
C15   C     C_R   0.010561 0.664280 0.820452 -0.204433
C16   C     C_R   0.850704 0.837384 0.735355 -0.172775
C17   C     C_R   0.813727 0.835846 0.679492 -0.182421
C18   C     C_R   0.828018 0.777596 0.650284 0.128776
C19   C     C_R   0.882662 0.718500 0.677259 0.086850
C20   C     C_R   0.785336 0.778200 0.594050 -0.154350
C21   C     C_R   0.793521 0.720774 0.563776 -0.175085
C22   C     C_R   0.893747 0.660599 0.644968 -0.213351
H1    H     H_    0.051536 0.619077 0.841088 0.118385
H2    H     H_    0.932510 0.613598 0.662155 0.090100
H3    H     H_    0.755478 0.722273 0.520741 0.104339
H4    H     H_    0.772068 0.881006 0.658895 0.147014
H5    H     H_    0.078568 0.676672 0.926638 0.109390
H6    H     H_    0.064410 0.777715 0.979558 0.103531
H7    H     H_    0.894648 0.886696 0.837606 0.106236
H8    H     H_    0.990078 0.615673 0.745516 0.119605
H9    H     H_    0.834866 0.884502 0.754382 0.146028
H10   H     H_    0.742564 0.823251 0.573502 0.120009
C23   C     C_3   0.785544 0.257317 0.797195 -0.422634
C24   C     C_3   0.136493 0.241973 0.783257 0.287392
C25   C     C_3   0.127550 0.286978 0.730767 -0.351609
H11   H     H_    0.829227 0.357770 0.769697 0.147164
H12   H     H_    0.803770 0.280732 0.837925 0.138025
H13   H     H_    0.150242 0.276649 0.817858 0.065543
H14   H     H_    0.176293 0.337102 0.741444 0.111992
H15   H     H_    0.227162 0.268014 0.699369 0.193352
C26   C     C_1   0.873233 0.377467 0.623203 -0.145123
C27   C     C_3   0.942555 0.204154 0.788319 0.141778
C28   C     C_3   0.784475 0.310107 0.751955 -0.362505
C29   C     C_3   0.921006 0.290260 0.705901 0.158595
C30   C     C_3   0.868444 0.220561 0.686132 -0.321745
C31   C     C_3   0.904943 0.169169 0.732422 0.143652
C32   C     C_1   0.898424 0.338334 0.660236 -0.020731
C33   C     C_1   0.943129 0.157275 0.835534 -0.026719
C34   C     C_1   0.953299 0.119762 0.874420 -0.198907
H16   H     H_    0.034942 0.140115 0.722217 0.163244
H17   H     H_    0.715580 0.220367 0.672772 0.206409
H18   H     H_    0.644802 0.234961 0.795790 0.232370
H19   H     H_    0.636174 0.316968 0.735404 0.171123
H20   H     H_    0.954912 0.207153 0.649977 0.170139
C35   C     C_3   0.481682 0.680233 0.245586 -0.397652
C36   C     C_3   0.169416 0.734775 0.269865 0.345093
C37   C     C_3   0.201138 0.776991 0.216597 -0.329591
H21   H     H_    0.490691 0.709520 0.159635 0.141427
H22   H     H_    0.391722 0.640937 0.227521 0.135270
H23   H     H_    0.085958 0.690975 0.257594 0.038932
H24   H     H_    0.150201 0.749242 0.180208 0.096413
H25   H     H_    0.113456 0.822756 0.217745 0.165600
C38   C     C_1   0.470955 0.878819 0.124758 -0.192533
C39   C     C_3   0.371324 0.712706 0.293601 0.201747
C40   C     C_3   0.528187 0.730453 0.200300 -0.345406
C41   C     C_3   0.416173 0.794894 0.209417 0.228907
C42   C     C_3   0.490277 0.825539 0.263442 -0.317169
C43   C     C_3   0.474383 0.776507 0.311775 -0.308480
C44   C     C_1   0.446578 0.841090 0.162729 -0.079280
C45   C     C_1   0.362388 0.663411 0.339296 -0.113127
C46   C     C_1   0.350929 0.623394 0.376417 -0.193582
H26   H     H_    0.618173 0.766310 0.328529 0.156955
H27   H     H_    0.396172 0.800547 0.345486 0.151413
H28   H     H_    0.642145 0.840361 0.259237 0.159020
H29   H     H_    0.615137 0.655338 0.259325 0.151551
H30   H     H_    0.684661 0.740105 0.200711 0.160718
H31   H     H_    0.405850 0.870614 0.272409 0.152245
C47   C     C_R   0.481952 0.161608 0.090154 -0.046383
C48   C     C_R   0.346415 0.336879 0.412366 -0.105698
C49   C     C_R   0.619795 0.268780 0.103897 -0.167064
C50   C     C_R   0.594337 0.213399 0.072084 -0.174012
C51   C     C_R   0.404210 0.164445 0.142949 -0.217841
C52   C     C_R   0.440947 0.218830 0.178216 0.082842
C53   C     C_R   0.545719 0.271889 0.156603 0.143831
C54   C     C_R   0.384634 0.221710 0.234471 0.053356
C55   C     C_R   0.427322 0.278597 0.266837 0.072573
C56   C     C_R   0.525052 0.330578 0.242000 -0.190869
C57   C     C_R   0.583265 0.326996 0.188233 -0.207611
C58   C     C_R   0.293235 0.168817 0.259996 -0.184426
C59   C     C_R   0.247590 0.170628 0.315002 -0.176038
C60   C     C_R   0.286947 0.225585 0.346791 0.083380
C61   C     C_R   0.374592 0.281043 0.323333 0.093924
C62   C     C_R   0.236605 0.225386 0.402038 -0.173116
C63   C     C_R   0.264966 0.280357 0.434611 0.260798
C64   C     C_R   0.402752 0.336812 0.357392 -0.268543
H32   H     H_    0.662436 0.367590 0.171485 0.120719
H33   H     H_    0.459122 0.382028 0.341978 0.107265
H34   H     H_    0.179446 0.128363 0.332866 0.127501
H35   H     H_    0.705152 0.308344 0.088016 0.111651
H36   H     H_    0.667371 0.210449 0.033517 0.115906
H37   H     H_    0.324445 0.122492 0.155978 0.102165
H38   H     H_    0.564500 0.374385 0.263528 0.122701
H39   H     H_    0.257907 0.124383 0.238754 0.121407
H40   H     H_    0.171285 0.182575 0.419857 0.152690
O11   O     O_R   0.323590 0.942280 0.056590 -0.534515
O12   O     O_R   0.647030 0.077140 0.045940 -0.537020
O13   O     O_R   0.813570 0.057750 0.943430 -0.533455
C65   C     C_R   0.479320 0.100846 0.057156 0.688124
O14   O     O_R   0.653510 0.943950 0.062820 -0.536877
O15   O     O_R   0.820100 0.923600 0.960440 -0.534394
C66   C     C_R   0.485232 0.923953 0.078723 0.724777
O16   O     O_R   0.317060 0.076430 0.039590 -0.537114
O17   O     O_3   0.483830 0.993520 0.966410 -0.368127
V3    V     V_3+5 0.760140 0.001200 0.006230 1.419289
O18   O     O_R   0.149560 0.922820 0.954030 -0.535504
C67   C     C_R   0.981166 0.898994 0.943442 0.700691
O19   O     O_R   0.143080 0.056020 0.937150 -0.543144
C68   C     C_R   0.971738 0.075566 0.921031 0.731417
V4    V     V_3+5 0.259690 0.998730 0.993720 1.414153
O20   O     O_3   0.986120 0.006480 0.033580 -0.367659
O21   O     O_3   0.300470 0.199859 0.779895 -0.563598
C69   C     C_3   0.361747 0.169294 0.829970 0.131638
H41   H     H_    0.508048 0.149930 0.824492 0.188080
H42   H     H_    0.285183 0.123266 0.836951 0.139127
C70   C     C_3   0.366115 0.213988 0.880694 -0.435932
H43   H     H_    0.430591 0.261881 0.870382 0.196619
H44   H     H_    0.218618 0.222781 0.895286 0.187526
C71   C     C_3   0.480581 0.183395 0.927693 -0.777137
H45   H     H_    0.441327 0.131468 0.933788 0.253946
H46   H     H_    0.447628 0.210907 0.965312 0.212464
H47   H     H_    0.635958 0.186546 0.919834 0.223076
Br1   Br    Br    0.699370 0.105396 0.732877 -0.575725
O22   O     O_3   0.057785 0.774400 0.305532 -0.577619
C72   C     C_3   0.015515 0.746705 0.357190 0.083716
H48   H     H_    0.917949 0.781975 0.377455 0.139203
H49   H     H_    0.143361 0.745022 0.384455 0.119557
C73   C     C_3   0.913848 0.680192 0.355045 -0.387137
H50   H     H_    0.793377 0.682095 0.326191 0.193734
H51   H     H_    0.006315 0.640397 0.339961 0.189311
C74   C     C_3   0.841733 0.661162 0.411216 -0.744273
H52   H     H_    0.956792 0.666068 0.442691 0.215795
H53   H     H_    0.796177 0.609484 0.410191 0.253311
H54   H     H_    0.718138 0.692701 0.422329 0.202921
Br2   Br    Br    0.186345 0.276526 0.509433 -0.560416

loop_
_geom_bond_atom_site_label_1
_geom_bond_atom_site_label_2
_ccdc_geom_bond_type
C31   H16   S    
H11   C28   S    
C28   C29   S    
C13   C19   A    
C58   C59   A    
C47   C51   A    
C4    C6    S    
C62   H40   S    
O2    C1    A    
C7    C8    A    
C35   C40   S    
C71   H47   S    
C30   H20   S    
C43   H26   S    
C5    C8    A    
C69   C70   S    
O22   C72   S    
C26   C32   T    
C27   C33   S    
C40   C41   S    
C70   H44   S    
C14   C15   A    
C43   H27   S    
C62   C63   A    
C38   C66   S    
C16   C17   A    
C71   H46   S    
O19   C68   A    
C73   H51   S    
O5    C3    A    
C18   C19   A    
C8    H6    S    
V2    O10   S    
C54   C55   A    
C49   C53   A    
O13   C68   A    
C29   C30   S    
O8    V2    S    
C52   C53   A    
C40   H30   S    
C36   C37   S    
C17   H4    S    
C37   H24   S    
O1    V2    S    
C11   C15   A    
O7    V1    S    
C22   H2    S    
C3    C26   S    
C1    O6    A    
O9    C4    A    
H21   C40   S    
O15   C67   A    
C64   H33   S    
C48   C63   A    
C37   C41   S    
C59   C60   A    
C56   H38   S    
C28   H19   S    
C51   H37   S    
C30   H17   S    
C72   H49   S    
C70   C71   S    
C57   H32   S    
O14   C66   A    
C48   C64   A    
C12   C13   A    
C73   C74   S    
C39   C45   S    
O4    C2    A    
C41   C42   S    
C38   C44   T    
C69   H42   S    
C15   H1    S    
C13   C14   A    
C21   H3    S    
O16   V4    S    
C65   O16   A    
C33   C34   T    
C47   C65   S    
O15   V3    S    
C7    C11   A    
C17   C18   A    
C72   C73   S    
O17   V4    S    
C56   C57   A    
C74   H54   S    
V3    O20   S    
C36   H23   S    
C2    C48   S    
C24   C27   S    
C23   H12   S    
C20   H10   S    
C19   C22   A    
C37   H25   S    
C60   C62   A    
C71   H45   S    
C6    C22   A    
C69   H41   S    
O3    C4    A    
C7    H5    S    
C34   C68   S    
C9    H7    S    
O12   C65   A    
C74   H53   S    
C23   C27   S    
C55   C56   A    
O6    V2    S    
C63   Br2   S    
O9    V2    S    
C49   H35   S    
O21   C69   S    
C58   H39   S    
C10   C12   A    
C59   H34   S    
C39   C43   S    
O18   C67   A    
O2    V1    S    
C14   H8    S    
C47   C50   A    
C72   H48   S    
C27   C31   S    
C24   C25   S    
C16   H9    S    
O1    C2    A    
C12   C16   A    
O5    V1    S    
C25   H14   S    
O8    C3    A    
C52   C54   A    
C5    C67   S    
C25   H15   S    
C36   C39   S    
C70   H43   S    
C24   H13   S    
C23   H18   S    
C35   H29   S    
C29   C32   S    
C20   C21   A    
O11   C66   A    
O4    V1    S    
O3    V1    S    
V1    O10   S    
C73   H50   S    
C24   O21   S    
C18   C20   A    
C41   C44   S    
C30   C31   S    
O17   V3    S    
C1    C46   S    
C55   C61   A    
C53   C57   A    
C49   C50   A    
C35   H22   S    
C61   C64   A    
O7    V2    S    
C51   C52   A    
O11   V4    S    
C6    C21   A    
O18   V4    S    
C42   H31   S    
C50   H36   S    
C42   C43   S    
O13   V3    S    
C31   Br1   S    
O14   V3    S    
C74   H52   S    
C23   C28   S    
C45   C46   T    
C60   C61   A    
C10   C11   A    
C35   C39   S    
O12   V3    S    
C9    C10   A    
C42   H28   S    
C54   C58   A    
C36   O22   S    
V4    O20   S    
C25   C29   S    
O19   V4    S    
C5    C9    A    
