data_mof_unit_62720.cif
_audit_creation_date              2013-03-05T15:43:11-0500
_audit_creation_method            fapswitch 2.2
_symmetry_space_group_name_H-M    P1
_symmetry_Int_Tables_number       1
_space_group_crystal_system       triclinic
_cell_length_a                    11.708736
_cell_length_b                    10.938322
_cell_length_c                    9.726085
_cell_angle_alpha                 89.194598
_cell_angle_beta                  89.830877
_cell_angle_gamma                 90.159994
_cell_volume                      1245.52438115

loop_
_atom_site_label
_atom_site_type_symbol
_atom_site_description
_atom_site_fract_x
_atom_site_fract_y
_atom_site_fract_z
_atom_type_partial_charge
O1    O     O_R   0.500020 0.321960 0.617040 -0.588223
O2    O     O_R   0.499980 0.321920 0.382900 -0.600605
C1    C     C_R   0.495768 0.265638 0.501015 0.850293
O3    O     O_R   0.337220 0.500030 0.617070 -0.580314
O4    O     O_R   0.337180 0.499990 0.382930 -0.552972
C2    C     C_R   0.284088 0.500142 0.500158 0.832663
Cu1   Cu    Cu3+1 0.500020 0.500020 0.638630 1.026759
Cu2   Cu    Cu3+1 0.499980 0.499980 0.361370 1.057156
O5    O     O_R   0.500020 0.678080 0.617100 -0.542000
O6    O     O_R   0.499980 0.678040 0.382960 -0.538287
O7    O     O_R   0.662820 0.500010 0.617070 -0.549858
O8    O     O_R   0.662780 0.499970 0.382930 -0.559081
C3    C     C_R   0.501440 0.734603 0.498931 0.836610
C4    C     C_R   0.715908 0.500134 0.499822 0.829939
C5    C     C_1   0.162372 0.500316 0.500370 -0.113376
C6    C     C_1   0.059898 0.500409 0.500135 0.044754
C7    C     C_1   0.940097 0.500405 0.499715 0.047674
C8    C     C_1   0.837622 0.500309 0.499540 -0.113601
C9    C     C_2   0.461114 0.935847 0.399046 0.230227
C10   C     C_2   0.517006 0.866395 0.494558 0.059143
C11   C     C_2   0.479258 0.068460 0.391005 -0.142650
C12   C     C_2   0.481005 0.134451 0.505518 -0.281067
H1    H     H_    0.483621 0.112340 0.290218 0.189594
H2    H     H_    0.468101 0.091275 0.605713 0.181135
C13   C     C_2   0.507404 0.402309 0.924719 -0.042710
N1    N     N_2   0.498780 0.498660 0.846910 -0.262480
H3    H     H_    0.527623 0.315343 0.878684 0.168123
H4    H     H_    0.457565 0.572128 0.889288 0.246638
C14   C     C_2   0.482527 0.404000 0.076633 0.005831
N2    N     N_2   0.498750 0.498630 0.153040 -0.092298
H5    H     H_    0.451505 0.320032 0.124168 0.130658
N3    N     N_R   0.377540 0.884409 0.307649 0.137622
O9    O     O_R   0.366841 0.928696 0.183477 -0.320326
O10   O     O_R   0.299152 0.810402 0.355275 -0.353625
N4    N     N_R   0.606619 0.915999 0.578865 0.099444
O11   O     O_R   0.616458 0.880923 0.706684 -0.305549
O12   O     O_R   0.688593 0.980158 0.522668 -0.328809
I1    I     I_    0.611867 0.637698 0.088083 -0.106432

loop_
_geom_bond_atom_site_label_1
_geom_bond_atom_site_label_2
_geom_bond_distance
_ccdc_geom_bond_type
O4    Cu2   1.917067 S    
C14   N2    1.296580 D    
C13   H3    1.083523 S    
C4    C8    1.425110 S    
N1    H4    1.029017 S    
N4    O11   1.301406 A    
Cu2   O8    1.918297 S    
Cu2   N2    2.026590 S    
N3    O9    1.301420 A    
C7    C8    1.199855 T    
C13   N1    1.293168 D    
Cu1   Cu2   2.696663 S    
C14   H5    1.083721 S    
C11   C12   1.335891 D    
Cu1   O7    1.917067 S    
Cu1   N1    2.025603 S    
O3    Cu1   1.918296 S    
C9    N3    1.442374 S    
Cu2   O6    1.961897 S    
N4    O12   1.301865 A    
O8    C4    1.297593 A    
O2    C1    1.296455 A    
C11   H1    1.086389 S    
C13   C14   1.505503 S    
O4    C2    1.297032 A    
O7    C4    1.297140 A    
C12   H2    1.086887 S    
C5    C6    1.199861 T    
N2    I1    2.103351 S    
O3    C2    1.297749 A    
Cu1   O5    1.955972 S    
O5    C3    1.297426 A    
C1    C12   1.444891 S    
C3    C10   1.452566 S    
C9    C11   1.466408 S    
C2    C5    1.425143 S    
O1    Cu1   1.961898 S    
C10   N4    1.442945 S    
O2    Cu2   1.955972 S    
C9    C10   1.361946 D    
C6    C7    1.402729 S    
O1    C1    1.294278 A    
O6    C3    1.294228 A    
N3    O10   1.301954 A    
