data_mof_unit_54439.cif
_audit_creation_date              2012-12-10T16:57:41-0500
_audit_creation_method            fapswitch 2.2
_symmetry_space_group_name_H-M    P1
_symmetry_Int_Tables_number       1
_space_group_crystal_system       triclinic
_cell_length_a                    7.797076
_cell_length_b                    8.594706
_cell_length_c                    19.122848
_cell_angle_alpha                 91.592028
_cell_angle_beta                  85.474816
_cell_angle_gamma                 93.126962
_cell_volume                      1275.23875656

loop_
_atom_site_label
_atom_site_type_symbol
_atom_type_description
_atom_site_fract_x
_atom_site_fract_y
_atom_site_fract_z
_atom_type_partial_charge
C1    C     C_R   0.544674 0.794171 0.499642 0.823657
C2    C     C_R   0.540284 0.367499 0.177907 0.060041
C3    C     C_R   0.514216 0.522367 0.853986 -0.151078
C4    C     C_R   0.500974 0.505361 0.145649 -0.151743
C5    C     C_R   0.556665 0.383987 0.817548 0.436343
C6    C     C_R   0.455295 0.639148 0.184920 0.436683
C7    C     C_R   0.550419 0.374863 0.744507 0.302943
C8    C     C_R   0.455285 0.638896 0.258189 0.304732
C9    C     C_R   0.507175 0.508023 0.709090 -0.323161
C10   C     C_R   0.495054 0.500858 0.290858 -0.323030
C11   C     C_R   0.505247 0.511502 0.069954 0.402964
C12   C     C_R   0.455320 0.205835 0.500379 0.830272
C13   C     C_R   0.512782 0.524597 0.929752 0.399868
C14   C     C_3   0.433585 0.805190 0.859660 -0.683482
C15   C     C_3   0.581107 0.222484 0.134084 -0.678793
C16   C     C_2   0.564137 0.957188 0.509465 0.203175
C17   C     C_2   0.435797 0.042822 0.490604 0.202982
C18   C     C_R   0.501703 0.500718 0.633898 0.849677
C19   C     C_R   0.498461 0.499996 0.366102 0.848813
C20   C     C_R   0.470432 0.649252 0.745838 0.428447
C21   C     C_R   0.534818 0.364204 0.251144 0.426691
C22   C     C_R   0.471361 0.655353 0.818974 0.062434
H1    H     H_    0.472352 0.776526 0.661899 0.331939
H2    H     H_    0.383816 0.854572 0.182964 0.392951
H3    H     H_    0.545871 0.232437 0.662188 0.359173
H4    H     H_    0.454787 0.771580 0.343745 0.359279
H5    H     H_    0.771984 0.938636 0.559589 0.372126
H6    H     H_    0.227835 0.061360 0.440539 0.372219
H7    H     H_    0.936600 0.301748 0.412725 0.352270
H8    H     H_    0.063401 0.698245 0.587278 0.352518
H9    H     H_    0.526949 0.226940 0.332014 0.333334
H10   H     H_    0.541333 0.839026 0.892587 0.225739
H11   H     H_    0.417706 0.904678 0.825472 0.288782
H12   H     H_    0.312595 0.788485 0.893829 0.238630
H13   H     H_    0.476584 0.193503 0.098919 0.226944
H14   H     H_    0.704778 0.242637 0.101995 0.238696
H15   H     H_    0.593623 0.118569 0.166013 0.288163
H16   H     H_    0.627975 0.169403 0.823908 0.390292
N1    N     N_R   0.657246 0.494961 0.960846 -0.111487
N2    N     N_R   0.360993 0.541798 0.038879 -0.112756
N3    N     N_R   0.653676 0.489165 0.030174 -0.161482
N4    N     N_R   0.364568 0.547598 0.969561 -0.162133
N5    N     N_2   0.950330 0.457950 0.481240 0.196712
N6    N     N_2   0.049670 0.542050 0.518760 0.196854
O1    O     O_R   0.389250 0.738570 0.504600 -0.581545
O2    O     O_3   0.569358 0.226301 0.281909 -0.730896
O3    O     O_3   0.596701 0.257877 0.855715 -0.740190
O4    O     O_3   0.418229 0.770148 0.149393 -0.739955
O5    O     O_3   0.584294 0.234301 0.710237 -0.726883
O6    O     O_3   0.419267 0.775510 0.295400 -0.725065
O7    O     O_3   0.700852 0.022229 0.544845 -0.740695
O8    O     O_3   0.298940 0.977775 0.455310 -0.740456
O9    O     O_3   0.030373 0.357136 0.437025 -0.645968
O10   O     O_3   0.969627 0.642860 0.562978 -0.645946
O11   O     O_R   0.610750 0.261430 0.495400 -0.580891
O12   O     O_R   0.678400 0.711620 0.492580 -0.592008
O13   O     O_R   0.321600 0.288380 0.507420 -0.592368
O14   O     O_R   0.355380 0.513500 0.607880 -0.619691
O15   O     O_R   0.644620 0.486500 0.392120 -0.619539
O16   O     O_R   0.644530 0.486550 0.595850 -0.555528
O17   O     O_R   0.355470 0.513450 0.404150 -0.555837
O18   O     O_3   0.433124 0.782840 0.712269 -0.731111
Zn1   Zn    Zn3+2 0.306930 0.517990 0.508030 1.093599
Zn2   Zn    Zn3+2 0.693070 0.482010 0.491970 1.093773

loop_
_geom_bond_atom_site_label_1
_geom_bond_atom_site_label_2
_ccdc_geom_bond_type
C12   C17   S    
C14   H12   S    
C2    C4    A    
N5    N6    D    
O12   Zn2   S    
O13   Zn1   S    
N6    O10   S    
H6    O8    S    
C9    C18   S    
C9    C20   A    
C3    C13   S    
C16   O7    S    
C10   C19   S    
O16   Zn2   S    
O11   Zn2   S    
C14   C22   S    
C2    C21   A    
N2    N4    A    
O15   Zn2   S    
C3    C5    A    
C5    C7    A    
N1    N3    A    
C1    C16   S    
O1    Zn1   S    
C4    C11   S    
C2    C15   S    
H8    O10   S    
C1    O1    A    
H16   O3    S    
C6    O4    S    
C14   H11   S    
C12   O13   A    
C17   O8    S    
C15   H13   S    
C13   N4    A    
C5    O3    S    
C1    O12   A    
C19   O17   A    
N5    Zn2   S    
C11   N3    A    
C7    C9    A    
H4    O6    S    
N6    Zn1   S    
C20   O18   S    
C11   N2    A    
H3    O5    S    
C13   N1    A    
C12   O11   A    
C20   C22   A    
C4    C6    A    
H2    O4    S    
C8    O6    S    
C15   H14   S    
C14   H10   S    
C7    O5    S    
C8    C10   A    
C21   O2    S    
C18   O16   A    
O14   Zn1   S    
O17   Zn1   S    
C15   H15   S    
C3    C22   A    
C6    C8    A    
C19   O15   A    
C10   C21   A    
N5    O9    S    
H1    O18   S    
C18   O14   A    
H5    O7    S    
C16   C17   D    
H7    O9    S    
H9    O2    S    
