data_mof_unit_51131.cif
_audit_creation_date              2013-03-05T15:45:02-0500
_audit_creation_method            fapswitch 2.2
_symmetry_space_group_name_H-M    P1
_symmetry_Int_Tables_number       1
_space_group_crystal_system       triclinic
_cell_length_a                    9.917315
_cell_length_b                    10.926742
_cell_length_c                    12.971558
_cell_angle_alpha                 89.324424
_cell_angle_beta                  75.877844
_cell_angle_gamma                 109.439433
_cell_volume                      1278.79493868

loop_
_atom_site_label
_atom_site_type_symbol
_atom_site_description
_atom_site_fract_x
_atom_site_fract_y
_atom_site_fract_z
_atom_type_partial_charge
O1    O     O_R   0.578710 0.332530 0.490040 -0.588916
O2    O     O_R   0.421290 0.667470 0.509960 -0.560861
O3    O     O_R   0.329810 0.295070 0.521560 -0.550831
O4    O     O_R   0.670190 0.704930 0.478440 -0.519031
C1    C     C_R   0.441416 0.253903 0.513640 0.811519
C2    C     C_R   0.556471 0.745076 0.497314 0.867884
O5    O     O_R   0.604230 0.515670 0.637800 -0.554917
O6    O     O_R   0.395770 0.484330 0.362200 -0.537291
O7    O     O_R   0.355330 0.478200 0.669330 -0.569477
O8    O     O_R   0.644670 0.521800 0.330670 -0.604939
C3    C     C_R   0.474704 0.498166 0.701656 0.869217
C4    C     C_R   0.526009 0.503440 0.298212 0.851992
Cu1   Cu    Cu3+1 0.647370 0.522180 0.481340 1.036346
Cu2   Cu    Cu3+1 0.352630 0.477820 0.518660 1.045132
C5    C     C_R   0.541395 0.511946 0.184150 -0.106106
C6    C     C_R   0.462326 0.483202 0.814833 -0.109529
C7    C     C_R   0.398966 0.328507 0.968680 0.002571
C8    C     C_R   0.655135 0.649006 0.016752 -0.002720
C9    C     C_R   0.395802 0.356811 0.864897 -0.193413
C10   C     C_R   0.646957 0.623514 0.123580 -0.219652
C11   C     C_R   0.538866 0.586001 0.866348 -0.074353
C12   C     C_R   0.449496 0.414843 0.136940 -0.059700
C13   C     C_R   0.554903 0.557388 0.968595 0.011720
C14   C     C_R   0.467197 0.431697 0.025394 0.022736
H1    H     H_    0.720957 0.693878 0.161395 0.187283
H2    H     H_    0.348139 0.278060 0.819912 0.171107
C15   C     C_2   0.412109 0.113487 0.534959 -0.201831
C16   C     C_2   0.577392 0.883795 0.494356 -0.212760
C17   C     C_2   0.514123 0.071121 0.563857 -0.156360
C18   C     C_2   0.496180 0.932034 0.574019 -0.122624
N1    N     N_2   0.131210 0.444490 0.546730 -0.196798
N2    N     N_2   0.868790 0.555510 0.453270 -0.191025
C19   C     C_2   0.088321 0.529863 0.501375 0.041997
C20   C     C_2   0.932750 0.537947 0.528264 0.060566
C21   C     C_2   0.327062 0.303989 0.206157 0.893465
O9    O     O_2   0.353132 0.238158 0.270424 -0.528776
O10   O     O_R   0.182133 0.275713 0.197719 -0.739123
H3    H     H_    0.108526 0.198579 0.249167 0.365947
C22   C     C_2   0.581794 0.723282 0.820447 0.874701
O11   O     O_2   0.650968 0.757541 0.726993 -0.553464
O12   O     O_R   0.542446 0.813753 0.885457 -0.737568
H4    H     H_    0.580652 0.904662 0.846691 0.362889
C23   C     C_2   0.352227 0.188242 0.006828 0.894689
O13   O     O_2   0.240174 0.110018 0.990536 -0.535579
O14   O     O_R   0.440245 0.144766 0.056950 -0.726535
H5    H     H_    0.397908 0.047144 0.078052 0.364728
C24   C     C_2   0.779203 0.766479 0.958165 0.869151
O15   O     O_2   0.807024 0.869233 0.999039 -0.523665
O16   O     O_R   0.868230 0.758602 0.858698 -0.741154
H6    H     H_    0.950087 0.844657 0.827780 0.383272
C25   C     C_2   0.401508 0.859076 0.680160 0.964698
O17   O     O_2   0.363924 0.740859 0.696518 -0.582387
O18   O     O_R   0.352421 0.928602 0.762280 -0.715924
H7    H     H_    0.288063 0.870256 0.830022 0.362244
C26   C     C_2   0.645299 0.159146 0.594381 0.914487
O19   O     O_2   0.635650 0.177395 0.688127 -0.532488
O20   O     O_R   0.780224 0.219691 0.518312 -0.754607
H8    H     H_    0.774868 0.205674 0.442389 0.320959
C27   C     C_2   0.670077 0.962411 0.391467 0.800694
O21   O     O_2   0.789355 0.951377 0.349007 -0.552092
O22   O     O_R   0.617977 0.043964 0.340524 -0.754636
H9    H     H_    0.690369 0.090794 0.270542 0.359109
C28   C     C_2   0.264903 0.022801 0.528717 0.940869
O23   O     O_2   0.193434 0.931194 0.597172 -0.522768
O24   O     O_R   0.204042 0.047205 0.447605 -0.686496
H10   H     H_    0.102296 0.980685 0.452834 0.366883
C29   C     C_2   0.887708 0.580587 0.634119 0.947534
O25   O     O_2   0.907927 0.696181 0.642123 -0.477307
O26   O     O_R   0.823231 0.489919 0.724581 -0.766779
H11   H     H_    0.802535 0.531541 0.793139 0.359104
C30   C     C_2   0.195668 0.634586 0.418305 0.906560
O27   O     O_2   0.240904 0.610316 0.327378 -0.592184
O28   O     O_R   0.231112 0.763963 0.441305 -0.731850
H12   H     H_    0.301834 0.827438 0.378033 0.349259
C31   C     C_3   0.914165 0.505934 0.350917 -0.407559
H13   H     H_    0.818806 0.428242 0.335447 0.223663
H14   H     H_    0.958885 0.586587 0.285525 0.208296
H15   H     H_    0.993088 0.453513 0.347614 0.186319
C32   C     C_3   0.037721 0.362231 0.643275 -0.379994
H16   H     H_    0.076241 0.279594 0.653163 0.207825
H17   H     H_    0.046751 0.418672 0.713379 0.211820
H18   H     H_    0.921387 0.320945 0.640351 0.256836

loop_
_geom_bond_atom_site_label_1
_geom_bond_atom_site_label_2
_geom_bond_distance
_ccdc_geom_bond_type
C18   C25   1.502590 S    
C28   O24   1.397435 S    
C6    C11   1.407875 A    
C15   C17   1.367874 D    
O12   H4    1.013846 S    
Cu1   N2    2.039989 S    
C21   O9    1.222318 D    
Cu2   N1    2.039988 S    
O7    Cu2   1.961164 S    
C8    C24   1.486114 S    
N2    C31   1.465045 S    
C24   O16   1.396051 S    
O18   H7    1.014015 S    
O5    C3    1.298570 A    
C12   C21   1.486962 S    
C17   C18   1.470556 S    
O1    C1    1.302888 A    
C21   O10   1.398303 S    
O26   H11   1.011150 S    
C10   H1    1.085958 S    
C25   O17   1.219422 D    
O28   H12   1.014131 S    
O4    Cu1   1.932192 S    
C9    H2    1.086316 S    
C1    C15   1.472730 S    
C5    C12   1.405496 A    
C2    C16   1.458568 S    
C13   C14   1.433133 A    
N1    C19   1.330611 D    
O7    C3    1.302862 A    
C27   O21   1.223008 D    
Cu1   Cu2   2.715563 S    
O2    C2    1.294599 A    
C11   C13   1.417175 A    
C5    C10   1.387795 A    
C27   O22   1.398891 S    
C7    C14   1.423043 A    
C8    C13   1.426846 A    
O4    C2    1.312006 A    
C22   O11   1.221818 D    
C32   H17   1.109727 S    
C17   C26   1.483827 S    
O14   H5    1.013887 S    
C29   O25   1.221060 D    
C29   O26   1.397169 S    
N2    C20   1.327865 D    
C31   H13   1.103416 S    
C7    C23   1.485274 S    
O10   H3    1.013952 S    
C31   H14   1.109718 S    
C3    C6    1.445721 S    
C24   O15   1.223557 D    
C11   C22   1.488631 S    
C4    C5    1.448513 S    
O6    C4    1.301561 A    
C26   O19   1.220361 D    
C19   C20   1.529272 S    
C23   O14   1.398580 S    
O3    Cu2   1.932192 S    
O8    C4    1.299615 A    
O16   H6    1.013987 S    
C26   O20   1.397455 S    
C23   O13   1.223426 D    
C12   C14   1.416531 A    
O1    Cu1   1.946382 S    
C30   O28   1.393332 S    
C16   C27   1.487553 S    
O6    Cu2   1.964618 S    
C28   O23   1.221672 D    
O3    C1    1.309565 A    
O8    Cu1   1.961165 S    
C20   C29   1.468450 S    
C32   H18   1.100605 S    
N1    C32   1.444994 S    
C16   C18   1.372443 D    
C30   O27   1.221103 D    
O20   H8    1.009882 S    
C6    C9    1.388371 A    
C7    C9    1.387877 A    
C8    C10   1.387595 A    
O22   H9    1.013812 S    
O2    Cu2   1.946382 S    
C31   H15   1.106883 S    
C19   C30   1.484634 S    
C32   H16   1.108380 S    
O5    Cu1   1.964615 S    
C22   O12   1.398737 S    
O24   H10   1.014070 S    
C15   C28   1.488759 S    
C25   O18   1.400365 S    
