data_mof_unit_36122.cif
_audit_creation_date              2012-12-10T17:59:18-0500
_audit_creation_method            fapswitch 2.2
_symmetry_space_group_name_H-M    P1
_symmetry_Int_Tables_number       1
_space_group_crystal_system       triclinic
_cell_length_a                    10.780843
_cell_length_b                    9.73702
_cell_length_c                    10.884117
_cell_angle_alpha                 90.885874
_cell_angle_beta                  100.255479
_cell_angle_gamma                 89.69893
_cell_volume                      1124.14987618

loop_
_atom_site_label
_atom_site_type_symbol
_atom_type_description
_atom_site_fract_x
_atom_site_fract_y
_atom_site_fract_z
_atom_type_partial_charge
Br1   Br    Br    0.789150 0.628428 0.148925 -0.353964
Br2   Br    Br    0.767459 0.333344 0.180658 -0.420904
C1    C     C_R   0.264852 0.500056 0.510896 0.868932
C2    C     C_R   0.404214 0.924666 0.420780 0.466332
C3    C     C_R   0.591186 0.927434 0.574888 -0.069796
C4    C     C_R   0.590459 0.073952 0.575784 -0.077714
C5    C     C_R   0.516475 0.499604 0.263079 0.862330
C6    C     C_R   0.738375 0.499752 0.507023 0.764428
C7    C     C_R   0.506834 0.501303 0.739806 0.751668
C8    C     C_3   0.479409 0.644232 0.064371 0.170739
C9    C     C_3   0.443202 0.381577 0.051604 0.228125
C10   C     C_3   0.483630 0.647264 0.923285 -0.431061
C11   C     C_3   0.413849 0.409716 0.911531 -0.432501
C12   C     C_3   0.653301 0.468498 0.945893 -0.367692
C13   C     C_3   0.668591 0.481788 0.092676 0.480386
C14   C     C_3   0.531342 0.500917 0.124749 -0.257921
C15   C     C_3   0.515393 0.504606 0.877746 -0.036049
C16   C     C_R   0.065783 0.375315 0.507923 -0.130890
C17   C     C_R   0.075559 0.613942 0.570283 -0.153782
C18   C     C_R   0.936773 0.375477 0.501652 -0.123978
C19   C     C_R   0.945344 0.616228 0.562194 -0.144392
C20   C     C_R   0.874891 0.498129 0.521686 0.003122
C21   C     C_R   0.133960 0.497477 0.529548 -0.049588
C22   C     C_R   0.406376 0.075230 0.418930 0.430360
Cu1   Cu    Cu3+1 0.500020 0.640660 0.500000 1.075413
Cu2   Cu    Cu3+1 0.500020 0.359340 0.500000 1.056727
H1    H     H_    0.665343 0.874297 0.636356 0.151889
H2    H     H_    0.682186 0.366448 0.915508 0.226988
H3    H     H_    0.112127 0.279923 0.495711 0.218467
H4    H     H_    0.130132 0.702460 0.608032 0.193396
H5    H     H_    0.885743 0.280290 0.478619 0.184191
H6    H     H_    0.900228 0.709396 0.587838 0.157536
H7    H     H_    0.351544 0.880900 0.056143 0.371541
H8    H     H_    0.614912 0.096188 0.212222 0.414602
H9    H     H_    0.076952 0.152376 0.277332 0.397855
H10   H     H_    0.077400 0.816353 0.385154 0.395873
H11   H     H_    0.664066 0.128322 0.637989 0.161542
H12   H     H_    0.377765 0.644874 0.071887 0.120604
H13   H     H_    0.351650 0.384254 0.085175 0.152454
H14   H     H_    0.391202 0.684498 0.871639 0.163852
H15   H     H_    0.318868 0.458317 0.887627 0.134055
H16   H     H_    0.555855 0.717722 0.899676 0.253111
H17   H     H_    0.404486 0.314221 0.853496 0.248563
H18   H     H_    0.719721 0.539460 0.911680 0.165816
N1    N     N_R   0.500030 0.852070 0.500030 -0.234592
N2    N     N_R   0.500030 0.147930 0.500030 -0.244538
O1    O     O_R   0.319660 0.618740 0.499990 -0.505807
O2    O     O_2   0.612849 0.884851 0.046848 -0.217928
O3    O     O_3   0.409049 0.901704 0.135805 -0.411788
O4    O     O_2   0.386230 0.119974 0.993345 -0.229191
O5    O     O_2   0.601566 0.174364 0.992384 -0.260885
O6    O     O_3   0.535980 0.149349 0.208992 -0.431724
O7    O     O_2   0.279953 0.313542 0.292834 -0.283625
O8    O     O_2   0.280703 0.110494 0.180183 -0.158107
O9    O     O_3   0.141532 0.118976 0.346961 -0.537986
O10   O     O_2   0.189031 0.900120 0.221450 -0.201074
O11   O     O_2   0.283410 0.693546 0.290310 -0.264682
O12   O     O_R   0.319660 0.381260 0.499990 -0.545890
O13   O     O_3   0.161696 0.832477 0.436693 -0.552085
O14   O     O_R   0.499990 0.618790 0.317690 -0.478012
O15   O     O_R   0.499990 0.381210 0.317690 -0.478592
O16   O     O_R   0.680370 0.618830 0.500010 -0.572804
O17   O     O_R   0.680370 0.381170 0.500010 -0.592339
O18   O     O_R   0.500030 0.618780 0.682310 -0.606038
O19   O     O_R   0.500030 0.381220 0.682310 -0.590466
O20   O     O_2   0.617656 0.810688 0.258398 -0.220878
S1    S     S_3+6 0.538618 0.810957 0.129962 0.075369
S2    S     S_3+6 0.495015 0.202772 0.061092 0.108418
S3    S     S_3+6 0.280838 0.161837 0.309468 0.104822
S4    S     S_3+6 0.262027 0.835684 0.335860 0.109759

loop_
_geom_bond_atom_site_label_1
_geom_bond_atom_site_label_2
_ccdc_geom_bond_type
C10   C15   S    
C10   H14   S    
C6    C20   S    
Cu2   O17   S    
O3    S1    S    
Br1   C13   S    
Cu1   O14   S    
O11   S4    D    
C1    O1    A    
C7    O18   A    
Cu2   O12   S    
C9    C14   S    
Cu1   O1    S    
C1    C21   S    
O6    S2    S    
C11   C15   S    
C8    H12   S    
H10   O13   S    
O7    S3    D    
C3    H1    S    
C11   H15   S    
O20   S1    D    
C4    H11   S    
C22   N2    A    
C17   H4    S    
C16   H3    S    
C8    C14   S    
C19   C20   A    
C9    H13   S    
Br2   C13   S    
C9    C11   S    
C12   C15   S    
O9    S3    S    
O8    S3    D    
C8    C10   S    
C2    S4    S    
C5    C14   S    
C17   C19   A    
Cu2   O15   S    
C18   C20   A    
C22   S3    S    
O10   S4    D    
Cu1   O16   S    
O2    S1    D    
C3    C4    A    
C2    C22   A    
C19   H6    S    
C7    O19   A    
C13   C14   S    
Cu2   N2    S    
O13   S4    S    
H9    O9    S    
C16   C21   A    
C1    O12   A    
Cu1   N1    S    
C5    O14   A    
C11   H17   S    
C9    S2    S    
C16   C18   A    
C12   H18   S    
C6    O17   A    
H7    O3    S    
C7    C15   S    
H8    O6    S    
C17   C21   A    
C5    O15   A    
C10   H16   S    
O4    S2    D    
C4    N2    A    
C2    N1    A    
C12   H2    S    
Cu1   Cu2   S    
C8    S1    S    
Cu2   O19   S    
C3    N1    A    
C18   H5    S    
O5    S2    D    
C12   C13   S    
C6    O16   A    
Cu1   O18   S    
