data_mof_unit_47244.cif
_audit_creation_date              2012-12-11T15:08:40-0500
_audit_creation_method            fapswitch 2.2
_symmetry_space_group_name_H-M    P1
_symmetry_Int_Tables_number       1
_space_group_crystal_system       triclinic
_cell_length_a                    19.400497
_cell_length_b                    11.34609
_cell_length_c                    18.698202
_cell_angle_alpha                 89.990983
_cell_angle_beta                  90.137558
_cell_angle_gamma                 89.913338
_cell_volume                      4115.82758094

loop_
_atom_site_label
_atom_site_type_symbol
_atom_type_description
_atom_site_fract_x
_atom_site_fract_y
_atom_site_fract_z
_atom_type_partial_charge
C1    C     C_R   0.272394 0.043450 0.854080 0.530796
C2    C     C_R   0.727604 0.043488 0.145910 0.532096
C3    C     C_R   0.772394 0.543450 0.854080 0.530796
C4    C     C_R   0.227604 0.543488 0.145910 0.532096
C5    C     C_3   0.520066 0.722838 0.964614 -0.112731
C6    C     C_3   0.480154 0.722772 0.035358 -0.112562
C7    C     C_3   0.020066 0.222838 0.964614 -0.112730
C8    C     C_3   0.980156 0.222772 0.035359 -0.112560
C9    C     C_3   0.311982 0.528197 0.043713 -0.235572
C10   C     C_3   0.688040 0.528487 0.956296 -0.235622
C11   C     C_3   0.811983 0.028197 0.043714 -0.235572
C12   C     C_3   0.188040 0.028487 0.956295 -0.235622
C13   C     C_3   0.321459 0.553368 0.963365 -0.234391
C14   C     C_3   0.678572 0.553697 0.036642 -0.234341
C15   C     C_3   0.821460 0.053370 0.963365 -0.234391
C16   C     C_3   0.178572 0.053699 0.036642 -0.234341
C17   C     C_3   0.179845 0.523565 0.025819 -0.208421
C18   C     C_3   0.820141 0.523277 0.974169 -0.208250
C19   C     C_3   0.679845 0.023565 0.025819 -0.208421
C20   C     C_3   0.320141 0.023277 0.974169 -0.208251
C21   C     C_3   0.240702 0.707116 0.056621 -0.257269
C22   C     C_3   0.759257 0.707114 0.943353 -0.257155
C23   C     C_3   0.740702 0.207116 0.056622 -0.257269
C24   C     C_3   0.259257 0.207114 0.943353 -0.257154
C25   C     C_3   0.241121 0.574560 0.070229 0.064950
C26   C     C_3   0.758866 0.574560 0.929762 0.065252
C27   C     C_3   0.741121 0.074560 0.070229 0.064950
C28   C     C_3   0.258866 0.074561 0.929762 0.065252
C29   C     C_3   0.255061 0.610030 0.932193 0.056126
C30   C     C_3   0.744950 0.610107 0.067802 0.055600
C31   C     C_3   0.755062 0.110030 0.932193 0.056125
C32   C     C_3   0.244950 0.110107 0.067802 0.055600
C33   C     C_3   0.195058 0.524924 0.944993 -0.254091
C34   C     C_3   0.804960 0.524737 0.055007 -0.253988
C35   C     C_3   0.695058 0.024924 0.944993 -0.254091
C36   C     C_3   0.304960 0.024737 0.055007 -0.253987
C37   C     C_3   0.238647 0.725146 0.974684 -0.222032
C38   C     C_3   0.761335 0.725141 0.025285 -0.222174
C39   C     C_3   0.738648 0.225146 0.974684 -0.222033
C40   C     C_3   0.261335 0.225141 0.025285 -0.222175
C41   C     C_3   0.506114 0.699173 0.461540 -0.224213
C42   C     C_3   0.504864 0.699493 0.541651 -0.234116
C43   C     C_3   0.006114 0.199173 0.461540 -0.224213
C44   C     C_3   0.004863 0.199493 0.541651 -0.234116
C45   C     C_R   0.444505 0.817129 0.862282 0.536128
C46   C     C_R   0.555458 0.817095 0.137717 0.536029
C47   C     C_R   0.944505 0.317129 0.862282 0.536126
C48   C     C_R   0.055458 0.317095 0.137718 0.536037
C49   C     C_3   0.561268 0.908157 0.472989 -0.216063
C50   C     C_3   0.430682 0.881997 0.526912 -0.224460
C51   C     C_3   0.061267 0.408156 0.472989 -0.216063
C52   C     C_3   0.930682 0.381998 0.526912 -0.224460
C53   C     C_3   0.439518 0.879602 0.444534 -0.266917
C54   C     C_3   0.553926 0.899533 0.554942 -0.259250
C55   C     C_3   0.939518 0.379602 0.444534 -0.266917
C56   C     C_3   0.053925 0.399533 0.554942 -0.259251
C57   C     C_3   0.510250 0.827075 0.431025 0.062579
C58   C     C_3   0.490632 0.826213 0.569727 0.056243
C59   C     C_3   0.010250 0.327075 0.431025 0.062579
C60   C     C_3   0.990631 0.326213 0.569727 0.056243
C61   C     C_3   0.175922 0.632607 0.462540 -0.252722
C62   C     C_3   0.816234 0.657798 0.542630 -0.252461
C63   C     C_3   0.675922 0.132608 0.462540 -0.252723
C64   C     C_3   0.316234 0.157798 0.542630 -0.252460
C65   C     C_3   0.178834 0.637604 0.542383 -0.276087
C66   C     C_3   0.814204 0.664294 0.462859 -0.262539
C67   C     C_3   0.678834 0.137605 0.542383 -0.276087
C68   C     C_3   0.314204 0.164293 0.462859 -0.262533
C69   C     C_3   0.258649 0.453748 0.472662 -0.151189
C70   C     C_3   0.757400 0.460535 0.526858 -0.146920
C71   C     C_3   0.758649 0.953749 0.472662 -0.151187
C72   C     C_3   0.257401 0.960534 0.526858 -0.146910
C73   C     C_3   0.300082 0.650597 0.442131 -0.269056
C74   C     C_3   0.690429 0.636525 0.558074 -0.273418
C75   C     C_3   0.800082 0.150598 0.442131 -0.269055
C76   C     C_3   0.190429 0.136524 0.558074 -0.273415
C77   C     C_3   0.239679 0.568710 0.430929 0.023514
C78   C     C_3   0.758641 0.575740 0.570763 0.019181
C79   C     C_3   0.739679 0.068711 0.430929 0.023514
C80   C     C_3   0.258641 0.075740 0.570763 0.019181
C81   C     C_3   0.251856 0.602392 0.568651 0.092203
C82   C     C_3   0.746589 0.609018 0.432970 0.089153
C83   C     C_3   0.751856 0.102392 0.568651 0.092203
C84   C     C_3   0.246589 0.109017 0.432970 0.089138
C85   C     C_3   0.262759 0.471684 0.554794 0.087357
C86   C     C_3   0.754161 0.477202 0.444701 0.082400
C87   C     C_3   0.762759 0.971685 0.554794 0.087357
C88   C     C_3   0.254161 0.977200 0.444701 0.082386
C89   C     C_R   0.262122 0.641921 0.855005 0.532368
C90   C     C_R   0.737879 0.642022 0.144992 0.533024
C91   C     C_R   0.762122 0.141922 0.855005 0.532369
C92   C     C_R   0.237879 0.142023 0.144992 0.533024
C93   C     C_3   0.306316 0.667927 0.523637 -0.195679
C94   C     C_3   0.681125 0.647287 0.476321 -0.206298
C95   C     C_3   0.806316 0.167928 0.523637 -0.195678
C96   C     C_3   0.181125 0.147285 0.476321 -0.206299
C97   C     C_R   0.272533 0.044856 0.646487 0.532991
C98   C     C_R   0.726306 0.041476 0.354892 0.537057
C99   C     C_R   0.772533 0.544856 0.646487 0.532993
C100  C     C_R   0.226306 0.541476 0.354892 0.537062
C101  C     C_R   0.469753 0.822550 0.646161 0.538260
C102  C     C_R   0.531212 0.822714 0.354582 0.540401
C103  C     C_R   0.969753 0.322550 0.646161 0.538260
C104  C     C_R   0.031212 0.322715 0.354582 0.540402
C105  C     C_R   0.260444 0.638674 0.644332 0.536109
C106  C     C_R   0.738528 0.642581 0.357058 0.542487
C107  C     C_R   0.760444 0.138674 0.644332 0.536110
C108  C     C_R   0.238528 0.142581 0.357058 0.542467
C109  C     C_3   0.479443 0.915533 0.035611 -0.109512
C110  C     C_3   0.520323 0.915600 0.964394 -0.109479
C111  C     C_3   0.979445 0.415533 0.035611 -0.109511
C112  C     C_3   0.020323 0.415599 0.964394 -0.109479
C113  C     C_3   0.431433 0.818073 0.006276 -0.158631
C114  C     C_3   0.568562 0.818222 0.993719 -0.158793
C115  C     C_3   0.931433 0.318074 0.006278 -0.158631
C116  C     C_3   0.068564 0.318222 0.993718 -0.158791
C117  C     C_3   0.472279 0.819767 0.935910 0.057658
C118  C     C_3   0.527709 0.819788 0.064081 0.057461
C119  C     C_3   0.972279 0.319767 0.935911 0.057656
C120  C     C_3   0.027711 0.319788 0.064081 0.057460
Cr1   Cr    Cr6+3 0.229620 0.836040 0.749110 0.993495
Cr2   Cr    Cr6+3 0.770380 0.836040 0.250890 0.993645
Cr3   Cr    Cr6+3 0.729620 0.336040 0.749110 0.993495
Cr4   Cr    Cr6+3 0.270380 0.336040 0.250890 0.993647
Cr5   Cr    Cr6+3 0.387630 0.990680 0.750730 0.999307
Cr6   Cr    Cr6+3 0.612370 0.990680 0.249270 1.002056
Cr7   Cr    Cr6+3 0.887630 0.490680 0.750730 0.999307
Cr8   Cr    Cr6+3 0.112370 0.490680 0.249270 1.002055
Cr9   Cr    Cr6+3 0.386020 0.676590 0.749210 1.005701
Cr10  Cr    Cr6+3 0.613980 0.676590 0.250790 1.006791
Cr11  Cr    Cr6+3 0.886020 0.176590 0.749210 1.005701
Cr12  Cr    Cr6+3 0.113980 0.176590 0.250790 1.006780
H1    H     H_    0.376566 0.804894 0.017096 0.091916
H2    H     H_    0.623470 0.805321 0.982922 0.091992
H3    H     H_    0.876566 0.304897 0.017100 0.091916
H4    H     H_    0.123472 0.305322 0.982918 0.091991
H5    H     H_    0.195168 0.750525 0.081418 0.127605
H6    H     H_    0.804770 0.750334 0.918538 0.127304
H7    H     H_    0.695168 0.250524 0.081418 0.127606
H8    H     H_    0.304771 0.250333 0.918538 0.127304
H9    H     H_    0.287249 0.746089 0.081248 0.103572
H10   H     H_    0.712696 0.746274 0.918721 0.103377
H11   H     H_    0.787249 0.246089 0.081248 0.103571
H12   H     H_    0.212696 0.246275 0.918720 0.103376
H13   H     H_    0.273709 0.794422 0.958495 0.108131
H14   H     H_    0.726287 0.794604 0.041480 0.108031
H15   H     H_    0.773710 0.294422 0.958496 0.108131
H16   H     H_    0.226287 0.294605 0.041480 0.108031
H17   H     H_    0.185286 0.751803 0.960501 0.131109
H18   H     H_    0.814699 0.751532 0.039441 0.131102
H19   H     H_    0.685286 0.251803 0.960501 0.131110
H20   H     H_    0.314699 0.251532 0.039441 0.131102
H21   H     H_    0.632828 0.078187 0.034794 0.137745
H22   H     H_    0.367169 0.077614 0.965150 0.137895
H23   H     H_    0.132828 0.578188 0.034795 0.137745
H24   H     H_    0.867169 0.577615 0.965150 0.137895
H25   H     H_    0.148468 0.553930 0.915102 0.124534
H26   H     H_    0.851528 0.553596 0.084882 0.124639
H27   H     H_    0.648469 0.053929 0.915101 0.124534
H28   H     H_    0.351527 0.053595 0.084883 0.124640
H29   H     H_    0.546364 0.640187 0.443387 0.144746
H30   H     H_    0.466840 0.632375 0.558308 0.160534
H31   H     H_    0.046365 0.140188 0.443387 0.144745
H32   H     H_    0.966840 0.132375 0.558308 0.160534
H33   H     H_    0.458875 0.655322 0.441205 0.119160
H34   H     H_    0.554197 0.668338 0.563400 0.118158
H35   H     H_    0.958875 0.155321 0.441205 0.119159
H36   H     H_    0.054197 0.168338 0.563400 0.118158
H37   H     H_    0.614690 0.898208 0.455701 0.109826
H38   H     H_    0.389166 0.826719 0.541278 0.106211
H39   H     H_    0.114689 0.398208 0.455701 0.109826
H40   H     H_    0.889165 0.326720 0.541279 0.106211
H41   H     H_    0.600554 0.860047 0.579595 0.099775
H42   H     H_    0.398973 0.825945 0.418471 0.101753
H43   H     H_    0.100554 0.360047 0.579595 0.099775
H44   H     H_    0.898973 0.325945 0.418471 0.101753
H45   H     H_    0.464339 0.995923 0.065380 0.113781
H46   H     H_    0.535339 0.996015 0.934652 0.113766
H47   H     H_    0.964341 0.495923 0.065381 0.113782
H48   H     H_    0.035340 0.496015 0.934652 0.113766
H49   H     H_    0.435721 0.969707 0.421724 0.110436
H50   H     H_    0.545620 0.988199 0.578616 0.120827
H51   H     H_    0.935721 0.469707 0.421724 0.110436
H52   H     H_    0.045620 0.488199 0.578616 0.120827
H53   H     H_    0.422067 0.973158 0.544824 0.131611
H54   H     H_    0.544588 0.998514 0.459303 0.126685
H55   H     H_    0.922067 0.473158 0.544824 0.131611
H56   H     H_    0.044588 0.498514 0.459303 0.126685
H57   H     H_    0.127446 0.596640 0.445465 0.137031
H58   H     H_    0.869275 0.633522 0.558388 0.147909
H59   H     H_    0.627445 0.096643 0.445464 0.137034
H60   H     H_    0.369275 0.133522 0.558388 0.147909
H61   H     H_    0.173010 0.722696 0.441068 0.205640
H62   H     H_    0.807574 0.744476 0.565749 0.187431
H63   H     H_    0.673011 0.222698 0.441069 0.205625
H64   H     H_    0.307573 0.244476 0.565748 0.187431
H65   H     H_    0.162995 0.728196 0.557572 0.158454
H66   H     H_    0.822476 0.754922 0.446851 0.156544
H67   H     H_    0.662995 0.228196 0.557573 0.158453
H68   H     H_    0.322475 0.254922 0.446851 0.156545
H69   H     H_    0.140917 0.578117 0.566544 0.109599
H70   H     H_    0.859707 0.617691 0.440553 0.106397
H71   H     H_    0.640917 0.078117 0.566544 0.109599
H72   H     H_    0.359707 0.117691 0.440553 0.106396
H73   H     H_    0.724434 0.881222 0.458887 0.076931
H74   H     H_    0.306821 0.927501 0.539424 0.071575
H75   H     H_    0.224434 0.381221 0.458887 0.076932
H76   H     H_    0.806820 0.427501 0.539423 0.071576
H77   H     H_    0.721768 0.919318 0.581540 0.078888
H78   H     H_    0.302618 0.944655 0.419825 0.089724
H79   H     H_    0.221768 0.419317 0.581540 0.078887
H80   H     H_    0.802618 0.444656 0.419825 0.089703
H81   H     H_    0.347963 0.611749 0.419830 0.114795
H82   H     H_    0.649361 0.580978 0.581874 0.125091
H83   H     H_    0.847963 0.111749 0.419830 0.114797
H84   H     H_    0.149361 0.080976 0.581873 0.125091
H85   H     H_    0.291321 0.735581 0.414202 0.125862
H86   H     H_    0.689119 0.724035 0.584254 0.101388
H87   H     H_    0.791321 0.235581 0.414202 0.125838
H88   H     H_    0.189118 0.224033 0.584253 0.101387
H89   H     H_    0.535438 0.641963 0.935463 0.122533
H90   H     H_    0.464871 0.641860 0.064471 0.122667
H91   H     H_    0.035438 0.141962 0.935463 0.122533
H92   H     H_    0.964872 0.141860 0.064471 0.122667
H93   H     H_    0.294222 0.756531 0.534328 0.097027
H94   H     H_    0.661313 0.733010 0.460612 0.095896
H95   H     H_    0.794222 0.256532 0.534328 0.097025
H96   H     H_    0.161313 0.233008 0.460611 0.095900
H97   H     H_    0.358581 0.644112 0.541463 0.174316
H98   H     H_    0.641179 0.582817 0.462663 0.189255
H99   H     H_    0.858581 0.144112 0.541463 0.174316
H100  H     H_    0.141179 0.082814 0.462663 0.189251
H101  H     H_    0.310926 0.430368 0.453991 0.169829
H102  H     H_    0.715704 0.401409 0.545487 0.165219
H103  H     H_    0.810926 0.930369 0.453991 0.169829
H104  H     H_    0.215706 0.901408 0.545488 0.165223
H105  H     H_    0.317495 0.433874 0.053978 0.131040
H106  H     H_    0.682565 0.434188 0.946053 0.131024
H107  H     H_    0.817495 0.933874 0.053978 0.131040
H108  H     H_    0.182565 0.934189 0.946053 0.131023
H109  H     H_    0.353946 0.571034 0.074642 0.110454
H110  H     H_    0.646079 0.571485 0.925347 0.110339
H111  H     H_    0.853947 0.071035 0.074642 0.110454
H112  H     H_    0.146079 0.071486 0.925347 0.110339
H113  H     H_    0.365989 0.613269 0.955671 0.136608
H114  H     H_    0.634016 0.613742 0.044349 0.136633
H115  H     H_    0.865989 0.113271 0.955672 0.136608
H116  H     H_    0.134016 0.113744 0.044348 0.136634
H117  H     H_    0.333501 0.469842 0.934817 0.117371
H118  H     H_    0.666576 0.470210 0.065203 0.117880
H119  H     H_    0.833502 0.969844 0.934817 0.117371
H120  H     H_    0.166575 0.970212 0.065203 0.117880
H121  H     H_    0.665089 0.938198 0.046828 0.099931
H122  H     H_    0.334811 0.937812 0.953168 0.099980
H123  H     H_    0.165088 0.438198 0.046829 0.099933
H124  H     H_    0.834812 0.437812 0.953167 0.099980
H125  H     H_    0.708768 0.936350 0.925602 0.110484
H126  H     H_    0.291293 0.936221 0.074441 0.110694
H127  H     H_    0.208767 0.436350 0.925602 0.110483
H128  H     H_    0.791294 0.436221 0.074441 0.110693
O1    O     O_R   0.214130 0.708570 0.829890 -0.528152
O2    O     O_R   0.785870 0.708570 0.170110 -0.527727
O3    O     O_R   0.714130 0.208570 0.829890 -0.528152
O4    O     O_R   0.285870 0.208570 0.170110 -0.527726
O5    O     O_R   0.446360 0.919990 0.675230 -0.507032
O6    O     O_R   0.553640 0.919990 0.324770 -0.507279
O7    O     O_R   0.946360 0.419990 0.675230 -0.507032
O8    O     O_R   0.053640 0.419990 0.324770 -0.507280
O9    O     O_R   0.457170 0.717300 0.668380 -0.524176
O10   O     O_R   0.542830 0.717300 0.331620 -0.526516
O11   O     O_R   0.957170 0.217300 0.668380 -0.524176
O12   O     O_R   0.042830 0.217300 0.331620 -0.526516
O13   O     O_R   0.320870 0.624890 0.673130 -0.487613
O14   O     O_R   0.679130 0.624890 0.326870 -0.489174
O15   O     O_R   0.820870 0.124890 0.673130 -0.487614
O16   O     O_R   0.179130 0.124890 0.326870 -0.489197
O17   O     O_3   0.334430 0.834430 0.749680 -0.285871
O18   O     O_3   0.665570 0.834430 0.250320 -0.288855
O19   O     O_3   0.834430 0.334430 0.749680 -0.285872
O20   O     O_3   0.165570 0.334430 0.250320 -0.288853
O21   O     O_R   0.236050 0.959150 0.825270 -0.513929
O22   O     O_R   0.763950 0.959150 0.174730 -0.513478
O23   O     O_R   0.736050 0.459150 0.825270 -0.513929
O24   O     O_R   0.263950 0.459150 0.174730 -0.513478
O25   O     O_R   0.332100 0.076650 0.832310 -0.532973
O26   O     O_R   0.667900 0.076650 0.167690 -0.531986
O27   O     O_R   0.832100 0.576650 0.832310 -0.532973
O28   O     O_R   0.167900 0.576650 0.167690 -0.531986
O29   O     O_R   0.446500 0.918620 0.826240 -0.504670
O30   O     O_R   0.553500 0.918620 0.173760 -0.504545
O31   O     O_R   0.946500 0.418620 0.826240 -0.504670
O32   O     O_R   0.053500 0.418620 0.173760 -0.504549
O33   O     O_R   0.457310 0.715830 0.831280 -0.524737
O34   O     O_R   0.542690 0.715830 0.168720 -0.524080
O35   O     O_R   0.957310 0.215830 0.831280 -0.524737
O36   O     O_R   0.042690 0.215830 0.168720 -0.524083
O37   O     O_R   0.321000 0.623520 0.824130 -0.521697
O38   O     O_R   0.679000 0.623520 0.175870 -0.519942
O39   O     O_R   0.821000 0.123520 0.824130 -0.521697
O40   O     O_R   0.179000 0.123520 0.175870 -0.519943
O41   O     O_R   0.213990 0.710040 0.667000 -0.542193
O42   O     O_R   0.786010 0.710040 0.333000 -0.542674
O43   O     O_R   0.713990 0.210040 0.667000 -0.542192
O44   O     O_R   0.286010 0.210040 0.333000 -0.542667
O45   O     O_R   0.235920 0.960520 0.674260 -0.512636
O46   O     O_R   0.764080 0.960520 0.325740 -0.514853
O47   O     O_R   0.735920 0.460520 0.674260 -0.512636
O48   O     O_R   0.264080 0.460520 0.325740 -0.514853
O49   O     O_R   0.331960 0.078120 0.669410 -0.530642
O50   O     O_R   0.668040 0.078120 0.330590 -0.526900
O51   O     O_R   0.831960 0.578120 0.669410 -0.530642
O52   O     O_R   0.168040 0.578120 0.330590 -0.526898
O53   O     O_3   0.328446 0.438462 0.580051 -0.738815
H129  H     H_    0.322867 0.413342 0.630596 0.329143
O54   O     O_3   0.697916 0.416154 0.415419 -0.754695
H130  H     H_    0.709212 0.398922 0.364711 0.328079
O55   O     O_3   0.828446 0.938462 0.580051 -0.738815
H131  H     H_    0.822867 0.913342 0.630596 0.329143
O56   O     O_3   0.197917 0.916149 0.415421 -0.754736
H132  H     H_    0.209199 0.898958 0.364709 0.328114

loop_
_geom_bond_atom_site_label_1
_geom_bond_atom_site_label_2
_ccdc_geom_bond_type
C82   C94   S    
C55   C59   S    
C35   H125  S    
C83   C87   S    
C73   C93   S    
C47   O31   A    
C42   C58   S    
C29   C89   S    
C16   H120  S    
C89   O37   A    
C48   C120  S    
C24   H8    S    
C57   C102  S    
Cr6   O18   S    
Cr7   O7    S    
C59   C104  S    
Cr1   O17   S    
Cr9   O33   S    
C5    C6    S    
Cr10  O10   S    
Cr3   O19   S    
Cr4   O4    S    
Cr12  O16   S    
C29   C33   S    
C30   C38   S    
C77   C100  S    
C44   H36   S    
C9    C13   S    
C11   C15   S    
C49   H54   S    
C12   C16   S    
C98   O50   A    
C88   O56   S    
C99   O47   A    
C52   H55   S    
C21   H5    S    
C60   C103  S    
C107  O15   A    
C83   C107  S    
C88   H78   S    
C74   H82   S    
C111  H47   S    
C23   H11   S    
C64   H60   S    
C109  C118  S    
C16   H116  S    
Cr5   O25   S    
C50   C53   S    
C75   C95   S    
C7    C119  S    
Cr8   O28   S    
C62   H58   S    
C62   C66   S    
Cr2   O2    S    
C72   H74   S    
C20   C28   S    
C18   H124  S    
Cr12  O36   S    
C43   C44   S    
C66   C82   S    
C7    H91   S    
C75   H87   S    
C58   C101  S    
C105  O41   A    
C92   O4    A    
C107  O43   A    
C14   H118  S    
C108  O44   A    
C19   H21   S    
C89   O1    A    
C62   H62   S    
Cr5   O49   S    
C17   H23   S    
C32   C40   S    
C91   O3    A    
Cr1   O45   S    
Cr5   O5    S    
Cr2   O42   S    
C3    C26   S    
C34   H128  S    
C95   H99   S    
Cr12  O12   S    
C22   H10   S    
C110  H46   S    
C85   H79   S    
C13   H117  S    
Cr10  O34   S    
C17   C25   S    
C19   C35   S    
C76   C96   S    
C1    O21   A    
C32   C92   S    
C75   H83   S    
C95   H95   S    
C67   H71   S    
C21   H9    S    
C61   C65   S    
C12   H108  S    
C78   C99   S    
C45   O29   A    
C76   H88   S    
C75   C79   S    
Cr5   O29   S    
C6    H90   S    
C22   C38   S    
C67   C83   S    
C80   C97   S    
C68   H72   S    
C11   H111  S    
C69   C77   S    
C111  C112  S    
C9    H109  S    
C52   H40   S    
C71   C79   S    
C4    C25   S    
Cr4   O20   S    
C7    C8    S    
Cr10  O38   S    
C96   H96   S    
C24   H12   S    
C100  O52   A    
C39   H19   S    
C49   C57   S    
C40   H20   S    
Cr9   O37   S    
C69   H101  S    
C38   H14   S    
C51   H56   S    
C52   C60   S    
C19   H121  S    
C61   C77   S    
C12   H112  S    
C71   H103  S    
C47   O35   A    
C110  C114  S    
C48   O36   A    
C43   C59   S    
C112  H48   S    
C90   O38   A    
C74   H86   S    
Cr1   O21   S    
Cr2   O18   S    
Cr4   O24   S    
Cr12  O20   S    
C81   C105  S    
C30   C34   S    
Cr11  O35   S    
C10   C14   S    
C36   H126  S    
C101  O9    A    
C116  C120  S    
C103  O11   A    
C7    C116  S    
C93   H93   S    
C71   H73   S    
C33   H127  S    
C114  H2    S    
Cr11  O11   S    
C66   H66   S    
C113  C117  S    
C72   H104  S    
C31   C91   S    
Cr6   O26   S    
C9    H105  S    
Cr4   O48   S    
C61   H61   S    
C112  C116  S    
C69   C85   S    
C94   H98   S    
C45   C117  S    
C21   C25   S    
C73   C77   S    
Cr12  O40   S    
C62   C78   S    
C76   C80   S    
C42   H30   S    
C15   C31   S    
C43   H35   S    
C16   C32   S    
C97   O45   A    
C105  O13   A    
C106  O42   A    
C72   C80   S    
C84   C88   S    
C115  H3    S    
C64   H64   S    
C4    O24   A    
C82   C106  S    
C90   O2    A    
C55   H44   S    
Cr6   O50   S    
C66   H70   S    
Cr8   O32   S    
Cr2   O46   S    
Cr6   O6    S    
C113  H1    S    
C46   O34   A    
C61   H57   S    
Cr7   O19   S    
Cr8   O20   S    
C81   C85   S    
C13   H113  S    
C41   H29   S    
C64   C80   S    
C41   C42   S    
C74   C94   S    
Cr9   O13   S    
C18   C26   S    
C30   C90   S    
Cr11  O39   S    
C1    O25   A    
C9    C25   S    
C2    O22   A    
C3    O27   A    
C12   C28   S    
C13   C29   S    
C86   H80   S    
C67   H67   S    
C85   O53   S    
C98   O46   A    
C46   C118  S    
Cr6   O30   S    
C106  O14   A    
C1    C28   S    
C2    C27   S    
Cr10  O14   S    
Cr11  O19   S    
C8    H92   S    
C52   C55   S    
C32   C36   S    
O54   H130  S    
C87   H77   S    
C73   H81   S    
C17   C33   S    
C110  C117  S    
C38   H18   S    
C33   H25   S    
C69   H75   S    
C40   H16   S    
C68   C84   S    
C24   C28   S    
C86   O54   S    
C53   C57   S    
C82   C86   S    
C56   C60   S    
C115  C119  S    
C50   C58   S    
C104  O12   A    
C48   O32   A    
Cr7   O27   S    
C76   H84   S    
C65   C81   S    
C91   O39   A    
C87   O55   S    
Cr8   O8    S    
C50   H38   S    
C20   H122  S    
Cr2   O22   S    
C71   C87   S    
C15   H115  S    
C31   C35   S    
C64   C68   S    
C101  O5    A    
C102  O10   A    
C37   H17   S    
C108  O16   A    
C112  C119  S    
C116  H4    S    
C56   H52   S    
C22   H6    S    
C41   C57   S    
C109  C110  S    
C49   H37   S    
O53   H129  S    
Cr5   O17   S    
C44   C60   S    
C63   H59   S    
C84   C108  S    
C94   H94   S    
O56   H132  S    
C20   C36   S    
C109  H45   S    
C21   C37   S    
C22   C26   S    
C29   C37   S    
C55   H51   S    
C44   H32   S    
C70   H76   S    
C42   H34   S    
C43   H31   S    
C5    H89   S    
C97   O49   A    
C5    C114  S    
C70   C78   S    
C79   C98   S    
C99   O51   A    
C10   H110  S    
C63   C79   S    
C4    O28   A    
C20   H22   S    
C92   O40   A    
C54   H41   S    
C23   H7    S    
C70   H102  S    
C11   H107  S    
C49   C54   S    
Cr3   O47   S    
C51   C56   S    
C46   O30   A    
C8    C115  S    
Cr1   O1    S    
Cr3   O3    S    
C41   H33   S    
C54   H50   S    
Cr9   O17   S    
C11   C27   S    
C19   C27   S    
C74   C78   S    
C109  C113  S    
C2    O26   A    
C10   C26   S    
C47   C119  S    
C14   C30   S    
C72   C88   S    
C53   H42   S    
C63   C67   S    
C56   H43   S    
Cr7   O31   S    
Cr1   O41   S    
C5    C117  S    
C111  C120  S    
Cr10  O18   S    
Cr3   O43   S    
C6    C113  S    
Cr11  O15   S    
Cr4   O44   S    
C53   H49   S    
C81   C93   S    
C83   C95   S    
C73   H85   S    
C18   C34   S    
C114  C118  S    
C65   H65   S    
C34   H26   S    
C10   H106  S    
C23   C27   S    
C51   C59   S    
C70   C86   S    
C84   C96   S    
C8    C120  S    
C54   C58   S    
C93   H97   S    
C17   H123  S    
C45   O33   A    
C104  O8    A    
C18   H24   S    
Cr7   O51   S    
Cr8   O52   S    
C68   H68   S    
C51   H39   S    
Cr3   O23   S    
C15   H119  S    
C23   C39   S    
C3    O23   A    
C24   C40   S    
C31   C39   S    
C63   H63   S    
C96   H100  S    
O55   H131  S    
C35   H27   S    
Cr9   O9    S    
C36   H28   S    
C103  O7    A    
C100  O48   A    
C65   H69   S    
C102  O6    A    
C39   H15   S    
C111  C115  S    
C37   H13   S    
C50   H53   S    
C6    C118  S    
C14   H114  S    
