data_mof_unit_31493.cif
_audit_creation_date              2012-12-10T18:09:30-0500
_audit_creation_method            fapswitch 2.2
_symmetry_space_group_name_H-M    P1
_symmetry_Int_Tables_number       1
_space_group_crystal_system       triclinic
_cell_length_a                    14.949302
_cell_length_b                    15.634321
_cell_length_c                    9.560834
_cell_angle_alpha                 91.047345
_cell_angle_beta                  88.432337
_cell_angle_gamma                 90.569982
_cell_volume                      2233.26968027

loop_
_atom_site_label
_atom_site_type_symbol
_atom_type_description
_atom_site_fract_x
_atom_site_fract_y
_atom_site_fract_z
_atom_type_partial_charge
C1    C     C_R   0.119995 0.380810 0.497753 0.755847
C2    C     C_R   0.123251 0.616286 0.499061 0.774942
C3    C     C_R   0.620004 0.880818 0.497756 0.755824
C4    C     C_R   0.623293 0.116241 0.499061 0.774812
C5    C     C_3   0.070273 0.441245 0.079320 -0.438762
C6    C     C_3   0.065655 0.436557 0.912277 -0.440083
C7    C     C_3   0.570314 0.941286 0.079314 -0.438654
C8    C     C_3   0.565619 0.936525 0.912282 -0.440079
C9    C     C_R   0.880628 0.379293 0.500138 0.844973
C10   C     C_R   0.877375 0.618451 0.501878 0.897494
C11   C     C_R   0.380608 0.879312 0.500137 0.845041
C12   C     C_R   0.377384 0.118461 0.501876 0.897343
C13   C     C_3   0.838961 0.236809 0.600270 -0.420813
C14   C     C_3   0.807192 0.266457 0.350922 -0.404848
C15   C     C_3   0.853183 0.777439 0.501293 -0.387382
C16   C     C_3   0.749933 0.681380 0.367725 -0.327521
C17   C     C_3   0.339119 0.736675 0.599777 -0.421010
C18   C     C_3   0.306852 0.766758 0.350772 -0.404323
C19   C     C_3   0.353193 0.277449 0.501094 -0.387400
C20   C     C_3   0.249875 0.181322 0.367779 -0.327513
C21   C     C_3   0.265998 0.666216 0.604668 -0.367247
C22   C     C_3   0.238357 0.692731 0.350306 -0.379949
C23   C     C_3   0.282292 0.349068 0.515359 -0.371863
C24   C     C_3   0.187335 0.258835 0.355797 -0.400059
C25   C     C_3   0.765677 0.166513 0.605503 -0.366866
C26   C     C_3   0.738934 0.192213 0.350580 -0.380308
C27   C     C_3   0.782286 0.849060 0.515558 -0.371945
C28   C     C_3   0.687422 0.758912 0.355739 -0.400024
C29   C     C_3   0.716589 0.342769 0.544681 0.677685
C30   C     C_3   0.738487 0.686190 0.633439 0.709537
C31   C     C_3   0.216643 0.842750 0.545289 0.677632
C32   C     C_3   0.238568 0.186266 0.633517 0.709567
C33   C     C_3   0.811981 0.308767 0.499743 -0.003507
C34   C     C_3   0.806472 0.688155 0.503427 -0.073579
C35   C     C_3   0.311943 0.808805 0.499739 -0.003596
C36   C     C_3   0.306483 0.188165 0.503413 -0.073529
C37   C     C_3   0.192643 0.684414 0.497389 0.043049
C38   C     C_3   0.186875 0.311369 0.494616 0.047103
C39   C     C_3   0.692695 0.184361 0.497395 0.043589
C40   C     C_3   0.686884 0.811377 0.494630 0.047106
C41   C     C_3   0.146612 0.769618 0.535642 -0.395115
C42   C     C_3   0.161686 0.248780 0.612320 -0.426437
C43   C     C_3   0.646532 0.269686 0.534497 -0.395561
C44   C     C_3   0.661633 0.748741 0.612237 -0.426447
C45   C     C_3   0.024293 0.586104 0.083313 0.334942
C46   C     C_3   0.033321 0.583315 0.918488 0.375742
C47   C     C_3   0.915380 0.466806 0.085714 0.351854
C48   C     C_3   0.913442 0.473485 0.921497 0.351209
C49   C     C_3   0.524213 0.086127 0.083305 0.334817
C50   C     C_3   0.533373 0.083302 0.918489 0.375998
C51   C     C_3   0.415400 0.966744 0.085719 0.351887
C52   C     C_3   0.413416 0.973561 0.921521 0.351039
Cu1   Cu    Cu3+1 0.000100 0.500000 0.642410 1.026336
Cu2   Cu    Cu3+1 0.000100 0.500000 0.357590 0.996050
Cu3   Cu    Cu3+1 0.500100 0.000000 0.642410 1.026380
Cu4   Cu    Cu3+1 0.500100 0.000000 0.357590 0.995963
H1    H     H_    0.849640 0.262474 0.707813 0.208669
H2    H     H_    0.787879 0.314034 0.272397 0.242957
H3    H     H_    0.901986 0.784260 0.586573 0.231619
H4    H     H_    0.709476 0.621384 0.368078 0.258711
H5    H     H_    0.349781 0.762143 0.707440 0.208647
H6    H     H_    0.287616 0.814504 0.272485 0.243319
H7    H     H_    0.402044 0.284313 0.586304 0.231547
H8    H     H_    0.209447 0.121304 0.368199 0.258641
H9    H     H_    0.903600 0.208311 0.563538 0.176488
H10   H     H_    0.874149 0.241871 0.317000 0.173169
H11   H     H_    0.892138 0.784859 0.401314 0.221494
H12   H     H_    0.793207 0.679360 0.272294 0.286063
H13   H     H_    0.403809 0.708385 0.562824 0.176383
H14   H     H_    0.373693 0.742024 0.316573 0.173214
H15   H     H_    0.392100 0.284825 0.401060 0.221500
H16   H     H_    0.293118 0.179295 0.272299 0.286062
H17   H     H_    0.296729 0.602806 0.581371 0.167128
H18   H     H_    0.272391 0.631907 0.319887 0.174845
H19   H     H_    0.297433 0.398955 0.436365 0.169013
H20   H     H_    0.211012 0.299714 0.267814 0.215792
H21   H     H_    0.796340 0.102932 0.583267 0.166845
H22   H     H_    0.773275 0.131361 0.321169 0.174937
H23   H     H_    0.797476 0.898990 0.436654 0.168987
H24   H     H_    0.711170 0.799831 0.267841 0.215759
H25   H     H_    0.235882 0.664043 0.712337 0.201890
H26   H     H_    0.187797 0.705368 0.270061 0.209666
H27   H     H_    0.285900 0.380390 0.620537 0.205066
H28   H     H_    0.118607 0.235970 0.331605 0.180399
H29   H     H_    0.735208 0.164921 0.713016 0.202546
H30   H     H_    0.688674 0.204370 0.269630 0.208986
H31   H     H_    0.785835 0.880326 0.620788 0.205041
H32   H     H_    0.618704 0.736077 0.331398 0.180464
H33   H     H_    0.107899 0.763428 0.635934 0.227903
H34   H     H_    0.096120 0.783129 0.455571 0.188175
H35   H     H_    0.144388 0.282313 0.712800 0.201374
H36   H     H_    0.098688 0.214776 0.583630 0.169107
H37   H     H_    0.607174 0.263794 0.634295 0.227590
H38   H     H_    0.596565 0.283047 0.453505 0.188503
H39   H     H_    0.644314 0.782243 0.712731 0.201378
H40   H     H_    0.598637 0.714771 0.583454 0.169104
H41   H     H_    0.090882 0.606125 0.122019 0.073543
H42   H     H_    0.106263 0.590145 0.892814 0.051194
H43   H     H_    0.909681 0.397311 0.108971 0.057896
H44   H     H_    0.895156 0.408945 0.879839 0.095234
H45   H     H_    0.590740 0.106262 0.122130 0.073614
H46   H     H_    0.606340 0.090053 0.892946 0.050944
H47   H     H_    0.409800 0.897218 0.108819 0.057709
H48   H     H_    0.394995 0.909094 0.879731 0.095895
H49   H     H_    0.138408 0.462441 0.109980 0.188703
H50   H     H_    0.134015 0.447437 0.866659 0.210392
H51   H     H_    0.061428 0.375675 0.121159 0.204544
H52   H     H_    0.046318 0.370426 0.879216 0.190946
H53   H     H_    0.638444 0.962568 0.109880 0.188548
H54   H     H_    0.633974 0.947334 0.866593 0.210465
H55   H     H_    0.561558 0.875722 0.121224 0.204660
H56   H     H_    0.546206 0.870397 0.879310 0.190869
N1    N     N_3   0.001260 0.500000 0.143650 -0.228423
N2    N     N_3   0.001260 0.500000 0.856350 -0.238039
N3    N     N_3   0.501260 0.000000 0.143650 -0.228391
N4    N     N_3   0.501260 0.000000 0.856350 -0.238099
O1    O     O_R   0.091250 0.408820 0.620260 -0.612506
O2    O     O_R   0.091250 0.408820 0.379740 -0.607041
O3    O     O_R   0.091250 0.591180 0.620260 -0.570396
O4    O     O_R   0.091250 0.591180 0.379740 -0.591236
O5    O     O_R   0.591250 0.908820 0.620260 -0.612528
O6    O     O_R   0.591250 0.908820 0.379740 -0.607034
O7    O     O_R   0.591250 0.091180 0.620260 -0.570183
O8    O     O_R   0.591250 0.091180 0.379740 -0.591384
O9    O     O_R   0.908940 0.408800 0.620260 -0.564799
O10   O     O_R   0.908940 0.408800 0.379740 -0.564103
O11   O     O_R   0.908940 0.591200 0.620260 -0.459786
O12   O     O_R   0.908940 0.591200 0.379740 -0.500350
O13   O     O_R   0.408940 0.908800 0.620260 -0.564802
O14   O     O_R   0.408940 0.908800 0.379740 -0.564109
O15   O     O_R   0.408940 0.091200 0.620260 -0.459763
O16   O     O_R   0.408940 0.091200 0.379740 -0.500430
Cl1   Cl    Cl    0.713919 0.382280 0.721962 -0.480144
Cl2   Cl    Cl    0.683308 0.427615 0.434191 -0.523714
Cl3   Cl    Cl    0.789031 0.720823 0.793634 -0.460204
Cl4   Cl    Cl    0.687121 0.583915 0.655390 -0.441295
Cl5   Cl    Cl    0.214394 0.882339 0.722513 -0.480835
Cl6   Cl    Cl    0.183024 0.927535 0.434932 -0.523782
Cl7   Cl    Cl    0.289205 0.221046 0.793564 -0.460280
Cl8   Cl    Cl    0.187232 0.083992 0.655690 -0.441268
Cl9   Cl    Cl    0.953694 0.671809 0.143226 -0.495563
Cl10  Cl    Cl    0.992827 0.677226 0.837612 -0.448359
Cl11  Cl    Cl    0.816305 0.506583 0.173608 -0.450923
Cl12  Cl    Cl    0.825489 0.537707 0.870307 -0.294554
Cl13  Cl    Cl    0.453377 0.171723 0.142970 -0.495227
Cl14  Cl    Cl    0.493053 0.177253 0.837498 -0.448135
Cl15  Cl    Cl    0.316281 0.006326 0.173794 -0.451384
Cl16  Cl    Cl    0.325598 0.038062 0.870699 -0.294407

loop_
_geom_bond_atom_site_label_1
_geom_bond_atom_site_label_2
_ccdc_geom_bond_type
C16   C28   S    
C41   H33   S    
Cu3   Cu4   S    
Cu3   O5    S    
C17   H13   S    
C12   O15   A    
Cu2   O4    S    
C19   H15   S    
C13   C25   S    
C14   C33   S    
C7    C8    S    
C46   Cl10  S    
C5    H49   S    
C45   C46   S    
Cu2   O10   S    
C48   Cl12  S    
C26   H22   S    
C23   H27   S    
C22   H26   S    
C25   H21   S    
C32   C36   S    
C32   Cl8   S    
C27   H23   S    
C19   C36   S    
C8    H56   S    
C49   H45   S    
C5    C6    S    
Cu1   O1    S    
C26   C39   S    
C10   O12   A    
C13   H1    S    
Cu3   N4    S    
C28   C40   S    
C51   H47   S    
Cu2   N1    S    
C21   H17   S    
C43   H38   S    
C47   H43   S    
C4    O8    A    
C42   H35   S    
C16   H4    S    
C7    N3    S    
C49   C50   S    
C6    N2    S    
Cu1   O11   S    
C16   C34   S    
C20   C24   S    
C29   C33   S    
C19   H7    S    
Cu3   O13   S    
C28   H32   S    
C24   C38   S    
C16   H12   S    
C12   C36   S    
C12   O16   A    
C18   C35   S    
C15   C34   S    
C42   H36   S    
C3    O6    A    
C17   H5    S    
C50   Cl14  S    
C41   H34   S    
C46   H42   S    
C52   Cl16  S    
C29   C43   S    
C45   Cl9   S    
C30   C44   S    
C14   H2    S    
C11   O13   A    
C52   N4    S    
C6    H50   S    
C48   H44   S    
Cu3   O7    S    
C30   C34   S    
C51   C52   S    
C32   Cl7   S    
C46   N2    S    
C24   H20   S    
C13   H9    S    
Cu1   Cu2   S    
C22   C37   S    
Cu2   O12   S    
C9    O9    A    
C7    H53   S    
C4    O7    A    
Cu4   O6    S    
C20   H8    S    
C19   C23   S    
C13   C33   S    
C44   H40   S    
C8    H54   S    
C15   C27   S    
C47   C48   S    
C4    C39   S    
C51   Cl15  S    
C27   C40   S    
C26   H30   S    
C15   H11   S    
C25   H29   S    
C29   Cl1   S    
C14   H10   S    
C49   Cl13  S    
C10   C34   S    
C1    O1    A    
C14   C26   S    
C31   Cl6   S    
C27   H31   S    
Cu4   O16   S    
Cu1   O9    S    
C1    C38   S    
C9    C33   S    
C49   N3    S    
C21   H25   S    
C3    C40   S    
C50   H46   S    
Cu3   O15   S    
Cu2   O2    S    
C31   C35   S    
C31   Cl5   S    
C22   H18   S    
C10   O11   A    
C11   O14   A    
Cu4   O8    S    
Cu1   N2    S    
C48   N2    S    
C5    H51   S    
C47   N1    S    
C52   H48   S    
C6    H52   S    
C31   C41   S    
C5    N1    S    
C18   C22   S    
C15   H3    S    
C18   H6    S    
C9    O10   A    
C47   Cl11  S    
C23   H19   S    
C39   C43   S    
C2    O3    A    
Cu1   O3    S    
C38   C42   S    
C23   C38   S    
C30   Cl4   S    
C18   H14   S    
C11   C35   S    
C24   H28   S    
C44   H39   S    
C45   H41   S    
C25   C39   S    
C2    C37   S    
C43   H37   S    
Cu4   N3    S    
C7    H55   S    
C29   Cl2   S    
C50   N4    S    
C1    O2    A    
C37   C41   S    
C28   H24   S    
C51   N3    S    
C8    N4    S    
C20   C36   S    
C45   N1    S    
C40   C44   S    
C21   C37   S    
C30   Cl3   S    
C32   C42   S    
C20   H16   S    
C17   C35   S    
C2    O4    A    
Cu4   O14   S    
C3    O5    A    
C17   C21   S    
