data_mof_unit_15912.cif
_audit_creation_date              2013-03-05T15:53:24-0500
_audit_creation_method            fapswitch 2.2
_symmetry_space_group_name_H-M    P1
_symmetry_Int_Tables_number       1
_space_group_crystal_system       triclinic
_cell_length_a                    10.65041
_cell_length_b                    10.6588
_cell_length_c                    16.922566
_cell_angle_alpha                 98.71139
_cell_angle_beta                  98.787973
_cell_angle_gamma                 61.705175
_cell_volume                      1664.7639493

loop_
_atom_site_label
_atom_site_type_symbol
_atom_site_description
_atom_site_fract_x
_atom_site_fract_y
_atom_site_fract_z
_atom_type_partial_charge
O1    O     O_R   0.751220 0.499230 0.435170 -0.533234
O2    O     O_R   0.477220 0.727600 0.436870 -0.502849
C1    C     C_R   0.382603 0.706595 0.386890 0.554744
O3    O     O_R   0.258650 0.745120 0.411470 -0.440071
O4    O     O_R   0.297070 0.467240 0.395960 -0.512915
C2    C     C_R   0.369789 0.346125 0.359157 0.525890
O5    O     O_R   0.488830 0.252610 0.387790 -0.486154
O6    O     O_R   0.724400 0.302390 0.420980 -0.454966
C3    C     C_R   0.783993 0.372972 0.405093 0.559271
O7    O     O_R   0.752100 0.501210 0.612190 -0.518319
O8    O     O_R   0.478040 0.729440 0.600970 -0.491167
C4    C     C_R   0.356533 0.772001 0.627142 0.553975
O9    O     O_R   0.259530 0.747110 0.588490 -0.505577
O10   O     O_R   0.297880 0.469080 0.560050 -0.508822
C5    C     C_R   0.368055 0.346212 0.585751 0.539575
O11   O     O_R   0.489720 0.254590 0.564810 -0.515177
O12   O     O_R   0.725220 0.304230 0.585080 -0.488550
C6    C     C_R   0.774126 0.379696 0.629606 0.542154
Cr1   Cr    Cr6+3 0.608340 0.611040 0.520430 1.027913
Cr2   Cr    Cr6+3 0.287650 0.601120 0.489350 1.065417
Cr3   Cr    Cr6+3 0.604040 0.287870 0.490280 1.082623
O13   O     O_3   0.500010 0.500010 0.500020 -0.300031
C7    C     C_1   0.342331 0.334423 0.275497 -0.041070
C8    C     C_1   0.330791 0.324074 0.204263 -0.041262
C9    C     C_3   0.810228 0.258491 0.205431 -0.121954
C10   C     C_3   0.742770 0.403245 0.256863 -0.161965
H1    H     H_    0.626387 0.463321 0.261141 0.098913
H2    H     H_    0.750501 0.211328 0.162669 0.163797
C11   C     C_3   0.846943 0.333100 0.329337 0.021396
C12   C     C_3   0.912565 0.190904 0.278609 0.202093
C13   C     C_3   0.026359 0.227566 0.256079 -0.204283
C14   C     C_3   0.958038 0.373343 0.308108 -0.138711
C15   C     C_3   0.854537 0.441550 0.235602 0.216892
C16   C     C_3   0.921061 0.299622 0.183928 -0.002979
H3    H     H_    0.142374 0.164067 0.250191 0.094553
H4    H     H_    0.017111 0.420503 0.351428 0.156227
C17   C     C_3   0.431648 0.679541 0.186263 -0.126694
C18   C     C_3   0.311971 0.689686 0.232435 -0.136902
H5    H     H_    0.274912 0.608123 0.230406 0.143186
H6    H     H_    0.493262 0.590246 0.142304 0.147694
C19   C     C_3   0.372968 0.748449 0.307852 0.024540
C20   C     C_3   0.493353 0.738267 0.263900 -0.080960
C21   C     C_3   0.396325 0.892953 0.241933 -0.115588
C22   C     C_3   0.277837 0.902156 0.288056 -0.102011
C23   C     C_3   0.215435 0.844398 0.211906 -0.069595
C24   C     C_3   0.335309 0.833394 0.166284 0.043854
H7    H     H_    0.604348 0.700198 0.292278 0.186168
H8    H     H_    0.430669 0.976917 0.243933 0.154021
H9    H     H_    0.223465 0.988573 0.334862 0.174108
H10   H     H_    0.100852 0.887703 0.188947 0.196217
C25   C     C_3   0.453348 0.298891 0.781492 -0.135468
C26   C     C_3   0.362176 0.431839 0.734444 -0.101086
H11   H     H_    0.391244 0.517365 0.729510 0.113736
H12   H     H_    0.555805 0.276473 0.818707 0.124373
C27   C     C_3   0.338232 0.333686 0.663541 0.046607
C28   C     C_3   0.429615 0.201581 0.709901 -0.108180
C29   C     C_3   0.291444 0.224720 0.741677 -0.118871
C30   C     C_3   0.199978 0.357224 0.693967 -0.119715
C31   C     C_3   0.224751 0.453028 0.766120 0.015119
C32   C     C_3   0.316180 0.322144 0.812770 0.053939
H13   H     H_    0.512404 0.097175 0.685131 0.139147
H14   H     H_    0.262315 0.139265 0.746784 0.120200
H15   H     H_    0.097851 0.379531 0.656441 0.122536
C33   C     C_1   0.817528 0.341966 0.709599 -0.043750
C34   C     C_1   0.843886 0.314799 0.778055 -0.049071
C35   C     C_1   0.338323 0.812717 0.709731 -0.064056
C36   C     C_1   0.313247 0.839588 0.778484 -0.059527
O14   O     O_R   0.171830 0.913880 0.057510 -0.534965
O15   O     O_R   0.940690 0.186050 0.054730 -0.505546
C37   C     C_R   0.959651 0.284596 0.102637 0.560955
O16   O     O_R   0.920470 0.405720 0.075010 -0.437860
O17   O     O_R   0.196690 0.370460 0.084120 -0.504408
C38   C     C_R   0.318751 0.298606 0.120503 0.529975
O18   O     O_R   0.412990 0.180750 0.091610 -0.498499
O19   O     O_R   0.366620 0.943130 0.065760 -0.478426
C39   C     C_R   0.295271 0.889817 0.088337 0.547113
O20   O     O_R   0.160510 0.906330 0.879210 -0.520965
O21   O     O_R   0.930190 0.179050 0.889450 -0.494618
C40   C     C_R   0.884729 0.299400 0.860921 0.550752
O22   O     O_R   0.909140 0.398170 0.896710 -0.506583
O23   O     O_R   0.186190 0.363460 0.918830 -0.515311
C41   C     C_R   0.307427 0.293599 0.891605 0.537820
O24   O     O_R   0.401670 0.173200 0.913310 -0.511039
O25   O     O_R   0.356120 0.936130 0.900470 -0.488913
C42   C     C_R   0.280100 0.884592 0.859022 0.544999
Cr4   Cr    Cr6+3 0.054020 0.052700 0.970850 1.021321
Cr5   Cr    Cr6+3 0.059230 0.375120 0.993390 1.060003
Cr6   Cr    Cr6+3 0.374950 0.061200 0.992340 1.058594
O26   O     O_3   0.162740 0.163010 0.985530 -0.292585
C43   C     C_3   0.109715 0.595515 0.800507 -0.268250
C44   C     C_3   0.035949 0.701737 0.736893 -0.409437
H16   H     H_    0.115461 0.719739 0.711432 0.179168
H17   H     H_    0.979179 0.660864 0.687731 0.160359
H18   H     H_    0.956542 0.805512 0.764403 0.155704
H19   H     H_    0.028217 0.577017 0.823550 0.175688
H20   H     H_    0.159973 0.640680 0.851194 0.163946
N1    N     N_R   0.935115 0.058425 0.306756 0.071467
O27   O     O_R   0.873025 0.985934 0.266096 -0.297346
O28   O     O_R   0.994098 0.027010 0.379001 -0.326146
N2    N     N_R   0.824722 0.580677 0.213017 0.087770
O29   O     O_R   0.890829 0.649530 0.253386 -0.298762
O30   O     O_R   0.729620 0.638464 0.153902 -0.325318

loop_
_geom_bond_atom_site_label_1
_geom_bond_atom_site_label_2
_geom_bond_distance
_ccdc_geom_bond_type
C22   H9    1.106630 S    
C27   C28   1.532170 S    
O11   Cr3   2.052602 S    
C34   C40   1.413599 S    
O14   Cr4   2.061398 S    
C19   C20   1.530980 S    
C21   C22   1.540057 S    
C24   C39   1.452172 S    
N1    O27   1.300791 A    
C43   C44   1.524962 S    
C43   H19   1.110537 S    
O4    Cr2   1.942584 S    
C23   C24   1.539988 S    
C26   H11   1.110105 S    
C9    H2    1.110541 S    
C12   N1    1.457999 S    
O8    Cr1   1.942349 S    
C10   H1    1.101194 S    
C17   C18   1.547546 S    
C14   H4    1.110494 S    
C17   H6    1.110161 S    
O4    C2    1.268956 A    
C8    C38   1.400064 S    
C5    O11   1.262606 A    
C30   H15   1.110126 S    
C28   C29   1.540472 S    
O12   C6    1.256885 A    
C25   C28   1.543300 S    
C38   O18   1.262183 A    
C17   C20   1.557843 S    
C18   C23   1.534339 S    
C32   C41   1.438368 S    
O6    C3    1.267739 A    
C7    C8    1.186473 T    
C37   O16   1.293051 A    
C21   H8    1.110520 S    
C16   C37   1.459652 S    
C26   C27   1.542214 S    
C3    C11   1.449511 S    
C9    C16   1.545377 S    
O21   Cr4   1.942572 S    
C35   C36   1.195210 T    
O20   C42   1.273533 A    
C31   C32   1.525944 S    
Cr3   O13   1.983795 S    
N1    O28   1.300536 A    
O23   C41   1.265048 A    
C36   C42   1.414453 S    
O1    Cr1   2.061172 S    
C25   C26   1.544641 S    
O10   Cr2   1.936207 S    
C29   H14   1.110537 S    
Cr1   O13   1.974806 S    
O1    C3    1.262322 A    
O25   C42   1.257245 A    
C18   C19   1.527547 S    
C44   H16   1.109126 S    
O21   C40   1.280780 A    
C29   C32   1.542460 S    
C30   C31   1.543549 S    
O5    Cr3   2.060204 S    
C4    C35   1.413722 S    
O12   Cr3   1.940543 S    
C31   C43   1.527217 S    
C5    C27   1.439732 S    
O19   C39   1.268915 A    
C11   C12   1.519062 S    
C26   C31   1.539561 S    
C44   H17   1.110733 S    
C10   C15   1.532713 S    
C13   C14   1.558370 S    
O7    Cr1   2.061771 S    
N2    O30   1.300642 A    
C15   C16   1.525663 S    
C13   C16   1.545140 S    
C4    O9    1.251540 A    
O23   Cr5   1.936576 S    
O22   Cr5   2.059777 S    
O16   Cr5   2.056329 S    
Cr2   O13   1.983137 S    
O20   Cr4   2.062122 S    
Cr5   O26   1.983757 S    
C19   C22   1.520459 S    
C13   H3    1.104145 S    
C20   C21   1.541933 S    
C1    O3    1.298688 A    
O17   Cr5   1.941782 S    
C22   C23   1.538577 S    
C9    C12   1.534247 S    
C1    C19   1.447035 S    
O9    Cr2   2.060750 S    
O2    Cr1   1.943508 S    
O10   C5    1.268138 A    
O25   Cr6   1.940301 S    
O17   C38   1.268868 A    
Cr4   O26   1.974644 S    
O6    Cr3   1.935171 S    
O8    C4    1.278425 A    
C43   H20   1.110359 S    
C2    O5    1.263436 A    
O14   C39   1.256047 A    
C15   N2    1.460884 S    
C14   C15   1.531787 S    
C25   H12   1.110338 S    
O2    C1    1.295014 A    
C9    C10   1.545210 S    
C11   C14   1.539710 S    
C33   C34   1.195777 T    
C44   H18   1.110377 S    
C12   C13   1.549900 S    
C6    C33   1.416094 S    
C29   C30   1.548002 S    
C18   H5    1.106738 S    
C23   H10   1.108480 S    
O7    C6    1.275102 A    
C2    C7    1.399983 S    
N2    O29   1.300773 A    
O24   Cr6   2.053463 S    
C20   H7    1.106139 S    
O15   C37   1.301711 A    
C21   C24   1.534561 S    
C40   O22   1.249380 A    
O3    Cr2   2.055992 S    
O19   Cr6   1.936108 S    
Cr6   O26   1.982978 S    
C10   C11   1.539378 S    
C41   O24   1.264224 A    
C27   C30   1.529207 S    
C28   H13   1.110400 S    
C25   C32   1.526136 S    
O18   Cr6   2.059849 S    
C17   C24   1.524175 S    
O15   Cr4   1.943696 S    
