data_mof_unit_30901.cif
_audit_creation_date              2012-10-26T18:54:55-0400
_audit_creation_method            fapswitch 2.2
_symmetry_space_group_name_H-M    P1
_symmetry_Int_Tables_number       1
_space_group_crystal_system       triclinic
_cell_length_a                    10.829266
_cell_length_b                    9.583903
_cell_length_c                    10.823145
_cell_angle_alpha                 89.8351
_cell_angle_beta                  91.975256
_cell_angle_gamma                 90.003613
_cell_volume                      1122.62569126

loop_
_atom_site_label
_atom_site_type_symbol
_atom_type_description
_atom_site_fract_x
_atom_site_fract_y
_atom_site_fract_z
_atom_type_partial_charge
C1    C     C_R   0.262252 0.499969 0.499967 0.547497
C2    C     C_R   0.501825 0.624355 0.935989 0.045207
C3    C     C_R   0.488383 0.500743 0.128830 -0.002520
C4    C     C_R   0.489704 0.499825 0.870200 0.028720
C5    C     C_R   0.462863 0.376810 0.063395 -0.147371
C6    C     C_R   0.463046 0.376463 0.934532 -0.140125
C7    C     C_3   0.597637 0.737557 0.932865 -0.097952
C8    C     C_3   0.594282 0.738768 0.074235 -0.083040
C9    C     C_R   0.063912 0.373263 0.502274 -0.133922
C10   C     C_R   0.936172 0.373260 0.502318 -0.129388
C11   C     C_R   0.871692 0.500023 0.500794 0.030214
C12   C     C_R   0.737744 0.499977 0.500432 0.554864
C13   C     C_R   0.128302 0.500012 0.500388 0.024375
C14   C     C_R   0.936070 0.626819 0.499425 -0.130555
C15   C     C_R   0.063831 0.626811 0.499080 -0.128027
C16   C     C_2   0.720059 0.691495 0.884238 0.198212
C17   C     C_2   0.543591 0.871677 0.126406 0.202198
C18   C     C_3   0.323810 0.135356 0.335572 -0.358339
C19   C     C_3   0.672083 0.134082 0.668849 -0.351752
C20   C     C_R   0.419081 0.071857 0.423525 0.113044
C21   C     C_R   0.580117 0.071337 0.577313 0.110444
C22   C     C_R   0.420084 0.924081 0.425019 0.029031
C23   C     C_R   0.579351 0.923595 0.575554 0.023998
C24   C     C_R   0.498345 0.500200 0.262401 0.545277
C25   C     C_R   0.499007 0.499817 0.737422 0.563124
C26   C     C_R   0.498992 0.625461 0.063116 0.058148
Cu1   Cu    Cu3+1 0.500000 0.640660 0.500000 0.938558
Cu2   Cu    Cu3+1 0.500000 0.359340 0.500000 0.933044
H1    H     H_    0.447643 0.279334 0.111305 0.152089
H2    H     H_    0.642512 0.865341 0.635830 0.102083
H3    H     H_    0.765225 0.755780 0.816633 0.099183
H4    H     H_    0.593954 0.923787 0.201365 0.111507
H5    H     H_    0.326145 0.248473 0.326144 0.193736
H6    H     H_    0.335894 0.092987 0.241480 0.146882
H7    H     H_    0.230131 0.106062 0.365239 0.091237
H8    H     H_    0.673448 0.247542 0.674041 0.211238
H9    H     H_    0.652554 0.095374 0.763060 0.098245
H10   H     H_    0.766640 0.100136 0.645969 0.085825
H11   H     H_    0.447385 0.278957 0.886108 0.151731
H12   H     H_    0.561268 0.833711 0.886633 0.126253
H13   H     H_    0.680739 0.703335 0.123393 0.126321
H14   H     H_    0.111904 0.274131 0.503799 0.130072
H15   H     H_    0.888244 0.274109 0.503464 0.128636
H16   H     H_    0.888021 0.725976 0.498384 0.124842
H17   H     H_    0.111797 0.725967 0.497706 0.130820
H18   H     H_    0.356416 0.866191 0.365194 0.138923
N1    N     N_R   0.500000 0.852070 0.500000 -0.254725
N2    N     N_R   0.500000 0.147940 0.500000 -0.203548
O1    O     O_R   0.319640 0.618740 0.499990 -0.506951
O2    O     O_2   0.446740 0.921869 0.085714 -0.534119
O3    O     O_R   0.680360 0.618740 0.500010 -0.513927
O4    O     O_R   0.319620 0.381170 0.499990 -0.519602
O5    O     O_R   0.680380 0.381170 0.500010 -0.517267
O6    O     O_R   0.499990 0.618810 0.319660 -0.501285
O7    O     O_R   0.500010 0.618810 0.680340 -0.502629
O8    O     O_R   0.499960 0.381240 0.319650 -0.516425
O9    O     O_R   0.500040 0.381240 0.680350 -0.519220
O10   O     O_2   0.769562 0.583467 0.920048 -0.502888

loop_
_geom_bond_atom_site_label_1
_geom_bond_atom_site_label_2
_ccdc_geom_bond_type
C17   O2    D    
C2    C4    A    
Cu2   O5    S    
C19   H10   S    
C24   O8    A    
C18   H6    S    
C9    C10   A    
C18   C20   S    
C8    C17   S    
C7    H12   S    
C21   N2    A    
C8    C26   S    
C21   C23   A    
C4    C25   S    
Cu2   O8    S    
Cu1   O6    S    
C7    C8    S    
C2    C26   A    
C11   C14   A    
C16   O10   D    
Cu2   O9    S    
C16   H3    S    
Cu1   O3    S    
Cu2   O4    S    
C9    H14   S    
C20   N2    A    
C25   O9    A    
Cu1   O1    S    
C18   H7    S    
C4    C6    A    
C7    C16   S    
C19   C21   S    
C20   C22   A    
C22   N1    A    
C5    H1    S    
C19   H8    S    
C13   C15   A    
C5    C6    A    
C1    O4    A    
Cu1   O7    S    
C1    C13   S    
C18   H5    S    
C15   H17   S    
C24   O6    A    
C23   H2    S    
C25   O7    A    
C12   O3    A    
C23   N1    A    
C8    H13   S    
C14   H16   S    
C10   C11   A    
Cu1   N1    S    
Cu1   Cu2   S    
C17   H4    S    
C9    C13   A    
C14   C15   A    
Cu2   N2    S    
C19   H9    S    
C2    C7    S    
C22   H18   S    
C10   H15   S    
C6    H11   S    
C1    O1    A    
C3    C26   A    
C12   O5    A    
C11   C12   S    
C3    C24   S    
C3    C5    A    
