data_mof_unit_64682.cif
_audit_creation_date              2013-03-05T16:06:16-0500
_audit_creation_method            fapswitch 2.2
_symmetry_space_group_name_H-M    P1
_symmetry_Int_Tables_number       1
_space_group_crystal_system       triclinic
_cell_length_a                    8.219615
_cell_length_b                    15.184217
_cell_length_c                    18.826049
_cell_angle_alpha                 99.156983
_cell_angle_beta                  92.002043
_cell_angle_gamma                 99.099471
_cell_volume                      2286.15502799

loop_
_atom_site_label
_atom_site_type_symbol
_atom_site_description
_atom_site_fract_x
_atom_site_fract_y
_atom_site_fract_z
_atom_type_partial_charge
P1    P     P_3+3 0.033450 0.421470 0.337090 0.466853
O1    O     O_2   0.865610 0.448460 0.327050 -0.349403
O2    O     O_3   0.118280 0.449990 0.414480 -0.413913
O3    O     O_3   0.656850 0.615600 0.375450 -0.392573
O4    O     O_2   0.723704 0.535965 0.245227 -0.376093
O5    O     O_3   0.988359 0.303393 0.315132 -0.564487
O6    O     O_3   0.716823 0.710206 0.259895 -0.537432
H1    H     H_    0.755608 0.782733 0.363745 0.161030
C1    C     C_3   0.723653 0.870935 0.287481 -1.012293
H2    H     H_    0.858113 0.887137 0.280935 0.285013
H3    H     H_    0.654960 0.869182 0.235269 0.255376
P2    P     P_3+3 0.679030 0.710970 0.562060 0.469541
P3    P     P_3+3 0.128762 0.779753 0.413677 0.429076
O7    O     O_2   0.853800 0.724280 0.541390 -0.366003
O8    O     O_3   0.080770 0.663020 0.412300 -0.389409
O9    O     O_2   0.002704 0.824926 0.459796 -0.390001
O10   O     O_3   0.697246 0.736205 0.656346 -0.561406
O11   O     O_3   0.087752 0.799284 0.326012 -0.543423
C2    C     C_3   0.159014 0.737588 0.277984 0.390799
H4    H     H_    0.081259 0.669432 0.270484 0.116408
H5    H     H_    0.283590 0.731842 0.298973 -0.021536
C3    C     C_3   0.180516 0.770087 0.205337 -0.519496
H6    H     H_    0.223197 0.844477 0.214482 0.218032
C4    C     C_3   0.242399 0.734819 0.624724 0.440281
H7    H     H_    0.356471 0.712287 0.605249 0.079918
H8    H     H_    0.143110 0.715665 0.581061 0.132177
C5    C     C_3   0.272991 0.837333 0.645761 -0.980042
H9    H     H_    0.380127 0.859132 0.685737 0.264773
H10   H     H_    0.298979 0.869697 0.597763 0.222871
H11   H     H_    0.161973 0.860261 0.669549 0.274079
Ba1   Ba    Ba6+2 0.852310 0.543020 0.467250 1.541172
C6    C     C_3   0.949571 0.265548 0.376570 0.441937
H12   H     H_    0.841319 0.290941 0.399788 0.094695
H13   H     H_    0.054477 0.282321 0.417485 0.133218
C7    C     C_3   0.910624 0.163177 0.354600 -0.997620
H14   H     H_    0.798911 0.144219 0.316987 0.279003
H15   H     H_    0.888265 0.130099 0.402415 0.226961
H16   H     H_    0.016416 0.138020 0.327622 0.260437
C8    C     C_3   0.739732 0.662695 0.684758 0.449863
H17   H     H_    0.856967 0.646115 0.663710 0.089328
H18   H     H_    0.640779 0.602731 0.671395 0.127567
C9    C     C_3   0.762041 0.688959 0.766364 -0.987007
H19   H     H_    0.864499 0.746968 0.781187 0.268161
H20   H     H_    0.791334 0.631504 0.791152 0.225494
H21   H     H_    0.646526 0.708377 0.788145 0.269789
P4    P     P_3+3 0.156260 0.578610 0.662920 0.463446
O12   O     O_2   0.324100 0.551570 0.673000 -0.358320
O13   O     O_3   0.071440 0.550090 0.585530 -0.420179
O14   O     O_3   0.532860 0.384470 0.624560 -0.389652
O15   O     O_3   0.197447 0.696738 0.685565 -0.561228
P5    P     P_3+3 0.067457 0.220528 0.586497 0.442479
O16   O     O_3   0.607860 0.389390 0.460650 -0.387669
O17   O     O_3   0.108950 0.337050 0.587710 -0.394065
O18   O     O_2   0.196294 0.177146 0.541294 -0.391782
O19   O     O_3   0.105974 0.198687 0.673467 -0.521621
Ba2   Ba    Ba6+2 0.337530 0.457060 0.532760 1.534829
P6    P     P_3+3 0.624025 0.606943 0.282035 0.444858
C10   C     C_3   0.681635 0.780231 0.312831 0.495535
H22   H     H_    0.549277 0.771079 0.324007 -0.000633
H23   H     H_    0.688257 0.925072 0.328053 0.235264
O20   O     O_3   0.581860 0.610690 0.539360 -0.413363
C11   C     C_3   0.456162 0.308621 0.310559 0.426693
H24   H     H_    0.333303 0.321480 0.328245 0.087652
H25   H     H_    0.549487 0.371269 0.323048 0.125492
C12   C     C_3   0.441548 0.278685 0.229300 -0.970778
H26   H     H_    0.348342 0.216258 0.214717 0.262177
H27   H     H_    0.402527 0.332782 0.202610 0.227828
H28   H     H_    0.562691 0.265145 0.209862 0.271201
P7    P     P_3+3 0.518332 0.274877 0.437190 0.420780
O21   O     O_2   0.335900 0.275750 0.458650 -0.381783
O22   O     O_3   0.506215 0.240233 0.343621 -0.576204
H29   H     H_    0.278532 0.737702 0.177664 0.179896
C13   C     C_3   0.062126 0.268888 0.723351 0.488102
H30   H     H_    0.149740 0.332609 0.723562 0.149865
H31   H     H_    0.934692 0.279996 0.710928 0.010315
C14   C     C_3   0.069961 0.244119 0.798359 -0.952724
H32   H     H_    0.196643 0.233442 0.812901 0.287381
H33   H     H_    0.037100 0.299515 0.838356 0.224927
H34   H     H_    0.981603 0.181165 0.799988 0.254131
P8    P     P_3+3 0.554573 0.390787 0.718172 0.441387
C15   C     C_3   0.530501 0.218314 0.684168 0.481732
H35   H     H_    0.663919 0.232492 0.674814 0.013478
O23   O     O_2   0.430204 0.449250 0.752073 -0.387336
O24   O     O_3   0.487643 0.283155 0.739194 -0.524165
H36   H     H_    0.456858 0.216945 0.633322 0.152003
H37   H     H_    0.525024 0.073481 0.661893 0.222507
C16   C     C_3   0.493571 0.125129 0.705631 -0.952215
H38   H     H_    0.360456 0.108315 0.715016 0.290050
H39   H     H_    0.568108 0.123687 0.755657 0.253581
N1    N     N_R   0.192664 0.541261 0.953954 -0.075446
N2    N     N_R   0.244121 0.546155 0.022821 -0.082404
C17   C     C_2   0.310580 0.503675 0.288083 -0.375628
C18   C     C_3   0.398480 0.578558 0.253532 0.136686
C19   C     C_2   0.353939 0.562027 0.173267 -0.241385
C20   C     C_2   0.202622 0.515020 0.147864 0.017913
C21   C     C_2   0.095833 0.470468 0.200659 -0.251196
C22   C     C_1   0.155291 0.470337 0.267772 0.286227
N3    N     N_R   0.990313 0.465675 0.044987 -0.071789
N4    N     N_R   0.938788 0.460810 0.976067 -0.076378
C23   C     C_R   0.038546 0.498531 0.928775 0.157761
C24   C     C_R   0.144449 0.508437 0.070100 0.151647
C25   C     C_R   0.084953 0.530541 0.801359 -0.242647
C26   C     C_R   0.031307 0.521729 0.728059 0.315830
C27   C     C_R   0.766967 0.440437 0.752783 0.248465
C28   C     C_R   0.819641 0.448274 0.825685 -0.276338
C29   C     C_R   0.980891 0.492172 0.851051 0.013831
C30   C     C_R   0.875085 0.473942 0.704338 -0.518498
H40   H     H_    0.435411 0.596472 0.138526 0.152827
H41   H     H_    0.973050 0.434136 0.182712 0.168630
H42   H     H_    0.206801 0.567554 0.819372 0.164963
H43   H     H_    0.734566 0.420623 0.862244 0.163659
H44   H     H_    0.376476 0.476014 0.327568 0.117613
H45   H     H_    0.833586 0.467472 0.648294 0.172643
C31   C     C_R   0.345575 0.824971 0.450787 0.121209
H46   H     H_    0.215232 0.955628 0.399412 0.179768
C32   C     C_R   0.581803 0.794515 0.519107 0.235370
C33   C     C_R   0.759638 0.231757 0.525603 -0.525100
C34   C     C_R   0.857406 0.173616 0.548341 0.253067
C35   C     C_R   0.799496 0.080821 0.537658 -0.313526
C36   C     C_R   0.636825 0.044635 0.508408 0.044608
C37   C     C_R   0.545922 0.103992 0.478384 0.010880
C38   C     C_R   0.566499 0.950638 0.502878 -0.000528
C39   C     C_R   0.413320 0.917786 0.461433 0.012155
C40   C     C_R   0.330777 0.977882 0.431047 -0.181770
C41   C     C_R   0.395370 0.068637 0.439304 -0.104676
C42   C     C_R   0.637198 0.888231 0.538990 -0.142769
C43   C     C_R   0.441463 0.764453 0.472328 -0.429719
C44   C     C_R   0.610363 0.197401 0.486356 0.235607
H47   H     H_    0.806966 0.303481 0.532537 0.173891
H48   H     H_    0.887512 0.038529 0.548678 0.174129
H49   H     H_    0.324501 0.110268 0.413752 0.174739
C45   C     C_1   0.389969 0.669886 0.450340 0.242995
N5    N     N_1   0.349579 0.593067 0.433775 0.003935
C46   C     C_1   0.745219 0.918087 0.603674 0.167433
N6    N     N_1   0.830942 0.941639 0.655595 -0.064931
C47   C     C_3   0.021352 0.745801 0.156422 -0.172877
C48   C     C_3   0.051858 0.767718 0.081195 -0.917236
H50   H     H_    0.098014 0.841148 0.084234 0.267252
H51   H     H_    0.143628 0.728379 0.055557 0.268655
H52   H     H_    0.934558 0.749545 0.047106 0.257655
H53   H     H_    0.972185 0.672361 0.151455 0.210873
H54   H     H_    0.927442 0.784811 0.179901 0.246339

loop_
_geom_bond_atom_site_label_1
_geom_bond_atom_site_label_2
_geom_bond_distance
_ccdc_geom_bond_type
O5    C6    1.396087 S    
C16   H38   1.110444 S    
C18   C19   1.513923 S    
C31   C43   1.398350 A    
C5    H10   1.106903 S    
C13   H30   1.110392 S    
Ba1   O20   2.886136 S    
C28   C29   1.415655 A    
C2    H4    1.112383 S    
C4    C5    1.521878 S    
Ba1   O16   2.811078 S    
P8    O24   1.751279 S    
C35   H48   1.075953 S    
C15   H35   1.109445 S    
C39   C40   1.398239 A    
C8    H18   1.110144 S    
C48   H51   1.111287 S    
C19   H40   1.085563 S    
C47   H53   1.112297 S    
P3    O11   1.753243 S    
P8    C27   1.840818 S    
C7    H15   1.105710 S    
C4    H8    1.108288 S    
O11   C2    1.406850 S    
P6    C18   1.874773 S    
P1    Ba1   3.363382 S    
P5    C34   1.834613 S    
P1    O1    1.513997 D    
O10   C8    1.397938 S    
C3    H29   1.111480 S    
P7    O22   1.750968 S    
C43   C45   1.420814 S    
C30   H45   1.081876 S    
C47   H54   1.107793 S    
O16   P7    1.757312 S    
H1    C10   1.109167 S    
C34   C35   1.394040 A    
C20   C21   1.517612 S    
P7    C44   1.841747 S    
C45   N5    1.150019 T    
C12   H27   1.110640 S    
C32   C43   1.396107 A    
P2    O10   1.751222 S    
C11   H25   1.110870 S    
C14   H34   1.110608 S    
Ba1   Ba2   4.576744 S    
C33   H47   1.082428 S    
C1    H2    1.109218 S    
O7    Ba1   2.879039 S    
O6    C10   1.409798 S    
P3    C31   1.873172 S    
C28   H43   1.082461 S    
C32   C42   1.409262 A    
C5    H11   1.110803 S    
C13   H31   1.109796 S    
C25   C26   1.413038 A    
C9    H20   1.106802 S    
N2    C24   1.362450 A    
P8    O23   1.546825 D    
N1    C23   1.360368 A    
C27   C28   1.405514 A    
C36   C38   1.438626 A    
C17   C22   1.315904 D    
C8    C9    1.521539 S    
C4    O15   1.398416 S    
C48   H52   1.110783 S    
P4    O13   1.558532 S    
P1    O5    1.750988 S    
C6    C7    1.522673 S    
C7    H16   1.110934 S    
C14   H32   1.110445 S    
C37   C44   1.415575 A    
P1    C22   1.849591 S    
C8    H17   1.104823 S    
H37   C16   1.110561 S    
C17   H44   1.079609 S    
C10   H22   1.106646 S    
C3    C47   1.533210 S    
O1    Ba1   2.811342 S    
P1    O2    1.558562 S    
C9    H21   1.110803 S    
C6    H13   1.106081 S    
C38   C42   1.431592 A    
C37   C41   1.400499 A    
C11   H24   1.110833 S    
O2    Ba2   2.792848 S    
C41   H49   1.078885 S    
N4    C23   1.363031 A    
C12   H28   1.110840 S    
C21   C22   1.339097 D    
C2    C3    1.532752 S    
C19   C20   1.361660 D    
C4    H7    1.102802 S    
O2    Ba1   2.905782 S    
C1    H3    1.110781 S    
C15   C16   1.520584 S    
C31   C39   1.410863 A    
P2    O7    1.492711 D    
C12   H26   1.110680 S    
Ba2   O21   2.879329 S    
Ba1   O13   2.792244 S    
P3    O8    1.749721 S    
P2    Ba1   3.405243 S    
C13   C14   1.519865 S    
C25   H42   1.082366 S    
C9    H19   1.110712 S    
O14   Ba2   2.784167 S    
C15   O24   1.406122 S    
C36   C37   1.426776 A    
C48   H50   1.111210 S    
O17   Ba2   2.752038 S    
O13   Ba2   2.906611 S    
P4    O12   1.514430 D    
C1    C10   1.521239 S    
H46   C40   1.079730 S    
C11   C12   1.519833 S    
C2    H5    1.105990 S    
C3    H6    1.112276 S    
P4    C26   1.857195 S    
C14   H33   1.109919 S    
C47   C48   1.525694 S    
C35   C36   1.418747 A    
O8    Ba1   2.751360 S    
C46   N6    1.157892 T    
N3    C24   1.360330 A    
C21   H41   1.085260 S    
P4    O15   1.751608 S    
C23   C29   1.505691 S    
O14   P8    1.750912 S    
O4    P6    1.547348 D    
P5    O18   1.544261 D    
C6    H12   1.101588 S    
C1    H23   1.111361 S    
C16   H39   1.110539 S    
C33   C34   1.388906 A    
P2    O20   1.588541 S    
N1    N2    1.336556 A    
C17   C18   1.498784 S    
C11   O22   1.399262 S    
C25   C29   1.420551 A    
P5    O19   1.749514 S    
P7    O21   1.568075 D    
C33   C44   1.391078 A    
O3    Ba1   2.784737 S    
O19   C13   1.405226 S    
O16   Ba2   2.885305 S    
C42   C46   1.448511 S    
N3    N4    1.337714 A    
P3    O9    1.547913 D    
P4    Ba2   3.363973 S    
C5    H9    1.110700 S    
Ba2   O20   2.810504 S    
O12   Ba2   2.811874 S    
C26   C30   1.391731 A    
C7    H14   1.110637 S    
P5    O17   1.744417 S    
C38   C39   1.432377 A    
O6    P6    1.750999 S    
C27   C30   1.393446 A    
C15   H36   1.110091 S    
C20   C24   1.507072 S    
O3    P6    1.750688 S    
C40   C41   1.378296 A    
P2    C32   1.871850 S    
