data_mof_unit_13051.cif
_audit_creation_date              2012-12-11T17:45:23-0500
_audit_creation_method            fapswitch 2.2
_symmetry_space_group_name_H-M    P1
_symmetry_Int_Tables_number       1
_space_group_crystal_system       triclinic
_cell_length_a                    15.002712
_cell_length_b                    14.905442
_cell_length_c                    14.820884
_cell_angle_alpha                 109.753994
_cell_angle_beta                  108.955636
_cell_angle_gamma                 109.050698
_cell_volume                      2571.58470164

loop_
_atom_site_label
_atom_site_type_symbol
_atom_type_description
_atom_site_fract_x
_atom_site_fract_y
_atom_site_fract_z
_atom_type_partial_charge
C1    C     C_R   0.979227 0.257467 0.070780 -0.044648
C2    C     C_R   0.319103 0.772776 0.326802 0.082522
C3    C     C_R   0.299235 0.499687 0.929402 0.017709
C4    C     C_R   0.916289 0.495434 0.291708 0.128059
C5    C     C_R   0.686779 0.408780 0.934192 -0.124490
C6    C     C_R   0.033086 0.593245 0.777815 -0.120952
C7    C     C_R   0.787108 0.205482 0.691802 -0.158647
C8    C     C_R   0.997901 0.801277 0.095122 -0.150416
C9    C     C_R   0.090065 0.805301 0.005115 -0.134313
C10   C     C_R   0.696455 0.202984 0.785439 0.012457
C11   C     C_R   0.776559 0.591990 0.024307 -0.121273
C12   C     C_R   0.313093 0.750648 0.225058 -0.146565
C13   C     C_R   0.945501 0.410373 0.683885 -0.094355
C14   C     C_R   0.674944 0.500406 0.949477 0.020194
C15   C     C_R   0.963971 0.503438 0.672180 0.105941
C16   C     C_R   0.691161 0.149704 0.686350 0.131312
C17   C     C_R   0.055695 0.867049 0.065849 0.060445
C18   C     C_R   0.597875 0.168185 0.078263 -0.094597
C19   C     C_R   0.666163 0.271064 0.173267 -0.186739
C20   C     C_R   0.744508 0.284039 0.267664 0.139809
C21   C     C_R   0.751194 0.191262 0.265573 -0.152449
C22   C     C_R   0.680898 0.088399 0.171339 -0.125762
C23   C     C_R   0.208222 0.408892 0.901527 -0.130964
C24   C     C_R   0.604690 0.076912 0.077650 -0.050714
C25   C     C_R   0.842842 0.403052 0.470343 -0.218738
C26   C     C_R   0.917657 0.503866 0.567064 0.052035
C27   C     C_R   0.945100 0.600141 0.558103 -0.037160
C28   C     C_R   0.903370 0.590490 0.454515 0.428311
C29   C     C_R   0.867019 0.491363 0.363557 -0.064650
C30   C     C_R   0.819481 0.394196 0.367409 0.001281
C31   C     C_R   0.004898 0.781019 0.709624 -0.133982
C32   C     C_R   0.086679 0.878032 0.805672 -0.183477
C33   C     C_R   0.195003 0.904193 0.841521 -0.223618
C34   C     C_R   0.985831 0.587897 0.295449 -0.057970
C35   C     C_R   0.221823 0.834448 0.780223 -0.182373
C36   C     C_R   0.140671 0.737662 0.683060 0.481890
C37   C     C_R   0.031304 0.708883 0.649827 0.013889
C38   C     C_R   0.131771 0.935441 0.413359 -0.059644
C39   C     C_R   0.227010 0.947237 0.411038 -0.117027
C40   C     C_R   0.307991 0.950480 0.495107 0.036385
C41   C     C_R   0.296332 0.952245 0.586545 0.380968
C42   C     C_R   0.203047 0.946996 0.590627 -0.187351
C43   C     C_R   0.120430 0.937310 0.503564 -0.079492
C44   C     C_R   0.501042 0.052405 0.561766 0.292437
C45   C     C_R   0.298387 0.590658 0.993358 -0.136096
C46   C     C_R   0.598949 0.051442 0.594539 -0.034489
C47   C     C_R   0.604668 0.955760 0.545893 0.081537
C48   C     C_R   0.510456 0.862556 0.457661 -0.205801
C49   C     C_R   0.411659 0.861303 0.430206 0.044449
C50   C     C_R   0.406398 0.954547 0.490383 -0.013191
C51   C     C_R   0.750361 0.937878 0.510006 -0.257918
C52   C     C_R   0.849784 0.940045 0.542899 -0.018741
C53   C     C_R   0.908218 0.958190 0.648176 -0.146972
C54   C     C_R   0.865802 0.971002 0.719829 -0.238115
C55   C     C_R   0.765285 0.967266 0.687010 0.512017
C56   C     C_R   0.899541 0.407325 0.204439 -0.155513
C57   C     C_R   0.707818 0.952993 0.581876 0.000727
C58   C     C_3   0.472891 0.385395 0.849172 -0.358826
C59   C     C_3   0.368947 0.387123 0.839155 -0.391666
C60   C     C_3   0.580189 0.537404 0.049136 -0.375477
C61   C     C_3   0.554891 0.580678 0.895012 -0.373441
C62   C     C_3   0.572792 0.500812 0.934536 0.324186
C63   C     C_3   0.396287 0.500545 0.925260 0.344546
C64   C     C_3   0.474327 0.529353 0.041674 -0.389030
C65   C     C_3   0.454056 0.586729 0.897597 -0.371360
C66   C     C_R   0.338385 0.200642 0.948294 -0.115355
C67   C     C_R   0.216180 0.735856 0.311386 -0.115029
C68   C     C_R   0.247517 0.161348 0.960170 -0.218573
C69   C     C_R   0.256531 0.200387 0.064861 0.122485
C70   C     C_R   0.356319 0.284537 0.156948 -0.100639
C71   C     C_R   0.446822 0.325756 0.144527 -0.123989
C72   C     C_R   0.437932 0.282137 0.040429 -0.113487
C73   C     C_R   0.161432 0.042678 0.080371 -0.231612
C74   C     C_R   0.085705 0.983368 0.102724 0.055949
C75   C     C_R   0.039431 0.037943 0.155066 0.101311
C76   C     C_R   0.056358 0.138423 0.163888 -0.106467
C77   C     C_R   0.104614 0.178767 0.110032 0.028440
C78   C     C_R   0.071625 0.256831 0.979270 -0.132001
C79   C     C_R   0.170124 0.139204 0.081540 0.015617
C80   C     C_R   0.856755 0.914721 0.117382 -0.191897
C81   C     C_R   0.782160 0.884087 0.153019 -0.129717
C82   C     C_R   0.813936 0.934616 0.264644 -0.165481
C83   C     C_R   0.919795 0.018180 0.341232 -0.222453
C84   C     C_R   0.995148 0.050017 0.306702 0.467437
C85   C     C_R   0.965038 0.995207 0.194139 -0.068370
C86   C     C_R   0.059688 0.235069 0.060126 0.045006
H1    H     H_    0.946938 0.249540 0.124360 0.095144
H2    H     H_    0.064034 0.678375 0.805618 0.119941
H3    H     H_    0.813531 0.178167 0.633183 0.103760
H4    H     H_    0.976387 0.825076 0.158109 0.110642
H5    H     H_    0.150577 0.835433 0.982973 0.108771
H6    H     H_    0.640016 0.172598 0.812249 0.150193
H7    H     H_    0.795608 0.676512 0.059768 0.108281
H8    H     H_    0.898048 0.326055 0.619732 0.089969
H9    H     H_    0.551285 0.997359 0.004334 0.136610
H10   H     H_    0.540009 0.158739 0.004519 0.139055
H11   H     H_    0.661126 0.341575 0.172650 0.116516
H12   H     H_    0.379493 0.771672 0.207954 0.099916
H13   H     H_    0.811649 0.198354 0.336047 0.125897
H14   H     H_    0.685819 0.017538 0.170609 0.129753
H15   H     H_    0.806707 0.329778 0.474170 0.127908
H16   H     H_    0.921183 0.759617 0.684783 0.165230
H17   H     H_    0.064945 0.930411 0.853748 0.138328
H18   H     H_    0.258735 0.977332 0.917724 0.161496
H19   H     H_    0.305660 0.854779 0.809509 0.195035
H20   H     H_    0.047523 0.931098 0.505902 0.155678
H21   H     H_    0.177362 0.324411 0.843714 0.097152
H22   H     H_    0.066255 0.923953 0.344854 0.121411
H23   H     H_    0.235201 0.947646 0.341168 0.145619
H24   H     H_    0.193999 0.949504 0.660756 0.161178
H25   H     H_    0.513448 0.790480 0.411703 0.143044
H26   H     H_    0.706745 0.925784 0.428922 0.126088
H27   H     H_    0.881634 0.927993 0.486776 0.135311
H28   H     H_    0.985957 0.961375 0.673749 0.144250
H29   H     H_    0.910874 0.983228 0.800736 0.151898
H30   H     H_    0.011365 0.672018 0.347963 0.159515
H31   H     H_    0.477357 0.324044 0.873893 0.155308
H32   H     H_    0.468927 0.358105 0.767598 0.221179
H33   H     H_    0.317170 0.368691 0.754817 0.198324
H34   H     H_    0.323926 0.321157 0.851377 0.158545
H35   H     H_    0.601731 0.488108 0.084876 0.160329
H36   H     H_    0.436567 0.466726 0.061607 0.184832
H37   H     H_    0.626911 0.663106 0.946928 0.145584
H38   H     H_    0.542266 0.551561 0.809851 0.188768
H39   H     H_    0.397555 0.571422 0.816672 0.193816
H40   H     H_    0.353669 0.675139 0.023695 0.088814
H41   H     H_    0.480464 0.670532 0.960504 0.147070
H42   H     H_    0.645540 0.623869 0.107557 0.170317
H43   H     H_    0.491984 0.608990 0.105083 0.152919
H44   H     H_    0.508153 0.311090 0.030796 0.094849
H45   H     H_    0.331785 0.166911 0.867775 0.135483
H46   H     H_    0.170715 0.098963 0.888020 0.119536
H47   H     H_    0.365073 0.314358 0.238569 0.136716
H48   H     H_    0.524296 0.389371 0.215756 0.129826
H49   H     H_    0.211732 0.012578 0.057987 0.130196
H50   H     H_    0.018993 0.177533 0.201826 0.133289
H51   H     H_    0.844052 0.322458 0.168856 0.125858
H52   H     H_    0.830143 0.876729 0.030153 0.156188
H53   H     H_    0.698683 0.823598 0.094378 0.115539
H54   H     H_    0.755411 0.910898 0.291191 0.122344
H55   H     H_    0.943001 0.059512 0.427412 0.146221
H56   H     H_    0.191728 0.739132 0.372840 0.135412
H57   H     H_    0.125416 0.248701 0.948110 0.114341
H58   H     H_    0.624966 0.324238 0.886183 0.120674
N1    N     N_R   0.947080 0.293830 0.002870 -0.040051
N2    N     N_R   0.054040 0.556820 0.847890 -0.044890
N3    N     N_R   0.848290 0.293830 0.791110 -0.044103
N4    N     N_R   0.995680 0.706170 0.053910 -0.039366
N5    N     N_R   0.052920 0.706170 0.997130 -0.041654
N6    N     N_R   0.791050 0.293830 0.847890 -0.056353
N7    N     N_R   0.846330 0.556820 0.053910 -0.038486
N8    N     N_R   0.997640 0.443180 0.791110 -0.044649
N9    N     N_R   0.208950 0.706170 0.152110 -0.042573
N10   N     N_R   0.153670 0.443180 0.946090 -0.039607
N11   N     N_R   0.002360 0.556820 0.208890 -0.058258
N12   N     N_R   0.210070 0.556820 0.002870 -0.034153
N13   N     N_R   0.945960 0.443180 0.152110 -0.050369
N14   N     N_R   0.151710 0.706170 0.208890 -0.055178
N15   N     N_R   0.004320 0.293830 0.946090 -0.043232
N16   N     N_R   0.789930 0.443180 0.997130 -0.046080
Ni1   Ni    Ni4+2 0.869690 0.369690 0.000000 0.238082
Ni2   Ni    Ni4+2 0.130310 0.630310 0.000000 0.218443
Ni3   Ni    Ni4+2 0.000970 0.369690 0.869780 0.226209
Ni4   Ni    Ni4+2 0.999030 0.630310 0.130220 0.218218
Cl1   Cl    Cl    0.897094 0.701458 0.439628 -0.764585
Cl2   Cl    Cl    0.177748 0.651262 0.608242 -0.638972
Br1   Br    Br    0.406413 0.962879 0.707681 -0.566132
Br2   Br    Br    0.493897 0.187032 0.612428 -0.587382
Cl3   Cl    Cl    0.712440 0.976808 0.777857 -0.659532
Cl4   Cl    Cl    0.126771 0.158877 0.406682 -0.656493

loop_
_geom_bond_atom_site_label_1
_geom_bond_atom_site_label_2
_ccdc_geom_bond_type
C58   C62   S    
C66   C68   A    
C63   C65   S    
C41   C42   A    
C1    H1    S    
C51   H26   S    
N11   N13   A    
C33   H18   S    
C18   H10   S    
C73   C74   A    
C1    N1    A    
C35   C36   A    
C12   N9    A    
C2    C12   A    
C9    H5    S    
C71   H48   S    
C81   C82   A    
C19   H11   S    
C10   C16   A    
C20   C30   S    
C34   N11   A    
C52   C53   A    
N2    Ni2   S    
C9    N5    A    
C26   C27   A    
C59   H34   S    
C61   H38   S    
C18   C24   A    
C65   H41   S    
C28   C29   A    
C84   Cl4   S    
C69   C70   A    
C38   C39   A    
N1    N15   A    
C11   C14   A    
C40   C50   S    
C34   H30   S    
C7    H3    S    
C58   H32   S    
C6    H2    S    
C60   C62   S    
C18   C19   A    
C44   Br2   S    
N9    N14   A    
C68   H46   S    
C82   H54   S    
C6    C15   A    
C54   C55   A    
C3    C23   A    
C75   C85   S    
C66   C72   A    
C73   H49   S    
C68   C69   A    
C70   H47   S    
C70   C71   A    
C51   C57   A    
C12   H12   S    
C4    C29   S    
N14   Ni4   S    
C11   H7    S    
N12   Ni2   S    
C21   C22   A    
C4    C56   A    
C38   H22   S    
C80   C85   A    
C8    N4    A    
C25   H15   S    
C44   C46   A    
C7    N3    A    
C60   H35   S    
C77   C79   A    
C76   H50   S    
C4    C34   A    
C22   H14   S    
C74   C75   A    
C51   C52   A    
N4    Ni4   S    
C31   H16   S    
N10   Ni3   S    
C60   H42   S    
N3    N6    A    
C84   C85   A    
C2    C67   A    
C24   H9    S    
C16   C46   S    
C39   C40   A    
C83   H55   S    
C21   H13   S    
C15   C26   S    
C25   C26   A    
C52   H27   S    
C3    C45   A    
C58   H31   S    
C31   C37   A    
C43   H20   S    
C65   H39   S    
C75   C76   A    
C29   C30   A    
C35   H19   S    
C2    C49   S    
C47   C57   S    
C56   N13   A    
C47   C48   A    
C39   H23   S    
C45   H40   S    
C5    N16   A    
C23   H21   S    
C54   H29   S    
C20   C21   A    
C36   Cl2   S    
C73   C79   A    
C32   H17   S    
C45   N12   A    
C76   C77   A    
C72   H44   S    
C5    C14   A    
C28   Cl1   S    
N2    N8    A    
C9    C17   A    
C48   C49   A    
C77   C86   S    
C82   C83   A    
C13   C15   A    
C17   C74   S    
C49   C50   A    
C22   C24   A    
C83   C84   A    
C8    H4    S    
C42   C43   A    
C6    N2    A    
N13   Ni1   S    
C53   H28   S    
C66   H45   S    
C11   N7    A    
C25   C30   A    
C81   H53   S    
N6    Ni1   S    
C46   C47   A    
C36   C37   A    
C59   H33   S    
N10   N12   A    
C31   C32   A    
C7    C16   A    
C13   N8    A    
C80   C81   A    
C5    H58   S    
C53   C54   A    
C3    C63   S    
N11   Ni4   S    
N9    Ni2   S    
C59   C63   S    
C8    C17   A    
C80   H52   S    
C60   C64   S    
C13   H8    S    
C61   H37   S    
C32   C33   A    
C19   C20   A    
C55   C57   A    
C58   C59   S    
C38   C43   A    
N3    Ni3   S    
C78   H57   S    
N7    N16   A    
C56   H51   S    
C78   C86   A    
N1    Ni1   S    
C27   C37   S    
C64   H36   S    
C41   Br1   S    
C33   C35   A    
C67   N14   A    
N15   Ni3   S    
N4    N5    A    
C42   H24   S    
C61   C62   S    
N16   Ni1   S    
N8    Ni3   S    
C69   C79   S    
C10   H6    S    
C63   C64   S    
C61   C65   S    
C78   N15   A    
C1    C86   A    
C48   H25   S    
C71   C72   A    
C64   H43   S    
C44   C50   A    
N7    Ni4   S    
C23   N10   A    
C27   C28   A    
C40   C41   A    
N5    Ni2   S    
C67   H56   S    
C55   Cl3   S    
C10   N6    A    
C14   C62   S    
