data_mof_unit_59540.cif
_audit_creation_date              2012-12-11T16:19:21-0500
_audit_creation_method            fapswitch 2.2
_symmetry_space_group_name_H-M    P1
_symmetry_Int_Tables_number       1
_space_group_crystal_system       orthorhombic
_cell_length_a                    6.945357
_cell_length_b                    31.330316
_cell_length_c                    35.018319
_cell_angle_alpha                 90.0
_cell_angle_beta                  90.0
_cell_angle_gamma                 90.0
_cell_volume                      7619.9942526

loop_
_atom_site_label
_atom_site_type_symbol
_atom_type_description
_atom_site_fract_x
_atom_site_fract_y
_atom_site_fract_z
_atom_type_partial_charge
O1    O     O_R   0.417270 0.211480 0.210950 -0.537391
O2    O     O_R   0.582730 0.788520 0.789050 -0.541637
O3    O     O_R   0.582730 0.788520 0.710950 -0.541637
O4    O     O_R   0.417270 0.211480 0.289050 -0.537391
O5    O     O_R   0.917270 0.288520 0.289050 -0.537391
O6    O     O_R   0.082730 0.711480 0.710950 -0.541637
O7    O     O_R   0.082730 0.711480 0.789050 -0.541637
O8    O     O_R   0.917270 0.288520 0.210950 -0.537391
O9    O     O_R   0.746940 0.206370 0.288750 -0.542608
O10   O     O_R   0.253060 0.793630 0.711250 -0.537225
O11   O     O_R   0.253060 0.793630 0.788750 -0.537225
O12   O     O_R   0.746940 0.206370 0.211250 -0.542608
O13   O     O_R   0.246940 0.293630 0.211250 -0.542608
O14   O     O_R   0.753060 0.706370 0.788750 -0.537225
O15   O     O_R   0.753060 0.706370 0.711250 -0.537225
O16   O     O_R   0.246940 0.293630 0.288750 -0.542608
C1    C     C_R   0.578125 0.196034 0.301954 0.746843
C2    C     C_R   0.421950 0.804096 0.698191 0.746575
C3    C     C_R   0.421950 0.804096 0.801809 0.746575
C4    C     C_R   0.578125 0.196034 0.198045 0.746843
C5    C     C_R   0.078125 0.303965 0.198045 0.746842
C6    C     C_R   0.921950 0.695904 0.801809 0.746576
C7    C     C_R   0.921950 0.695904 0.698191 0.746575
C8    C     C_R   0.078125 0.303965 0.301954 0.746843
O17   O     O_3   0.583760 0.276950 0.250000 -0.368507
O18   O     O_3   0.416240 0.723050 0.750000 -0.369794
O19   O     O_3   0.083760 0.223050 0.250000 -0.368506
O20   O     O_3   0.916240 0.776950 0.750000 -0.369794
V1    V     V_3+5 0.858600 0.245000 0.250000 1.452084
V2    V     V_3+5 0.141400 0.755000 0.750000 1.455050
V3    V     V_3+5 0.358600 0.255000 0.250000 1.452084
V4    V     V_3+5 0.641400 0.745000 0.750000 1.455050
C9    C     C_R   0.000564 0.587079 0.539404 0.654323
C10   C     C_R   0.053598 0.411830 0.462524 0.654873
C11   C     C_R   0.053598 0.411830 0.037475 0.654873
C12   C     C_R   0.000564 0.587079 0.960596 0.654323
C13   C     C_R   0.500564 0.912921 0.960596 0.654323
C14   C     C_R   0.553598 0.088170 0.037475 0.654873
C15   C     C_R   0.553598 0.088170 0.462524 0.654873
C16   C     C_R   0.500564 0.912921 0.539404 0.654323
N1    N     N_R   0.976321 0.572601 0.576144 -0.544204
N2    N     N_R   0.039360 0.425925 0.425461 -0.544099
N3    N     N_R   0.039360 0.425925 0.074539 -0.544099
N4    N     N_R   0.976321 0.572601 0.923856 -0.544204
N5    N     N_R   0.476320 0.927399 0.923856 -0.544204
N6    N     N_R   0.539360 0.074075 0.074539 -0.544099
N7    N     N_R   0.539360 0.074075 0.425461 -0.544099
N8    N     N_R   0.476320 0.927399 0.576144 -0.544204
C17   C     C_R   0.968766 0.529566 0.583641 0.704231
C18   C     C_R   0.017278 0.468661 0.417721 0.708150
C19   C     C_R   0.017278 0.468661 0.082279 0.708150
C20   C     C_R   0.968766 0.529565 0.916359 0.704231
C21   C     C_R   0.468766 0.970434 0.916359 0.704231
C22   C     C_R   0.517278 0.031338 0.082279 0.708150
C23   C     C_R   0.517278 0.031338 0.417721 0.708150
C24   C     C_R   0.468765 0.970434 0.583641 0.704231
C25   C     C_R   0.992281 0.499560 0.554000 -0.055319
C26   C     C_R   0.015455 0.498881 0.447547 -0.053752
C27   C     C_R   0.015455 0.498881 0.052453 -0.053752
C28   C     C_R   0.992281 0.499560 0.946000 -0.055319
C29   C     C_R   0.492281 0.000440 0.946000 -0.055319
C30   C     C_R   0.515455 0.001119 0.052453 -0.053752
C31   C     C_R   0.515455 0.001119 0.447547 -0.053752
C32   C     C_R   0.492280 0.000440 0.554000 -0.055319
C33   C     C_R   0.005285 0.514115 0.516075 -0.012383
C34   C     C_R   0.018027 0.484481 0.485602 -0.012619
C35   C     C_R   0.018027 0.484481 0.014398 -0.012619
C36   C     C_R   0.005286 0.514115 0.983925 -0.012383
C37   C     C_R   0.505286 0.985885 0.983925 -0.012383
C38   C     C_R   0.518027 0.015519 0.014398 -0.012619
C39   C     C_R   0.518027 0.015519 0.485602 -0.012619
C40   C     C_R   0.505286 0.985885 0.516075 -0.012383
C41   C     C_R   0.005357 0.558224 0.508540 -0.042279
C42   C     C_R   0.033091 0.440524 0.493262 -0.044011
C43   C     C_R   0.033091 0.440524 0.006738 -0.044011
C44   C     C_R   0.005357 0.558224 0.991460 -0.042279
C45   C     C_R   0.505357 0.941776 0.991460 -0.042279
C46   C     C_R   0.533091 0.059476 0.006738 -0.044011
C47   C     C_R   0.533090 0.059476 0.493262 -0.044011
C48   C     C_R   0.505358 0.941776 0.508540 -0.042279
C49   C     C_R   0.002373 0.455470 0.561303 -0.101611
C50   C     C_R   0.010398 0.543021 0.440284 -0.100180
C51   C     C_R   0.010398 0.543021 0.059715 -0.100180
C52   C     C_R   0.002373 0.455470 0.938697 -0.101611
C53   C     C_R   0.502373 0.044530 0.938697 -0.101611
C54   C     C_R   0.510398 0.956979 0.059715 -0.100180
C55   C     C_R   0.510398 0.956979 0.440284 -0.100180
C56   C     C_R   0.502372 0.044530 0.561303 -0.101611
C57   C     C_R   0.026721 0.426377 0.531359 -0.106045
C58   C     C_R   0.009635 0.572351 0.470427 -0.105962
C59   C     C_R   0.009635 0.572351 0.029573 -0.105963
C60   C     C_R   0.026721 0.426377 0.968640 -0.106045
C61   C     C_R   0.526721 0.073622 0.968640 -0.106045
C62   C     C_R   0.509635 0.927649 0.029573 -0.105963
C63   C     C_R   0.509636 0.927649 0.470427 -0.105963
C64   C     C_R   0.526720 0.073622 0.531359 -0.106046
O21   O     O_2   0.019431 0.629274 0.532686 -0.487510
O22   O     O_2   0.086933 0.370168 0.469673 -0.485801
O23   O     O_2   0.086933 0.370168 0.030326 -0.485801
O24   O     O_2   0.019431 0.629274 0.967314 -0.487510
O25   O     O_2   0.519431 0.870726 0.967314 -0.487510
O26   O     O_2   0.586933 0.129832 0.030326 -0.485801
O27   O     O_2   0.586933 0.129832 0.469673 -0.485801
O28   O     O_2   0.519431 0.870726 0.532686 -0.487510
O29   O     O_2   0.938286 0.515775 0.619631 -0.466749
O30   O     O_2   0.996781 0.481942 0.381301 -0.467192
O31   O     O_2   0.996781 0.481942 0.118699 -0.467192
O32   O     O_2   0.938286 0.515775 0.880369 -0.466749
O33   O     O_2   0.438286 0.984225 0.880369 -0.466749
O34   O     O_2   0.496781 0.018058 0.118699 -0.467192
O35   O     O_2   0.496782 0.018058 0.381301 -0.467192
O36   O     O_2   0.438285 0.984225 0.619631 -0.466749
H1    H     H_    0.994406 0.443340 0.590220 0.186562
H2    H     H_    0.009944 0.555066 0.411296 0.186467
H3    H     H_    0.009944 0.555066 0.088704 0.186467
H4    H     H_    0.994406 0.443340 0.909780 0.186562
H5    H     H_    0.494406 0.056660 0.909780 0.186562
H6    H     H_    0.509944 0.944934 0.088704 0.186467
H7    H     H_    0.509945 0.944934 0.411296 0.186467
H8    H     H_    0.494405 0.056660 0.590220 0.186562
H9    H     H_    0.036641 0.392716 0.538114 0.184479
H10   H     H_    0.008493 0.606101 0.463746 0.184392
H11   H     H_    0.008493 0.606101 0.036254 0.184392
H12   H     H_    0.036641 0.392716 0.961886 0.184479
H13   H     H_    0.536641 0.107284 0.961886 0.184479
H14   H     H_    0.508494 0.893899 0.036254 0.184392
H15   H     H_    0.508494 0.893899 0.463746 0.184392
H16   H     H_    0.536640 0.107284 0.538114 0.184479
C65   C     C_R   0.203532 0.396216 0.368109 0.434408
C66   C     C_R   0.103726 0.605409 0.635747 0.432879
C67   C     C_R   0.103726 0.605409 0.864253 0.432879
C68   C     C_R   0.203532 0.396216 0.131891 0.434408
C69   C     C_R   0.703532 0.103784 0.131891 0.434408
C70   C     C_R   0.603726 0.894591 0.864253 0.432879
C71   C     C_R   0.603726 0.894591 0.635747 0.432879
C72   C     C_R   0.703532 0.103784 0.368109 0.434408
C73   C     C_R   0.213765 0.366169 0.338484 -0.218006
C74   C     C_R   0.090998 0.635870 0.664920 -0.223122
C75   C     C_R   0.090998 0.635870 0.835080 -0.223121
C76   C     C_R   0.213766 0.366169 0.161515 -0.218006
C77   C     C_R   0.713766 0.133830 0.161515 -0.218006
C78   C     C_R   0.590998 0.864130 0.835080 -0.223121
C79   C     C_R   0.590998 0.864130 0.664920 -0.223121
C80   C     C_R   0.713766 0.133830 0.338484 -0.218006
H17   H     H_    0.334755 0.367138 0.318976 0.175408
H18   H     H_    0.204125 0.637454 0.686182 0.173736
H19   H     H_    0.204125 0.637454 0.813818 0.173735
H20   H     H_    0.334755 0.367138 0.181024 0.175408
H21   H     H_    0.834755 0.132862 0.181024 0.175409
H22   H     H_    0.704125 0.862545 0.813818 0.173735
H23   H     H_    0.704125 0.862545 0.686182 0.173735
H24   H     H_    0.834755 0.132862 0.318976 0.175409
C81   C     C_R   0.067928 0.335651 0.333476 -0.152383
C82   C     C_R   0.932724 0.663570 0.667284 -0.152787
C83   C     C_R   0.932724 0.663570 0.832716 -0.152787
C84   C     C_R   0.067928 0.335651 0.166524 -0.152383
C85   C     C_R   0.567928 0.164348 0.166524 -0.152383
C86   C     C_R   0.432724 0.836430 0.832716 -0.152787
C87   C     C_R   0.432724 0.836430 0.667284 -0.152787
C88   C     C_R   0.567928 0.164348 0.333476 -0.152383
C89   C     C_R   0.912084 0.335361 0.359014 -0.208700
C90   C     C_R   0.786845 0.660508 0.639676 -0.197117
C91   C     C_R   0.786845 0.660508 0.860324 -0.197117
C92   C     C_R   0.912084 0.335361 0.140986 -0.208700
C93   C     C_R   0.412084 0.164639 0.140986 -0.208700
C94   C     C_R   0.286845 0.839491 0.860324 -0.197117
C95   C     C_R   0.286845 0.839491 0.639676 -0.197117
C96   C     C_R   0.412084 0.164639 0.359014 -0.208700
H25   H     H_    0.798586 0.311920 0.355816 0.158110
H26   H     H_    0.663910 0.681734 0.640957 0.158150
H27   H     H_    0.663910 0.681734 0.859043 0.158150
H28   H     H_    0.798586 0.311920 0.144183 0.158110
H29   H     H_    0.298586 0.188080 0.144183 0.158110
H30   H     H_    0.163910 0.818265 0.859043 0.158150
H31   H     H_    0.163910 0.818265 0.640957 0.158150
H32   H     H_    0.298586 0.188080 0.355816 0.158110
C97   C     C_R   0.902480 0.364418 0.389382 0.213096
C98   C     C_R   0.800557 0.631100 0.609570 0.221295
C99   C     C_R   0.800557 0.631100 0.890430 0.221295
C100  C     C_R   0.902480 0.364418 0.110618 0.213096
C101  C     C_R   0.402480 0.135581 0.110618 0.213096
C102  C     C_R   0.300557 0.868900 0.890430 0.221295
C103  C     C_R   0.300557 0.868900 0.609570 0.221295
C104  C     C_R   0.402480 0.135581 0.389382 0.213096
C105  C     C_R   0.048364 0.395470 0.394264 0.235661
C106  C     C_R   0.959835 0.603013 0.607255 0.232205
C107  C     C_R   0.959835 0.603013 0.892744 0.232205
C108  C     C_R   0.048364 0.395470 0.105736 0.235661
C109  C     C_R   0.548364 0.104530 0.105736 0.235660
C110  C     C_R   0.459835 0.896986 0.892744 0.232204
C111  C     C_R   0.459835 0.896986 0.607255 0.232204
C112  C     C_R   0.548364 0.104530 0.394264 0.235661
Cl1   Cl    Cl    0.388691 0.434427 0.371640 -0.544071
Cl2   Cl    Cl    0.303113 0.570717 0.635908 -0.543731
Cl3   Cl    Cl    0.303113 0.570717 0.864092 -0.543731
Cl4   Cl    Cl    0.388692 0.434427 0.128360 -0.544071
Cl5   Cl    Cl    0.888691 0.065573 0.128360 -0.544071
Cl6   Cl    Cl    0.803113 0.929283 0.864092 -0.543731
Cl7   Cl    Cl    0.803113 0.929283 0.635908 -0.543731
Cl8   Cl    Cl    0.888691 0.065573 0.371640 -0.544071
I1    I     I_    0.662196 0.359276 0.426623 -0.223890
I2    I     I_    0.575204 0.631073 0.568511 -0.223877
I3    I     I_    0.575204 0.631073 0.931489 -0.223878
I4    I     I_    0.662196 0.359276 0.073377 -0.223890
I5    I     I_    0.162196 0.140724 0.073377 -0.223890
I6    I     I_    0.075204 0.868927 0.931489 -0.223877
I7    I     I_    0.075204 0.868927 0.568511 -0.223877
I8    I     I_    0.162196 0.140724 0.426623 -0.223890

loop_
_geom_bond_atom_site_label_1
_geom_bond_atom_site_label_2
_ccdc_geom_bond_type
O17   V3    S    
C16   O28   S    
C56   C64   A    
O18   V4    S    
C65   C105  A    
O12   V1    S    
O19   V1    S    
C103  I7    S    
C37   C45   A    
C49   C57   A    
C94   C102  A    
C100  I4    S    
C78   H22   S    
C32   C40   A    
C76   H20   S    
C39   C47   A    
C69   C109  A    
O15   V4    S    
O14   V4    S    
O16   V3    S    
C30   C54   A    
C75   H19   S    
C20   C28   A    
C72   C112  A    
O8    V1    S    
C42   C57   A    
C73   H17   S    
C38   C46   A    
C27   C51   A    
C41   C58   A    
C26   C50   A    
C71   Cl7   S    
C72   C80   A    
C99   C107  A    
C80   C88   A    
C46   C61   A    
C29   C37   A    
C34   C42   A    
C45   C62   A    
O1    V3    S    
C97   C105  A    
C30   C38   A    
O3    C2    A    
O2    V4    S    
N7    C112  S    
C1    C88   S    
C16   N8    A    
C70   C110  A    
N8    C111  S    
C2    C87   S    
C54   C62   A    
C27   C35   A    
C21   C29   A    
C26   C34   A    
C95   C103  A    
C68   C76   A    
O11   V2    S    
C10   N2    A    
C96   C104  A    
C23   C31   A    
C16   C48   A    
C56   H8    S    
C11   N3    A    
C92   C100  A    
O9    V1    S    
C89   H25   S    
O15   C7    A    
N4    C20   A    
C79   H23   S    
N7    C23   A    
N5    C21   A    
O16   C8    A    
O7    V2    S    
C59   H11   S    
C12   C44   A    
O12   C4    A    
C58   H10   S    
C68   C108  A    
O3    V4    S    
C101  C109  A    
C78   C86   A    
C11   O23   S    
N1    C17   A    
C65   C73   A    
C82   C90   A    
O5    V1    S    
C6    C83   S    
C62   H14   S    
C76   C84   A    
O17   V1    S    
C94   H30   S    
C72   Cl8   S    
C77   H21   S    
C35   C36   A    
C18   C26   A    
C51   H3    S    
O20   V4    S    
C68   Cl4   S    
C50   H2    S    
C54   H6    S    
C33   C41   A    
C85   C93   A    
C17   O29   S    
C14   C46   A    
C83   C91   A    
C13   C45   A    
C40   C48   A    
C55   C63   A    
C102  I6    S    
C22   O34   S    
C15   C47   A    
C44   C59   A    
C101  I5    S    
C55   H7    S    
C70   C78   A    
C64   H16   S    
C49   H1    S    
O10   V2    S    
C52   C60   A    
C53   C61   A    
C90   H26   S    
C75   C83   A    
N2    C18   A    
O11   C3    A    
N6    C22   A    
C104  C112  A    
O8    C5    A    
O13   C5    A    
C12   O24   S    
O9    C1    A    
C48   C63   A    
C53   H5    S    
C71   C111  A    
C100  C108  A    
C29   C53   A    
C43   C60   A    
C10   C42   A    
C96   H32   S    
O4    C1    A    
C77   C85   A    
N2    C105  S    
C19   O31   S    
O6    V2    S    
C31   C39   A    
O18   V2    S    
C4    C85   S    
C98   I2    S    
O19   V3    S    
C91   C99   A    
C97   I1    S    
C12   N4    A    
C23   O35   S    
C35   C43   A    
N6    C109  S    
C89   C97   A    
C66   C74   A    
C91   H27   S    
C8    C81   S    
C86   C94   A    
C15   N7    A    
C9    C41   A    
N8    C24   A    
C92   H28   S    
C73   C81   A    
O1    C4    A    
C69   Cl5   S    
C70   Cl6   S    
C31   C55   A    
O2    C3    A    
C3    C86   S    
O13   V3    S    
C67   Cl3   S    
C11   C43   A    
C99   I3    S    
C66   Cl2   S    
C103  C111  A    
C17   C25   A    
C65   Cl1   S    
C66   C106  A    
C15   O27   S    
C36   C44   A    
O7    C6    A    
C51   C59   A    
C69   C77   A    
C50   C58   A    
C74   H18   S    
C9    N1    A    
O14   C6    A    
C60   H12   S    
C84   C92   A    
C93   C101  A    
C39   C40   A    
C14   O26   S    
C24   O36   S    
C14   N6    A    
C13   O25   S    
C28   C52   A    
N3    C19   A    
C24   C32   A    
O5    C8    A    
C57   H9    S    
N3    C108  S    
O10   C2    A    
O6    C7    A    
O20   V2    S    
C71   C79   A    
C10   O22   S    
C5    C84   S    
C87   C95   A    
N1    C106  S    
C95   H31   S    
C9    O21   S    
C79   C87   A    
C88   C96   A    
C37   C38   A    
C25   C49   A    
C61   H13   S    
C90   C98   A    
O4    V3    S    
C67   C75   A    
N4    C107  S    
C98   C106  A    
C63   H15   S    
N5    C110  S    
C47   C64   A    
C19   C27   A    
C28   C36   A    
C52   H4    S    
C33   C34   A    
C7    C82   S    
C81   C89   A    
C18   O30   S    
C104  I8    S    
C22   C30   A    
C20   O32   S    
C21   O33   S    
C102  C110  A    
C74   C82   A    
C93   H29   S    
C13   N5    A    
C32   C56   A    
C80   H24   S    
C25   C33   A    
C67   C107  A    
