data_mof_unit_9019.cif
_audit_creation_date              2012-12-10T18:43:47-0500
_audit_creation_method            fapswitch 2.2
_symmetry_space_group_name_H-M    P1
_symmetry_Int_Tables_number       1
_space_group_crystal_system       triclinic
_cell_length_a                    10.718196
_cell_length_b                    10.650227
_cell_length_c                    9.897514
_cell_angle_alpha                 91.253487
_cell_angle_beta                  104.996343
_cell_angle_gamma                 89.821903
_cell_volume                      1091.06954031

loop_
_atom_site_label
_atom_site_type_symbol
_atom_type_description
_atom_site_fract_x
_atom_site_fract_y
_atom_site_fract_z
_atom_type_partial_charge
C1    C     C_R   0.504916 0.260340 0.499967 0.946090
C2    C     C_2   0.882227 0.473959 0.591941 0.237286
C3    C     C_2   0.066854 0.429221 0.496402 -0.196747
C4    C     C_2   0.930090 0.436314 0.484761 -0.075525
C5    C     C_R   0.596115 0.058009 0.449677 0.388272
C6    C     C_R   0.402109 0.941448 0.551187 0.377014
C7    C     C_R   0.588504 0.929214 0.451024 -0.266092
C8    C     C_R   0.408457 0.070443 0.547813 -0.281296
C9    C     C_R   0.493406 0.871976 0.501518 -0.215712
C10   C     C_R   0.503887 0.127691 0.497522 -0.196254
C11   C     C_R   0.493754 0.739476 0.499676 0.960379
C12   C     C_R   0.258053 0.495863 0.440015 0.848611
C13   C     C_R   0.742697 0.495558 0.559301 0.838915
C14   C     C_R   0.571631 0.585031 0.095362 -0.080544
C15   C     C_R   0.427620 0.415311 0.904808 -0.083112
C16   C     C_R   0.570259 0.587115 0.952304 0.288877
C17   C     C_R   0.425832 0.416003 0.047359 0.257931
C18   C     C_2   0.118865 0.481750 0.401838 0.243777
H1    H     H_    0.867152 0.419710 0.380897 0.239548
H2    H     H_    0.152173 0.822093 0.406657 0.365914
H3    H     H_    0.128194 0.391983 0.592159 0.201769
H4    H     H_    0.628121 0.653400 0.168240 0.181045
H5    H     H_    0.369161 0.348274 0.831761 0.166247
H6    H     H_    0.659082 0.872394 0.416594 0.208553
H7    H     H_    0.338629 0.127290 0.583494 0.197338
H8    H     H_    0.938219 0.626439 0.912202 0.413457
H9    H     H_    0.145702 0.686774 0.194101 0.359070
H10   H     H_    0.628065 0.172660 0.195533 0.358365
I1    I     I_    0.674832 0.737600 0.898262 -0.128549
I2    I     I_    0.299144 0.285899 0.101443 -0.105344
N1    N     N_R   0.499970 0.499970 0.857200 -0.118744
N2    N     N_R   0.500030 0.500030 0.142800 -0.120845
O1    O     O_R   0.499990 0.316750 0.614620 -0.629939
O2    O     O_2   0.090033 0.582101 0.765655 -0.255301
O3    O     O_3   0.897891 0.544905 0.875552 -0.453439
O4    O     O_2   0.952463 0.430823 0.154685 -0.184758
O5    O     O_2   0.930406 0.634701 0.264265 -0.310045
O6    O     O_3   0.120312 0.603864 0.148190 -0.480772
O7    O     O_2   0.806699 0.198760 0.532789 -0.279992
O8    O     O_2   0.816663 0.027357 0.368276 -0.238116
O9    O     O_3   0.683747 0.224422 0.271844 -0.518760
O10   O     O_2   0.331157 0.802971 0.742523 -0.212331
O11   O     O_2   0.183587 0.969935 0.637156 -0.235196
O12   O     O_R   0.500010 0.683250 0.385380 -0.633329
O13   O     O_3   0.194182 0.769654 0.487084 -0.551149
O14   O     O_R   0.499990 0.316780 0.385290 -0.578160
O15   O     O_R   0.500010 0.683220 0.614710 -0.553502
O16   O     O_R   0.317810 0.500000 0.571850 -0.595004
O17   O     O_R   0.682190 0.500000 0.428150 -0.614257
O18   O     O_R   0.317810 0.500030 0.342520 -0.570707
O19   O     O_R   0.682190 0.499970 0.657480 -0.550041
O20   O     O_2   0.039238 0.366763 0.814012 -0.212111
S1    S     S_3+6 0.982073 0.491922 0.765013 0.104561
S2    S     S_3+6 0.025578 0.538657 0.239273 0.073927
S3    S     S_3+6 0.730880 0.126557 0.406483 0.056940
S4    S     S_3+6 0.275683 0.871813 0.609581 0.085536
Zn1   Zn    Zn3+2 0.500000 0.499980 0.653120 1.077890
Zn2   Zn    Zn3+2 0.500000 0.500020 0.346880 1.048360

loop_
_geom_bond_atom_site_label_1
_geom_bond_atom_site_label_2
_ccdc_geom_bond_type
O12   Zn2   S    
C2    C4    D    
C15   N1    A    
O19   Zn1   S    
O1    Zn1   S    
O3    S1    S    
O11   S4    D    
C11   O15   A    
H2    O13   S    
O6    S2    S    
N2    Zn2   S    
C12   O16   A    
O8    S3    D    
O7    S3    D    
C7    C9    A    
C14   H4    S    
C6    C9    A    
C15   H5    S    
C1    O1    A    
O16   Zn1   S    
O14   Zn2   S    
C16   N1    A    
C6    S4    S    
C17   I2    S    
C9    C11   S    
N1    Zn1   S    
O2    S1    D    
C13   O17   A    
O5    S2    D    
C2    C13   S    
C5    C7    A    
C14   C16   A    
C1    O14   A    
C3    H3    S    
O4    S2    D    
C18   S2    S    
H9    O6    S    
C8    H7    S    
C3    C4    S    
O18   Zn2   S    
C11   O12   A    
H10   O9    S    
C5    C10   A    
O20   S1    D    
C3    C18   D    
C8    C10   A    
C1    C10   S    
C12   C18   S    
H8    O3    S    
C15   C17   A    
C17   N2    A    
O9    S3    S    
C6    C8    A    
O10   S4    D    
C16   I1    S    
C13   O19   A    
C4    H1    S    
C5    S3    S    
O15   Zn1   S    
O17   Zn2   S    
C7    H6    S    
O13   S4    S    
C14   N2    A    
C12   O18   A    
C2    S1    S    
