data_mof_unit_44792.cif
_audit_creation_date              2012-12-10T20:37:35-0500
_audit_creation_method            fapswitch 2.2
_symmetry_space_group_name_H-M    P1
_symmetry_Int_Tables_number       1
_space_group_crystal_system       triclinic
_cell_length_a                    15.726416
_cell_length_b                    10.694239
_cell_length_c                    9.991181
_cell_angle_alpha                 91.089814
_cell_angle_beta                  88.450165
_cell_angle_gamma                 90.478911
_cell_volume                      1679.36704182

loop_
_atom_site_label
_atom_site_type_symbol
_atom_type_description
_atom_site_fract_x
_atom_site_fract_y
_atom_site_fract_z
_atom_type_partial_charge
Br1   Br    Br    0.433143 0.867573 0.875848 -0.278887
Br2   Br    Br    0.309739 0.145651 0.604412 -0.269301
Br3   Br    Br    0.680519 0.441348 0.132844 -0.290894
Br4   Br    Br    0.259266 0.561826 0.867860 -0.234135
Br5   Br    Br    0.939991 0.544303 0.188069 -0.229178
Br6   Br    Br    0.624812 0.156700 0.261342 -0.268095
Br7   Br    Br    0.316100 0.836565 0.616746 -0.265462
C1    C     C_R   0.503264 0.260513 0.498820 0.945874
C2    C     C_R   0.515258 0.128684 0.498864 -0.146198
C3    C     C_R   0.566020 0.065192 0.400500 0.210430
C4    C     C_R   0.338185 0.499265 0.501537 0.924894
C5    C     C_R   0.571863 0.933652 0.405225 0.286040
C6    C     C_R   0.521702 0.870883 0.504409 -0.229756
C7    C     C_R   0.487883 0.938688 0.612848 -0.026410
C8    C     C_3   0.408709 0.929380 0.699457 0.438442
C9    C     C_3   0.405349 0.072799 0.695579 0.062585
C10   C     C_R   0.426232 0.512638 0.073805 0.039389
C11   C     C_R   0.573767 0.496347 0.066581 0.294809
C12   C     C_3   0.082915 0.491011 0.500611 -0.245267
C13   C     C_R   0.573396 0.518118 0.927284 0.313903
C14   C     C_R   0.426603 0.513827 0.933072 0.047067
C15   C     C_3   0.344882 0.445985 0.923024 0.041399
C16   C     C_R   0.506609 0.739089 0.500730 0.972016
C17   C     C_3   0.345999 0.434324 0.075524 0.116906
C18   C     C_R   0.661520 0.495812 0.498173 0.919249
C19   C     C_3   0.968395 0.377454 0.531200 -0.334390
C20   C     C_3   0.030288 0.402886 0.411760 0.291803
C21   C     C_1   0.249164 0.495977 0.504620 -0.009213
C22   C     C_1   0.750193 0.492141 0.492967 0.022592
C23   C     C_3   0.967917 0.579440 0.578001 0.290649
C24   C     C_3   0.021307 0.467518 0.619607 0.350610
C25   C     C_3   0.915907 0.490621 0.489294 -0.205529
C26   C     C_3   0.029204 0.602393 0.457971 0.158282
C27   C     C_3   0.976267 0.513949 0.368644 0.161536
C28   C     C_1   0.173849 0.493127 0.504574 0.223724
C29   C     C_1   0.825317 0.490492 0.489145 0.188855
C30   C     C_R   0.484815 0.064696 0.609829 -0.084572
H1    H     H_    0.417659 0.119354 0.793533 0.148951
H2    H     H_    0.979141 0.332634 0.947532 0.431238
H3    H     H_    0.716516 0.777348 0.451797 0.366279
H4    H     H_    0.349946 0.357639 0.862968 0.164678
H5    H     H_    0.292004 0.481373 0.129348 0.188493
H6    H     H_    0.942279 0.284790 0.560275 0.232190
H7    H     H_    0.958133 0.174100 0.299347 0.373772
H8    H     H_    0.764795 0.470914 0.874989 0.406394
H9    H     H_    0.467891 0.237451 0.991806 0.324556
H10   H     H_    0.950392 0.805171 0.323975 0.382577
H11   H     H_    0.977950 0.861130 0.791115 0.411583
N1    N     N_R   0.499430 0.499140 0.142800 -0.123212
N2    N     N_R   0.499430 0.499180 0.857150 -0.189236
O1    O     O_R   0.500010 0.316790 0.614690 -0.651872
O2    O     O_2   0.124557 0.194944 0.379601 -0.163465
O3    O     O_3   0.994175 0.207905 0.225486 -0.452712
O4    O     O_2   0.636825 0.697833 0.762156 -0.220625
O5    O     O_2   0.702837 0.678974 0.976128 -0.156214
O6    O     O_3   0.735718 0.506624 0.798063 -0.516168
O7    O     O_2   0.339979 0.262904 0.270735 -0.190165
O8    O     O_2   0.298187 0.192219 0.048481 -0.183578
O9    O     O_3   0.459075 0.226397 0.089363 -0.487736
O10   O     O_2   0.127313 0.803111 0.510731 -0.134340
O11   O     O_2   0.120381 0.733928 0.276303 -0.198087
O12   O     O_R   0.500000 0.316760 0.385350 -0.530285
O13   O     O_3   0.989947 0.850190 0.383786 -0.428389
O14   O     O_2   0.860201 0.771951 0.616340 -0.269991
O15   O     O_2   0.887162 0.642383 0.810590 -0.167954
O16   O     O_3   0.005609 0.796713 0.732633 -0.419803
O17   O     O_2   0.121155 0.343621 0.785351 -0.214317
O18   O     O_2   0.063800 0.545499 0.866719 -0.151955
O19   O     O_3   0.961067 0.354460 0.856743 -0.491627
O20   O     O_2   0.591427 0.793232 0.181077 -0.184348
O21   O     O_2   0.712790 0.927069 0.234338 -0.179510
O22   O     O_3   0.687436 0.734367 0.376893 -0.541662
O23   O     O_R   0.376780 0.500010 0.614650 -0.593414
O24   O     O_R   0.376770 0.499970 0.385310 -0.608591
O25   O     O_R   0.500000 0.683240 0.614650 -0.566024
O26   O     O_R   0.499990 0.683210 0.385310 -0.560631
O27   O     O_R   0.623230 0.500030 0.614690 -0.556909
O28   O     O_R   0.623220 0.499990 0.385350 -0.552989
O29   O     O_2   0.130113 0.345560 0.197635 -0.192120
S1    S     S_3+6 0.073455 0.285114 0.301629 0.154752
S2    S     S_3+6 0.662534 0.605464 0.864423 0.155328
S3    S     S_3+6 0.359229 0.274620 0.123515 0.116389
S4    S     S_3+6 0.070206 0.750315 0.405490 0.179733
S5    S     S_3+6 0.926364 0.699735 0.687405 0.162388
S6    S     S_3+6 0.045423 0.428448 0.786918 0.157241
S7    S     S_3+6 0.641938 0.848886 0.293265 0.138490
Zn1   Zn    Zn3+2 0.500010 0.500020 0.653130 1.063150
Zn2   Zn    Zn3+2 0.499990 0.499980 0.346870 1.135982

loop_
_geom_bond_atom_site_label_1
_geom_bond_atom_site_label_2
_ccdc_geom_bond_type
C19   C25   S    
C24   S6    S    
H9    O9    S    
C17   H5    S    
O9    S3    S    
C16   O26   A    
C12   C24   S    
O6    S2    S    
C22   C29   T    
C19   C20   S    
C18   O27   A    
C25   C29   S    
O8    S3    D    
H10   O13   S    
C23   C24   S    
O10   S4    D    
C15   H4    S    
C8    C9    S    
C6    C16   S    
Br3   C11   S    
C17   S3    S    
O14   S5    D    
C13   N2    A    
H7    O3    S    
O23   Zn1   S    
C21   C28   T    
C1    C2    S    
Br1   C8    S    
C6    C7    A    
O5    S2    D    
Br2   C9    S    
C2    C3    A    
O26   Zn2   S    
C9    C30   S    
Br7   C8    S    
C19   C24   S    
C14   C15   S    
O18   S6    D    
N1    Zn2   S    
C14   N2    A    
C19   H6    S    
C20   C27   S    
C18   C22   S    
O17   S6    D    
C10   C17   S    
C18   O28   A    
O3    S1    S    
H8    O6    S    
C20   S1    S    
O11   S4    D    
C10   N1    A    
O15   S5    D    
C12   C26   S    
O12   Zn2   S    
C10   C14   A    
O13   S4    S    
C25   C27   S    
O21   S7    D    
Br4   C15   S    
Br5   C27   S    
C2    C30   A    
C26   C27   S    
H2    O19   S    
C26   S4    S    
C1    O1    A    
C3    C5    A    
N2    Zn1   S    
O25   Zn1   S    
C4    O23   A    
C15   C17   S    
O1    Zn1   S    
O20   S7    D    
O19   S6    S    
O28   Zn2   S    
H3    O22   S    
C23   C26   S    
C7    C8    S    
C16   O25   A    
C4    O24   A    
Br6   C3    S    
O22   S7    S    
C5    S7    S    
O24   Zn2   S    
C12   C28   S    
C7    C30   A    
C23   C25   S    
C13   S2    S    
C4    C21   S    
C11   C13   A    
C23   S5    S    
O16   S5    S    
O29   S1    D    
C5    C6    A    
O27   Zn1   S    
C9    H1    S    
O7    S3    D    
H11   O16   S    
O2    S1    D    
O4    S2    D    
C11   N1    A    
C1    O12   A    
C12   C20   S    
