data_mof_unit_51015.cif
_audit_creation_date              2012-10-26T19:03:27-0400
_audit_creation_method            fapswitch 2.2
_symmetry_space_group_name_H-M    P1
_symmetry_Int_Tables_number       1
_space_group_crystal_system       triclinic
_cell_length_a                    10.783637
_cell_length_b                    12.983689
_cell_length_c                    11.705661
_cell_angle_alpha                 100.163569
_cell_angle_beta                  91.870519
_cell_angle_gamma                 92.522282
_cell_volume                      1610.28379208

loop_
_atom_site_label
_atom_site_type_symbol
_atom_type_description
_atom_site_fract_x
_atom_site_fract_y
_atom_site_fract_z
_atom_type_partial_charge
C1    C     C_R   0.492907 0.298758 0.477822 0.600929
C2    C     C_R   0.423485 0.121336 0.362037 0.265910
C3    C     C_R   0.528034 0.136994 0.551934 -0.169194
C4    C     C_R   0.262769 0.498202 0.502003 0.619043
C5    C     C_R   0.514691 0.029253 0.545285 -0.036476
C6    C     C_R   0.449487 0.965842 0.448793 0.018363
C7    C     C_R   0.427984 0.858324 0.451249 0.249646
C8    C     C_R   0.559382 0.876821 0.627493 -0.181056
C9    C     C_R   0.566957 0.984476 0.634659 -0.130504
C10   C     C_R   0.372155 0.408085 0.027598 -0.120356
C11   C     C_R   0.384949 0.417440 0.148364 0.085364
C12   C     C_R   0.074722 0.597152 0.543304 -0.025747
C13   C     C_R   0.556380 0.538768 0.154641 0.069901
C14   C     C_R   0.545962 0.533354 0.032724 -0.015577
C15   C     C_R   0.453281 0.466086 0.967819 0.022717
C16   C     C_R   0.495679 0.700338 0.522038 0.532390
C17   C     C_R   0.444223 0.459321 0.845296 0.375490
C18   C     C_R   0.611793 0.585816 0.853334 0.025376
C19   C     C_R   0.625259 0.593537 0.974539 -0.165082
C20   C     C_R   0.737729 0.507443 0.498572 0.516257
C21   C     C_R   0.146738 0.687057 0.596643 -0.076401
C22   C     C_R   0.093567 0.782693 0.625848 -0.078560
C23   C     C_R   0.129381 0.500941 0.507761 0.024675
C24   C     C_R   0.971336 0.795061 0.590202 0.049637
C25   C     C_R   0.900353 0.707201 0.526568 0.037258
C26   C     C_R   0.946345 0.604292 0.521520 -0.005818
C27   C     C_3   0.922704 0.903891 0.619096 -0.295739
C28   C     C_3   0.967392 0.973401 0.534512 -0.387452
C29   C     C_3   0.802689 0.727003 0.437428 -0.278509
C30   C     C_3   0.850975 0.702570 0.314814 -0.412277
C31   C     C_3   0.849266 0.307563 0.439416 -0.240115
C32   C     C_3   0.823773 0.274443 0.308758 -0.388467
C33   C     C_R   0.057270 0.408252 0.469612 0.215737
C34   C     C_R   0.927531 0.410337 0.467604 0.002825
C35   C     C_R   0.872151 0.508551 0.492026 -0.018232
C36   C     C_R   0.492661 0.813572 0.534815 -0.001592
C37   C     C_R   0.480644 0.184184 0.462886 -0.017293
C38   C     C_R   0.411292 0.012277 0.353510 0.287641
Cl1   Cl    Cl    0.131442 0.288544 0.430156 -0.561116
Cl2   Cl    Cl    0.362894 0.175828 0.244821 -0.491655
Cl3   Cl    Cl    0.331261 0.371412 0.763739 -0.550127
Cl4   Cl    Cl    0.303187 0.782682 0.369576 -0.528963
Cl5   Cl    Cl    0.366958 0.936909 0.215447 -0.438962
Cu1   Cu    Cu3+1 0.509250 0.507730 0.615930 1.020923
Cu2   Cu    Cu3+1 0.490750 0.492270 0.384070 1.024844
H1    H     H_    0.618081 0.032406 0.707802 0.135835
H2    H     H_    0.607099 0.842804 0.693641 0.137356
H3    H     H_    0.928530 0.051857 0.557218 0.150953
H4    H     H_    0.070409 0.983183 0.539687 0.198300
H5    H     H_    0.936486 0.938868 0.443967 0.172518
H6    H     H_    0.820083 0.901176 0.620900 0.135339
H7    H     H_    0.955624 0.940831 0.708578 0.155652
H8    H     H_    0.784029 0.727707 0.252386 0.133722
H9    H     H_    0.941569 0.745674 0.310603 0.201176
H10   H     H_    0.862786 0.617208 0.288701 0.160776
H11   H     H_    0.716781 0.681278 0.442232 0.171100
H12   H     H_    0.576197 0.184560 0.627234 0.152234
H13   H     H_    0.774634 0.808938 0.450950 0.141258
H14   H     H_    0.765204 0.200410 0.291432 0.150842
H15   H     H_    0.773829 0.335442 0.273067 0.177406
H16   H     H_    0.912159 0.261232 0.263602 0.204638
H17   H     H_    0.895905 0.244118 0.473683 0.188626
H18   H     H_    0.759736 0.312928 0.483400 0.137628
H19   H     H_    0.673207 0.632841 0.809598 0.133803
H20   H     H_    0.297950 0.356257 0.982793 0.175878
H21   H     H_    0.697060 0.646410 0.022376 0.109719
H22   H     H_    0.320185 0.374577 0.193210 0.199158
H23   H     H_    0.627131 0.589872 0.205702 0.116157
H24   H     H_    0.244295 0.684262 0.619213 0.146545
H25   H     H_    0.150519 0.849211 0.671154 0.134969
N1    N     N_R   0.523180 0.519350 0.790130 -0.225322
N2    N     N_R   0.476820 0.480650 0.209890 -0.233376
O1    O     O_R   0.506570 0.354460 0.582000 -0.459823
O2    O     O_R   0.490940 0.341410 0.386200 -0.458055
O3    O     O_R   0.327470 0.506530 0.597920 -0.454653
O4    O     O_R   0.311840 0.493480 0.402120 -0.468520
O5    O     O_R   0.509060 0.658590 0.613800 -0.532303
O6    O     O_R   0.493430 0.645540 0.418000 -0.470914
O7    O     O_R   0.688160 0.506520 0.597880 -0.512956
O8    O     O_R   0.672530 0.493470 0.402080 -0.535321

loop_
_geom_bond_atom_site_label_1
_geom_bond_atom_site_label_2
_ccdc_geom_bond_type
C7    C36   A    
C24   C27   S    
Cu1   Cu2   S    
C30   H9    S    
C12   C23   A    
C33   Cl1   S    
Cu1   N1    S    
Cu2   O4    S    
C1    O2    A    
Cu1   O5    S    
C32   H16   S    
C16   O5    A    
C10   C15   A    
C5    C6    A    
C19   H21   S    
C34   C35   A    
C8    C36   A    
C7    Cl4   S    
C4    O3    A    
C20   C35   S    
C28   H5    S    
C11   H22   S    
C8    C9    A    
C23   C33   A    
C6    C38   A    
Cu2   O6    S    
C1    C37   S    
C9    H1    S    
C13   C14   A    
Cu2   N2    S    
C31   H17   S    
C27   H6    S    
C25   C29   S    
C30   H8    S    
C20   O8    A    
C31   H18   S    
C24   C25   A    
C4    C23   S    
C11   N2    A    
C18   C19   A    
C25   C26   A    
C12   C21   A    
C12   C26   A    
Cu2   O2    S    
Cu1   O3    S    
C5    C9    A    
C29   C30   S    
C28   H4    S    
C2    C38   A    
C31   C32   S    
C33   C34   A    
C31   C34   S    
C3    H12   S    
C13   N2    A    
C17   N1    A    
C22   C24   A    
C32   H15   S    
C27   H7    S    
C10   H20   S    
C18   N1    A    
C15   C17   A    
C28   H3    S    
C20   O7    A    
C14   C19   A    
Cu1   O7    S    
C3    C5    A    
C6    C7    A    
C29   H11   S    
C30   H10   S    
C1    O1    A    
C8    H2    S    
C38   Cl5   S    
C16   C36   S    
C2    C37   A    
C18   H19   S    
Cu2   O8    S    
C16   O6    A    
Cu1   O1    S    
C17   Cl3   S    
C4    O4    A    
C10   C11   A    
C2    Cl2   S    
C26   C35   A    
C29   H13   S    
C3    C37   A    
C21   H24   S    
C27   C28   S    
C14   C15   A    
C32   H14   S    
C21   C22   A    
C22   H25   S    
C13   H23   S    
