data_mof_unit_20125.cif
_audit_creation_date              2012-10-26T21:01:02-0400
_audit_creation_method            fapswitch 2.2
_symmetry_space_group_name_H-M    P1
_symmetry_Int_Tables_number       1
_space_group_crystal_system       triclinic
_cell_length_a                    10.920982
_cell_length_b                    10.842053
_cell_length_c                    9.593368
_cell_angle_alpha                 90.036539
_cell_angle_beta                  89.016668
_cell_angle_gamma                 91.397866
_cell_volume                      1135.40573126

loop_
_atom_site_label
_atom_site_type_symbol
_atom_type_description
_atom_site_fract_x
_atom_site_fract_y
_atom_site_fract_z
_atom_type_partial_charge
C1    C     C_R   0.507341 0.262833 0.499167 0.592245
C2    C     C_R   0.411465 0.440209 0.079154 0.084818
C3    C     C_R   0.409934 0.437397 0.931620 0.359589
C4    C     C_R   0.265458 0.501956 0.500757 0.586359
C5    C     C_R   0.582738 0.571625 0.924514 0.127257
C6    C     C_3   0.718736 0.563446 0.916272 -0.265773
C7    C     C_3   0.718566 0.562400 0.074077 -0.262115
C8    C     C_R   0.501086 0.737263 0.499992 0.544651
C9    C     C_R   0.734529 0.498315 0.499348 0.549429
C10   C     C_2   0.935299 0.503892 0.385266 -0.125939
C11   C     C_2   0.866390 0.490398 0.501007 -0.093654
C12   C     C_R   0.512437 0.129053 0.496316 -0.021049
C13   C     C_2   0.068860 0.496382 0.386292 -0.141347
C14   C     C_2   0.133472 0.509827 0.503150 -0.086259
C15   C     C_R   0.468185 0.064067 0.613367 -0.009816
C16   C     C_R   0.549720 0.061937 0.375565 0.188373
C17   C     C_R   0.538949 0.933439 0.377154 -0.149777
C18   C     C_R   0.501304 0.870314 0.498295 -0.060599
C19   C     C_R   0.463572 0.936793 0.614746 0.101560
C20   C     C_3   0.507525 0.930324 0.761012 0.106265
C21   C     C_3   0.512342 0.070323 0.760277 -0.186584
C22   C     C_R   0.582787 0.571350 0.071531 0.138366
Cu1   Cu    Cu3+1 0.499990 0.499980 0.640670 1.074537
Cu2   Cu    Cu3+1 0.500010 0.500020 0.359330 1.031395
H1    H     H_    0.893414 0.518694 0.285453 0.149294
H2    H     H_    0.090668 0.530923 0.602476 0.138065
H3    H     H_    0.567306 0.881957 0.285862 0.176789
H4    H     H_    0.597890 0.885836 0.770904 0.125222
H5    H     H_    0.444513 0.112516 0.832324 0.227432
H6    H     H_    0.090889 0.409987 0.834590 0.358276
H7    H     H_    0.457398 0.119428 0.104753 0.342739
H8    H     H_    0.452370 0.881846 0.944908 0.330814
H9    H     H_    0.607006 0.109726 0.767458 0.129757
H10   H     H_    0.341695 0.392004 0.140629 0.176649
H11   H     H_    0.749872 0.475126 0.870425 0.167485
H12   H     H_    0.762726 0.648009 0.870534 0.140376
H13   H     H_    0.747930 0.472801 0.116825 0.192725
H14   H     H_    0.763132 0.645956 0.119832 0.137360
H15   H     H_    0.905712 0.470473 0.601152 0.101347
H16   H     H_    0.114781 0.481679 0.286495 0.172324
N1    N     N_R   0.500780 0.500930 0.147930 -0.257475
N2    N     N_R   0.500780 0.500890 0.852020 -0.250552
O1    O     O_R   0.500000 0.319640 0.618810 -0.476078
O2    O     O_2   0.231887 0.264866 0.975719 -0.316211
O3    O     O_3   0.167413 0.459776 0.845452 -0.538770
O4    O     O_2   0.710256 0.231162 0.268838 -0.239781
O5    O     O_2   0.691666 0.035551 0.144047 -0.297431
O6    O     O_3   0.515307 0.189069 0.122995 -0.511621
O7    O     O_3   0.415937 0.882154 0.850868 -0.646825
O8    O     O_R   0.500010 0.319680 0.381230 -0.430126
O9    O     O_R   0.321940 0.499980 0.618760 -0.405988
O10   O     O_R   0.321950 0.500020 0.381180 -0.533942
O11   O     O_R   0.499990 0.680320 0.618770 -0.482595
O12   O     O_R   0.500000 0.680360 0.381190 -0.517299
O13   O     O_R   0.678050 0.499980 0.618820 -0.533433
O14   O     O_R   0.678060 0.500020 0.381240 -0.489753
O15   O     O_2   0.297222 0.286319 0.735078 -0.260435
S1    S     S_3+6 0.277576 0.356309 0.867757 0.021415
S2    S     S_3+6 0.622086 0.130084 0.225920 0.018312

loop_
_geom_bond_atom_site_label_1
_geom_bond_atom_site_label_2
_ccdc_geom_bond_type
C8    O11   A    
Cu2   O10   S    
Cu2   O12   S    
C11   H15   S    
C5    N2    A    
C10   C13   S    
C3    N2    A    
Cu1   O13   S    
C6    C7    S    
C9    O13   A    
O4    S2    D    
Cu2   O14   S    
C7    C22   S    
C20   H4    S    
C1    O8    A    
H6    O3    S    
Cu1   O9    S    
C19   C20   S    
C12   C15   A    
Cu1   Cu2   S    
C2    H10   S    
C2    C3    A    
C7    H13   S    
C4    C14   S    
C13   C14   D    
C14   H2    S    
C15   C19   A    
Cu2   N1    S    
C9    C11   S    
O15   S1    D    
C20   O7    S    
Cu1   N2    S    
C4    O10   A    
C10   H1    S    
C7    H14   S    
C6    H12   S    
Cu1   O11   S    
H7    O6    S    
Cu2   O8    S    
C5    C6    S    
O3    S1    S    
C8    C18   S    
H8    O7    S    
C22   N1    A    
C21   H9    S    
C10   C11   D    
C2    N1    A    
O5    S2    D    
C17   H3    S    
C3    S1    S    
C15   C21   S    
Cu1   O1    S    
C6    H11   S    
O6    S2    S    
C17   C18   A    
C18   C19   A    
C8    O12   A    
C9    O14   A    
C13   H16   S    
C4    O9    A    
C20   C21   S    
C21   H5    S    
C1    O1    A    
C1    C12   S    
C5    C22   A    
C12   C16   A    
O2    S1    D    
C16   C17   A    
C16   S2    S    
