data_mof_unit_29748.cif
_audit_creation_date              2012-12-10T17:33:49-0500
_audit_creation_method            fapswitch 2.2
_symmetry_space_group_name_H-M    P1
_symmetry_Int_Tables_number       1
_space_group_crystal_system       triclinic
_cell_length_a                    10.99663
_cell_length_b                    12.124885
_cell_length_c                    12.967604
_cell_angle_alpha                 92.098209
_cell_angle_beta                  94.841683
_cell_angle_gamma                 84.152563
_cell_volume                      1713.18932906

loop_
_atom_site_label
_atom_site_type_symbol
_atom_type_description
_atom_site_fract_x
_atom_site_fract_y
_atom_site_fract_z
_atom_type_partial_charge
Br1   Br    Br    0.812505 0.629802 0.310605 -0.358237
Br2   Br    Br    0.183265 0.248682 0.562650 -0.429367
Br3   Br    Br    0.852061 0.400469 0.292664 -0.366914
Br4   Br    Br    0.137243 0.394751 0.308854 -0.325018
Br5   Br    Br    0.148717 0.585694 0.730301 -0.315358
Br6   Br    Br    0.094726 0.643940 0.325162 -0.322958
Br7   Br    Br    0.272407 0.560075 0.130123 -0.207073
Br8   Br    Br    0.642745 0.235440 0.220974 -0.249476
Br9   Br    Br    0.437921 0.778412 0.791457 -0.297523
Br10  Br    Br    0.397581 0.312005 0.812681 -0.277321
Br11  Br    Br    0.906367 0.362326 0.695513 -0.412550
Br12  Br    Br    0.688049 0.973930 0.737146 -0.293930
Br13  Br    Br    0.334055 0.770546 0.286102 -0.359628
C1    C     C_R   0.491161 0.521377 0.700053 0.927991
C2    C     C_R   0.510621 0.442597 0.974328 -0.058078
C3    C     C_R   0.478934 0.544356 0.025070 -0.063282
C4    C     C_R   0.742544 0.499583 0.503960 0.922796
C5    C     C_R   0.446721 0.539814 0.124973 0.190336
C6    C     C_R   0.561194 0.358769 0.141769 0.341464
C7    C     C_R   0.555167 0.348586 0.032949 -0.106086
C8    C     C_R   0.401251 0.959105 0.389093 -0.246396
C9    C     C_R   0.411644 0.844503 0.398235 0.406522
C10   C     C_R   0.532595 0.856325 0.555399 0.086390
C11   C     C_R   0.529840 0.973849 0.546129 0.032439
C12   C     C_3   0.121709 0.506001 0.510938 -0.313117
C13   C     C_R   0.461359 0.026112 0.462108 -0.063708
C14   C     C_R   0.455203 0.143449 0.451557 0.091315
C15   C     C_R   0.595354 0.154876 0.599783 0.051331
C16   C     C_R   0.503750 0.477482 0.299537 1.006622
C17   C     C_R   0.595551 0.039820 0.616581 0.153861
C18   C     C_R   0.258414 0.502351 0.506942 0.988420
C19   C     C_3   0.947862 0.389110 0.554134 0.057017
C20   C     C_3   0.087490 0.396592 0.562701 -0.027939
C21   C     C_3   0.914049 0.511606 0.391122 0.293247
C22   C     C_3   0.922604 0.610390 0.576016 -0.252495
C23   C     C_3   0.058192 0.513727 0.394827 0.344186
C24   C     C_3   0.879184 0.502098 0.507087 -0.339850
C25   C     C_2   0.922860 0.285137 0.488429 0.640118
C26   C     C_2   0.113902 0.721020 0.568731 0.489654
C27   C     C_2   0.431136 0.750160 0.029435 0.631489
C28   C     C_2   0.609574 0.246182 0.981536 0.612506
C29   C     C_2   0.366940 0.194622 0.370829 0.553130
C30   C     C_2   0.685321 0.210189 0.667202 0.623273
C31   C     C_2   0.870497 0.720359 0.525288 0.565157
C32   C     C_2   0.869578 0.617236 0.682119 0.715264
C33   C     C_3   0.070508 0.606427 0.585954 0.026153
C34   C     C_R   0.507299 0.458580 0.188024 -0.189323
C35   C     C_R   0.477554 0.533850 0.811227 -0.208832
C36   C     C_R   0.454400 0.643405 0.970716 -0.088690
C37   C     C_R   0.460916 0.639357 0.863028 0.282259
C38   C     C_R   0.483471 0.436492 0.867939 0.267180
H1    H     H_    0.348726 0.994385 0.321701 0.200316
H2    H     H_    0.911639 0.749289 0.459809 0.113592
H3    H     H_    0.794558 0.570120 0.696571 0.031978
H4    H     H_    0.581779 0.814698 0.620570 0.215106
H5    H     H_    0.116386 0.404877 0.644811 0.264215
H6    H     H_    0.978802 0.259552 0.425168 0.131839
H7    H     H_    0.158275 0.740356 0.501946 0.122069
H8    H     H_    0.482710 0.763163 0.103185 0.078732
H9    H     H_    0.671324 0.252292 0.921838 0.120817
H10   H     H_    0.270086 0.194779 0.378401 0.109624
H11   H     H_    0.780232 0.175776 0.669469 0.151167
N1    N     N_R   0.523380 0.207800 0.519350 -0.135244
N2    N     N_R   0.476620 0.792180 0.480650 -0.153779
O1    O     O_R   0.506240 0.421700 0.658830 -0.550308
O2    O     O_2   0.092786 0.798060 0.630301 -0.423749
O3    O     O_2   0.351058 0.821505 0.999084 -0.412048
O4    O     O_2   0.583086 0.154942 0.003291 -0.433587
O5    O     O_2   0.399092 0.219350 0.288081 -0.485201
O6    O     O_2   0.655516 0.278474 0.733323 -0.568179
O7    O     O_2   0.789818 0.783059 0.561022 -0.541836
O8    O     O_2   0.898246 0.686740 0.747939 -0.412907
O9    O     O_R   0.491240 0.609310 0.646410 -0.622954
O10   O     O_R   0.692710 0.406190 0.506230 -0.568551
O11   O     O_R   0.677700 0.593810 0.493810 -0.605793
O12   O     O_R   0.508760 0.390690 0.353590 -0.565412
O13   O     O_R   0.493760 0.578300 0.341170 -0.574755
O14   O     O_R   0.322300 0.406190 0.506190 -0.583838
O15   O     O_R   0.307290 0.593810 0.493770 -0.628798
O16   O     O_2   0.843860 0.226325 0.505317 -0.555278
Zn1   Zn    Zn3+2 0.510020 0.374730 0.508290 1.100355
Zn2   Zn    Zn3+2 0.489980 0.625270 0.491710 1.055437

loop_
_geom_bond_atom_site_label_1
_geom_bond_atom_site_label_2
_ccdc_geom_bond_type
C12   C18   S    
C8    C13   A    
Br4   C23   S    
C21   C24   S    
C6    C7    A    
C14   C29   S    
C5    C34   A    
C7    C28   S    
C16   O12   A    
C13   C14   A    
C16   C34   S    
C22   C24   S    
C11   C13   A    
C6    C34   A    
C27   C36   S    
C31   O7    D    
C31   H2    S    
C35   C38   A    
C27   O3    D    
C10   C11   A    
C2    C38   A    
C20   H5    S    
C35   C37   A    
C27   H8    S    
C8    C9    A    
C32   O8    D    
Br10  C38   S    
Br1   C21   S    
C28   O4    D    
C2    C7    A    
Br8   C6    S    
C1    O9    A    
C3    C36   A    
C1    C35   S    
Br3   C21   S    
C26   H7    S    
C29   O5    D    
C25   H6    S    
O1    Zn1   S    
Br7   C5    S    
C4    C24   S    
C19   C24   S    
C10   H4    S    
C22   C31   S    
C29   H10   S    
N2    Zn2   S    
C14   N1    A    
C26   C33   S    
Br2   C20   S    
C10   N2    A    
N1    Zn1   S    
C32   H3    S    
C30   O6    D    
C19   C25   S    
C4    O10   A    
C26   O2    D    
O10   Zn1   S    
C22   C32   S    
O9    Zn2   S    
C18   O14   A    
Br12  C17   S    
Br9   C37   S    
C28   H9    S    
O12   Zn1   S    
Br11  C19   S    
O15   Zn2   S    
O11   Zn2   S    
C18   O15   A    
Br5   C33   S    
C15   C30   S    
C19   C20   S    
C15   C17   A    
O14   Zn1   S    
C25   O16   D    
O13   Zn2   S    
C1    O1    A    
Br6   C23   S    
Br13  C9    S    
C21   C23   S    
C11   C17   A    
C12   C23   S    
C9    N2    A    
C15   N1    A    
C16   O13   A    
C3    C5    A    
C36   C37   A    
C4    O11   A    
C22   C33   S    
C12   C33   S    
C8    H1    S    
C2    C3    A    
C30   H11   S    
C12   C20   S    
