data_mof_unit_35227.cif
_audit_creation_date              2012-12-10T17:17:22-0500
_audit_creation_method            fapswitch 2.2
_symmetry_space_group_name_H-M    P1
_symmetry_Int_Tables_number       1
_space_group_crystal_system       triclinic
_cell_length_a                    10.175823
_cell_length_b                    10.83993
_cell_length_c                    12.496383
_cell_angle_alpha                 90.655347
_cell_angle_beta                  110.204859
_cell_angle_gamma                 95.756231
_cell_volume                      1285.50265449

loop_
_atom_site_label
_atom_site_type_symbol
_atom_type_description
_atom_site_fract_x
_atom_site_fract_y
_atom_site_fract_z
_atom_type_partial_charge
C1    C     C_R   0.053376 0.732483 0.495358 0.779314
C2    C     C_R   0.221959 0.569859 0.830528 -0.144535
C3    C     C_2   0.089951 0.865048 0.502422 0.457644
C4    C     C_R   0.138875 0.526293 0.711968 0.865590
C5    C     C_2   0.009333 0.936617 0.534511 -0.296067
C6    C     C_2   0.927364 0.136891 0.525403 -0.391619
C7    C     C_2   0.032213 0.068861 0.533434 -0.084986
C8    C     C_2   0.430421 0.519062 0.498099 -0.244977
C9    C     C_2   0.567390 0.488502 0.489072 0.629694
C10   C     C_R   0.950172 0.267968 0.510390 0.969526
C11   C     C_R   0.866449 0.495947 0.287019 0.892743
C12   C     C_R   0.448440 0.594251 0.986260 0.054965
C13   C     C_R   0.778350 0.492728 0.969802 -0.216821
C14   C     C_R   0.796975 0.516046 0.167007 -0.097010
C15   C     C_R   0.152770 0.583480 0.908869 -0.223068
C16   C     C_R   0.229886 0.602727 0.025450 0.144829
C17   C     C_R   0.375294 0.598710 0.063851 -0.153294
C18   C     C_R   0.370929 0.591210 0.868418 0.073331
C19   C     C_R   0.593654 0.578547 0.020653 0.100619
C20   C     C_R   0.651827 0.546565 0.937562 0.145173
C21   C     C_R   0.581969 0.570170 0.824241 -0.236081
C22   C     C_R   0.445878 0.602800 0.792200 -0.172934
C23   C     C_R   0.681204 0.586166 0.134610 0.037418
C24   C     C_R   0.844960 0.468832 0.083991 -0.226240
F1    F     F_    0.202574 0.913771 0.475479 -0.661113
F2    F     F_    0.566732 0.390901 0.419619 -0.640177
H1    H     H_    0.936749 0.418455 0.107817 0.187401
H2    H     H_    0.426828 0.594808 0.154481 0.165684
H3    H     H_    0.398070 0.631858 0.706763 0.172861
H4    H     H_    0.133519 0.109944 0.531894 0.238157
H5    H     H_    0.639419 0.649326 0.274844 0.219007
H6    H     H_    0.767973 0.737419 0.243710 0.190732
H7    H     H_    0.056662 0.633031 0.064213 0.191107
H8    H     H_    0.208639 0.699159 0.156151 0.202770
H9    H     H_    0.918999 0.897563 0.555522 0.162479
H10   H     H_    0.826326 0.095838 0.527446 0.177559
H11   H     H_    0.429565 0.605024 0.542410 0.134798
H12   H     H_    0.682272 0.628719 0.594546 0.088405
H13   H     H_    0.318838 0.364998 0.414055 0.231498
H14   H     H_    0.631405 0.561834 0.760902 0.134368
H15   H     H_    0.820989 0.463413 0.906506 0.150847
H16   H     H_    0.038792 0.574777 0.880071 0.155261
N1    N     N_2   0.313640 0.446500 0.454900 -0.172448
N2    N     N_2   0.686360 0.553430 0.545150 -0.238033
N3    N     N_3   0.669958 0.684451 0.208639 -0.462834
N4    N     N_3   0.161193 0.617430 0.106879 -0.443736
O1    O     O_R   0.936910 0.692950 0.509080 -0.662288
O2    O     O_R   0.138320 0.658600 0.480130 -0.576260
O3    O     O_R   0.002900 0.525670 0.675280 -0.618613
O4    O     O_R   0.204310 0.491320 0.646330 -0.611017
O5    O     O_R   0.861680 0.341400 0.519870 -0.546162
O6    O     O_R   0.063090 0.307050 0.490920 -0.614190
O7    O     O_R   0.795690 0.508680 0.353670 -0.573231
O8    O     O_R   0.997100 0.474330 0.324720 -0.604636
Zn1   Zn    Zn3+2 0.865520 0.522940 0.519330 0.981380
Zn2   Zn    Zn3+2 0.134480 0.477060 0.480670 0.977207

loop_
_geom_bond_atom_site_label_1
_geom_bond_atom_site_label_2
_ccdc_geom_bond_type
C12   C17   A    
C6    C10   S    
C2    C4    S    
C8    N1    D    
C1    O2    A    
H12   N2    S    
C6    C7    D    
H8    N4    S    
C22   H3    S    
C2    C18   A    
H6    N3    S    
C19   C23   A    
C19   C20   A    
C11   O7    A    
C24   H1    S    
O2    Zn2   S    
C4    O3    A    
C10   O6    A    
C13   H15   S    
C7    H4    S    
O3    Zn1   S    
C21   C22   A    
C2    C15   A    
C21   H14   S    
N2    Zn1   S    
C16   C17   A    
C11   O8    A    
C14   C24   A    
C23   N3    S    
C10   O5    A    
C5    H9    S    
C12   C19   A    
C14   C23   A    
C6    H10   S    
C9    F2    S    
O5    Zn1   S    
O7    Zn1   S    
C11   C14   S    
O8    Zn2   S    
C8    H11   S    
C12   C18   A    
C15   C16   A    
N1    Zn2   S    
C3    F1    S    
C20   C21   A    
C13   C24   A    
O1    Zn1   S    
H5    N3    S    
C16   N4    S    
H7    N4    S    
C5    C7    S    
C1    O1    A    
C9    N2    D    
H13   N1    S    
C13   C20   A    
C3    C5    D    
C18   C22   A    
C17   H2    S    
O4    Zn2   S    
O6    Zn2   S    
C15   H16   S    
C4    O4    A    
C8    C9    S    
C1    C3    S    
