data_mof_unit_23869.cif
_audit_creation_date              2012-12-10T17:57:54-0500
_audit_creation_method            fapswitch 2.2
_symmetry_space_group_name_H-M    P1
_symmetry_Int_Tables_number       1
_space_group_crystal_system       triclinic
_cell_length_a                    10.835198
_cell_length_b                    9.507514
_cell_length_c                    15.022423
_cell_angle_alpha                 89.788993
_cell_angle_beta                  90.775206
_cell_angle_gamma                 89.745717
_cell_volume                      1547.37915021

loop_
_atom_site_label
_atom_site_type_symbol
_atom_type_description
_atom_site_fract_x
_atom_site_fract_y
_atom_site_fract_z
_atom_type_partial_charge
C1    C     C_R   0.262027 0.500230 0.497443 0.766735
C2    C     C_R   0.737965 0.499863 0.498996 0.796178
C3    C     C_R   0.289146 0.417825 0.047685 0.452330
C4    C     C_R   0.701931 0.615194 0.952835 0.451128
C5    C     C_R   0.064310 0.372480 0.497327 -0.191194
C6    C     C_R   0.935366 0.627704 0.491065 -0.190646
C7    C     C_R   0.936686 0.372296 0.498524 -0.176516
C8    C     C_R   0.063101 0.627900 0.490289 -0.191038
C9    C     C_R   0.871712 0.499912 0.496219 -0.009991
C10   C     C_R   0.128096 0.500327 0.494313 -0.035303
C11   C     C_R   0.423413 0.075145 0.443897 -0.015586
C12   C     C_R   0.576792 0.924825 0.555982 -0.026058
C13   C     C_R   0.576797 0.073745 0.555974 -0.012938
C14   C     C_R   0.423457 0.926227 0.443869 -0.038866
C15   C     C_R   0.503798 0.500551 0.329049 0.858682
C16   C     C_R   0.499659 0.499783 0.671120 0.829955
C17   C     C_R   0.597264 0.556624 0.813385 -0.304634
C18   C     C_R   0.401782 0.453581 0.186953 -0.315495
C19   C     C_R   0.496086 0.500863 0.767530 -0.175304
C20   C     C_R   0.505329 0.503102 0.232826 -0.171964
C21   C     C_R   0.392163 0.451238 0.813458 0.431241
C22   C     C_R   0.606267 0.559904 0.187072 0.406594
C23   C     C_R   0.394129 0.452357 0.906989 -0.009629
C24   C     C_R   0.605073 0.557495 0.093564 -0.001116
C25   C     C_R   0.498035 0.506296 0.953359 -0.053019
C26   C     C_R   0.500172 0.506668 0.047045 -0.048035
C27   C     C_R   0.599773 0.559665 0.906233 0.048557
C28   C     C_R   0.396784 0.457876 0.094153 0.039339
C29   C     C_R   0.292017 0.405298 0.955008 -0.287923
C30   C     C_R   0.705996 0.607289 0.045763 -0.298336
Cu1   Cu    Cu3+1 0.500000 0.640660 0.500000 0.922753
Cu2   Cu    Cu3+1 0.500000 0.359340 0.500000 0.959721
H1    H     H_    0.675024 0.595335 0.775914 0.187349
H2    H     H_    0.324134 0.414110 0.224277 0.193566
H3    H     H_    0.211337 0.364175 0.921045 0.187586
H4    H     H_    0.788347 0.641651 0.080193 0.179832
H5    H     H_    0.112818 0.272665 0.500169 0.154715
H6    H     H_    0.886784 0.727500 0.488430 0.147402
H7    H     H_    0.889211 0.272425 0.501962 0.148252
H8    H     H_    0.110685 0.727739 0.487463 0.151383
H9    H     H_    0.362025 0.131913 0.399020 0.121126
H10   H     H_    0.638234 0.868061 0.600843 0.118054
H11   H     H_    0.638260 0.129376 0.600801 0.116780
H12   H     H_    0.362149 0.870549 0.398960 0.119731
N1    N     N_R   0.500000 0.852070 0.500000 -0.163035
N2    N     N_R   0.500000 0.147930 0.500000 -0.157776
O1    O     O_R   0.319640 0.618740 0.499990 -0.590515
O2    O     O_R   0.680360 0.381260 0.500010 -0.589824
O3    O     O_R   0.680360 0.618740 0.500010 -0.605231
O4    O     O_R   0.319640 0.381260 0.499990 -0.583432
O5    O     O_R   0.499970 0.618800 0.370260 -0.607843
O6    O     O_R   0.500030 0.381200 0.629740 -0.554236
O7    O     O_R   0.500030 0.618800 0.629740 -0.593497
O8    O     O_R   0.499970 0.381200 0.370260 -0.576949
O9    O     O_3   0.293262 0.390357 0.768507 -0.617600
C31   C     C_3   0.219158 0.494058 0.725545 0.052350
H13   H     H_    0.169326 0.440604 0.670551 0.181209
H14   H     H_    0.273119 0.580625 0.695186 0.133745
C32   C     C_3   0.122646 0.556311 0.787843 -0.380451
H15   H     H_    0.067937 0.470421 0.818160 0.232077
H16   H     H_    0.169449 0.616538 0.841700 0.208661
C33   C     C_3   0.035108 0.654701 0.736792 -0.874719
H17   H     H_    0.087572 0.738853 0.702717 0.249819
H18   H     H_    0.970382 0.704645 0.783554 0.281311
H19   H     H_    0.980680 0.594707 0.686717 0.261824
O10   O     O_3   0.709987 0.607417 0.233048 -0.629629
C34   C     C_3   0.691776 0.747464 0.262722 0.072977
H20   H     H_    0.692999 0.746205 0.336601 0.202471
H21   H     H_    0.602769 0.796652 0.240008 0.126898
C35   C     C_3   0.798138 0.840392 0.232425 -0.385515
H22   H     H_    0.887546 0.788639 0.249663 0.242714
H23   H     H_    0.792182 0.855291 0.159192 0.206411
C36   C     C_3   0.793628 0.984602 0.276712 -0.889771
H24   H     H_    0.705195 0.038839 0.260100 0.262522
H25   H     H_    0.870969 0.050047 0.252488 0.262172
H26   H     H_    0.802755 0.973559 0.350175 0.248632
O11   O     O_3   0.180606 0.392904 0.093046 -0.621305
C37   C     C_3   0.095380 0.503902 0.075264 0.070425
H27   H     H_    0.001355 0.465067 0.090296 0.174092
H28   H     H_    0.091700 0.534320 0.003516 0.142373
C38   C     C_3   0.121222 0.632648 0.134640 -0.365548
H29   H     H_    0.079633 0.615733 0.201050 0.216490
H30   H     H_    0.221691 0.647947 0.144888 0.226683
C39   C     C_3   0.069824 0.767841 0.093206 -0.918808
H31   H     H_    0.118220 0.791775 0.030239 0.259478
H32   H     H_    0.083931 0.856722 0.139945 0.259748
H33   H     H_    0.970009 0.757634 0.078736 0.249065
O12   O     O_3   0.801672 0.669021 0.907394 -0.631488
C40   C     C_3   0.805012 0.817411 0.916323 0.017211
H34   H     H_    0.902880 0.850477 0.911279 0.173728
H35   H     H_    0.772919 0.855590 0.982276 0.130801
C41   C     C_3   0.730347 0.888480 0.841106 -0.366445
H36   H     H_    0.763878 0.850863 0.775726 0.214339
H37   H     H_    0.631394 0.860174 0.846845 0.222991
C42   C     C_3   0.741856 0.048299 0.844679 -0.886173
H38   H     H_    0.706742 0.088660 0.908905 0.262468
H39   H     H_    0.686612 0.096265 0.789542 0.253636
H40   H     H_    0.839757 0.079933 0.837236 0.255073

loop_
_geom_bond_atom_site_label_1
_geom_bond_atom_site_label_2
_ccdc_geom_bond_type
O9    C31   S    
C5    H5    S    
Cu2   O2    S    
C36   H24   S    
C42   H38   S    
C39   H33   S    
C4    C27   A    
C6    C9    A    
C38   H29   S    
C42   H40   S    
O11   C37   S    
C23   C29   A    
C3    C28   A    
C19   C21   A    
C24   C26   A    
C13   N2    A    
C11   C14   A    
C37   H28   S    
C31   H13   S    
C3    C29   A    
C16   O7    A    
C22   O10   S    
C12   H10   S    
Cu2   O6    S    
C33   H18   S    
C6    H6    S    
C35   H22   S    
C15   O5    A    
C40   H35   S    
C1    O4    A    
O12   C40   S    
O10   C34   S    
C32   H15   S    
Cu1   O1    S    
C36   H25   S    
C17   H1    S    
Cu1   O3    S    
Cu2   O8    S    
C38   H30   S    
C14   N1    A    
C5    C7    A    
C15   C20   S    
C32   H16   S    
C34   H20   S    
C17   C27   A    
C15   O8    A    
C18   C28   A    
C39   H31   S    
C21   O9    S    
C37   H27   S    
C1    O1    A    
C6    C8    A    
C2    O2    A    
C25   C26   A    
C41   C42   S    
C34   H21   S    
C33   H17   S    
C2    O3    A    
Cu1   Cu2   S    
C35   C36   S    
C41   H37   S    
Cu1   O7    S    
C40   C41   S    
C18   H2    S    
Cu2   O4    S    
C20   C22   A    
C21   C23   A    
C36   H26   S    
C22   C24   A    
C3    O11   S    
C13   H11   S    
C38   C39   S    
C14   H12   S    
C7    C9    A    
C32   C33   S    
C33   H19   S    
Cu2   N2    S    
C1    C10   S    
C16   O6    A    
Cu1   O5    S    
C12   N1    A    
C42   H39   S    
C4    O12   S    
C25   C27   A    
C29   H3    S    
C26   C28   A    
C31   C32   S    
C30   H4    S    
C34   C35   S    
C5    C10   A    
C37   C38   S    
C16   C19   S    
C41   H36   S    
C17   C19   A    
C31   H14   S    
C11   H9    S    
C18   C20   A    
C23   C25   A    
C24   C30   A    
C12   C13   A    
C8    C10   A    
Cu1   N1    S    
C7    H7    S    
C39   H32   S    
C11   N2    A    
C35   H23   S    
C8    H8    S    
C40   H34   S    
C2    C9    S    
C4    C30   A    
