data_mof_unit_7064.cif
_audit_creation_date              2012-12-11T17:24:14-0500
_audit_creation_method            fapswitch 2.2
_symmetry_space_group_name_H-M    P1
_symmetry_Int_Tables_number       1
_space_group_crystal_system       triclinic
_cell_length_a                    22.874567
_cell_length_b                    7.197241
_cell_length_c                    20.86962
_cell_angle_alpha                 89.964842
_cell_angle_beta                  93.848363
_cell_angle_gamma                 89.972979
_cell_volume                      3428.09591192

loop_
_atom_site_label
_atom_site_type_symbol
_atom_type_description
_atom_site_fract_x
_atom_site_fract_y
_atom_site_fract_z
_atom_type_partial_charge
O1    O     O_R   0.307200 0.614510 0.194080 -0.538837
O2    O     O_R   0.692800 0.385490 0.805920 -0.541614
O3    O     O_R   0.192800 0.114510 0.305920 -0.540662
O4    O     O_R   0.807200 0.885490 0.694080 -0.542370
O5    O     O_R   0.188140 0.283260 0.181690 -0.526454
O6    O     O_R   0.811860 0.716740 0.818310 -0.528357
O7    O     O_R   0.311860 0.783260 0.318310 -0.533562
O8    O     O_R   0.688140 0.216740 0.681690 -0.521401
C1    C     C_R   0.168572 0.453348 0.165655 0.685779
C2    C     C_R   0.831406 0.546650 0.834374 0.684282
C3    C     C_R   0.331453 0.953244 0.334386 0.698211
C4    C     C_R   0.668530 0.046756 0.665755 0.685740
O9    O     O_R   0.306460 0.284700 0.186400 -0.523524
O10   O     O_R   0.693540 0.715300 0.813600 -0.520234
O11   O     O_R   0.193540 0.784700 0.313600 -0.522767
O12   O     O_R   0.806460 0.215300 0.686400 -0.520320
O13   O     O_R   0.311970 0.115840 0.310660 -0.540897
O14   O     O_R   0.688030 0.884160 0.689340 -0.531331
O15   O     O_R   0.188030 0.615840 0.189340 -0.536914
O16   O     O_R   0.811970 0.384160 0.810660 -0.537562
C5    C     C_R   0.325203 0.453291 0.171655 0.720502
C6    C     C_R   0.674722 0.546733 0.828246 0.714861
C7    C     C_R   0.174745 0.953237 0.328282 0.720836
C8    C     C_R   0.825246 0.046742 0.671701 0.704658
O17   O     O_3   0.251670 0.448440 0.290760 -0.372848
O18   O     O_3   0.748330 0.551560 0.709240 -0.364890
O19   O     O_3   0.248330 0.948440 0.209240 -0.367493
O20   O     O_3   0.751670 0.051560 0.790760 -0.371789
V1    V     V_3+5 0.249690 0.173030 0.242440 1.579074
V2    V     V_3+5 0.750310 0.826970 0.757560 1.599314
V3    V     V_3+5 0.250310 0.673030 0.257560 1.576192
V4    V     V_3+5 0.749690 0.326970 0.742440 1.606749
C9    C     C_R   0.959625 0.148908 0.494046 0.471833
C10   C     C_R   0.040750 0.848707 0.506275 0.403413
C11   C     C_R   0.539636 0.650314 0.004969 0.473011
C12   C     C_R   0.458616 0.349977 0.992949 0.405348
C13   C     C_R   0.955790 0.017781 0.544277 -0.125674
C14   C     C_R   0.044165 0.978985 0.455661 -0.108748
C15   C     C_R   0.543714 0.518470 0.955069 -0.123803
C16   C     C_R   0.455110 0.480418 0.043465 -0.105760
C17   C     C_R   0.996838 0.870720 0.550774 -0.225396
C18   C     C_R   0.002473 0.124131 0.448597 -0.188143
C19   C     C_R   0.502653 0.371631 0.948581 -0.226253
C20   C     C_R   0.496547 0.626306 0.050202 -0.198970
C21   C     C_1   0.909052 0.029812 0.588934 0.137557
C22   C     C_1   0.090952 0.968501 0.411086 0.109504
C23   C     C_1   0.590632 0.529944 0.910637 0.139973
C24   C     C_1   0.408560 0.469308 0.088322 0.110137
C25   C     C_1   0.129362 0.961835 0.373570 -0.069373
C26   C     C_1   0.870630 0.037827 0.626404 -0.064249
C27   C     C_1   0.370376 0.462185 0.126110 -0.060197
C28   C     C_1   0.629202 0.537806 0.873358 -0.058782
C29   C     C_R   0.426125 0.833792 0.385970 -0.031052
C30   C     C_R   0.571665 0.157304 0.617688 -0.004339
C31   C     C_R   0.073530 0.336322 0.115158 -0.054572
C32   C     C_R   0.926411 0.663543 0.884983 -0.030844
C33   C     C_R   0.380550 0.963218 0.384558 -0.117807
C34   C     C_R   0.619312 0.036540 0.615936 -0.122904
C35   C     C_R   0.119779 0.462750 0.115209 -0.110912
C36   C     C_R   0.880120 0.537291 0.884920 -0.126407
C37   C     C_R   0.382431 0.104941 0.430290 -0.030442
C38   C     C_R   0.619413 0.901824 0.567866 -0.034492
C39   C     C_R   0.119061 0.599834 0.067827 0.021113
C40   C     C_R   0.880732 0.400397 0.932380 0.009612
C41   C     C_R   0.427521 0.113620 0.479861 -0.012380
C42   C     C_R   0.571193 0.878601 0.522733 -0.020605
C43   C     C_R   0.072699 0.612952 0.019767 0.014026
C44   C     C_R   0.927012 0.387363 0.980579 0.009118
C45   C     C_R   0.475919 0.990935 0.477621 0.002615
C46   C     C_R   0.523756 0.006469 0.523635 -0.044970
C47   C     C_R   0.024213 0.490817 0.022594 0.012972
C48   C     C_R   0.975435 0.509768 0.977897 -0.029380
C49   C     C_R   0.476172 0.852711 0.429106 -0.006552
C50   C     C_R   0.524273 0.149883 0.570717 -0.028711
C51   C     C_R   0.025668 0.345406 0.068754 -0.009178
C52   C     C_R   0.974127 0.654660 0.931558 -0.027711
C53   C     C_R   0.425415 0.244334 0.530548 0.252682
C54   C     C_R   0.570148 0.733933 0.476043 0.334417
C55   C     C_R   0.073195 0.748887 0.970411 0.274314
C56   C     C_R   0.926626 0.250787 0.029759 0.370536
C57   C     C_R   0.476612 0.277449 0.571350 0.320678
C58   C     C_R   0.525788 0.735558 0.424907 0.272610
C59   C     C_R   0.021038 0.784024 0.931515 0.329671
C60   C     C_R   0.978846 0.215557 0.068627 0.267268
H1    H     H_    0.422135 0.719981 0.352269 0.179861
H2    H     H_    0.571397 0.251234 0.657937 0.183432
H3    H     H_    0.074059 0.238702 0.154453 0.152282
H4    H     H_    0.926102 0.760955 0.845595 0.183686
H5    H     H_    0.348034 0.208069 0.426571 0.183992
H6    H     H_    0.658668 0.819704 0.565523 0.188682
H7    H     H_    0.154345 0.699763 0.070558 0.185384
H8    H     H_    0.845469 0.300433 0.929517 0.186762
C61   C     C_1   0.002624 0.242864 0.392467 0.494181
N1    N     N_1   0.002815 0.336416 0.347339 -0.313448
C62   C     C_1   0.994296 0.744996 0.604848 0.561102
N2    N     N_1   0.992078 0.645241 0.648148 -0.245480
C63   C     C_1   0.495641 0.747541 0.105552 0.507631
N3    N     N_1   0.494820 0.843421 0.149990 -0.245639
C64   C     C_1   0.505318 0.245590 0.894651 0.563981
N4    N     N_1   0.507616 0.145573 0.851475 -0.241718
S1    S     S_3+6 0.910584 0.342869 0.487606 0.054528
O21   O     O_2   0.856419 0.285809 0.447764 -0.279471
O22   O     O_2   0.893648 0.403398 0.552754 -0.333053
O23   O     O_3   0.941373 0.525461 0.452443 -0.501232
H9    H     H_    0.911858 0.626135 0.452924 0.374634
S2    S     S_3+6 0.091844 0.660210 0.515200 0.112898
O24   O     O_2   0.141514 0.719112 0.561470 -0.225416
O25   O     O_2   0.063566 0.490622 0.541629 -0.302959
O26   O     O_3   0.119435 0.600646 0.445424 -0.472126
H10   H     H_    0.085216 0.558423 0.417678 0.334540
S3    S     S_3+6 0.588821 0.843864 0.011284 0.056149
O27   O     O_2   0.643011 0.786125 0.051013 -0.277162
O28   O     O_2   0.605692 0.904072 0.946055 -0.332921
O29   O     O_3   0.558366 0.027054 0.046427 -0.502570
H11   H     H_    0.587782 0.127746 0.045230 0.376406
S4    S     S_3+6 0.407404 0.162073 0.983563 0.110560
O30   O     O_2   0.359115 0.219515 0.935264 -0.225375
O31   O     O_2   0.436388 0.991031 0.959137 -0.306248
O32   O     O_3   0.377536 0.105839 0.052409 -0.471529
H12   H     H_    0.410644 0.059503 0.081004 0.333495
S5    S     S_3+6 0.356389 0.345457 0.547224 0.147956
O33   O     O_2   0.345903 0.514769 0.505838 -0.262811
O34   O     O_2   0.307499 0.209468 0.532044 -0.296088
O35   O     O_3   0.353676 0.406117 0.624732 -0.377775
H13   H     H_    0.354706 0.286980 0.648586 0.381285
S6    S     S_3+6 0.621359 0.544544 0.484188 0.080770
O36   O     O_2   0.676464 0.598381 0.453470 -0.285841
O37   O     O_2   0.636818 0.499152 0.553538 -0.325993
O38   O     O_3   0.593421 0.350616 0.449202 -0.438639
H14   H     H_    0.623804 0.254079 0.457912 0.377897
S7    S     S_3+6 0.140857 0.856921 0.953028 0.151467
O39   O     O_2   0.151875 0.019731 0.997260 -0.250153
O40   O     O_2   0.190721 0.721653 0.963606 -0.299474
O41   O     O_3   0.140391 0.930604 0.876540 -0.384655
H15   H     H_    0.138279 0.815684 0.850385 0.377986
S8    S     S_3+6 0.859248 0.139467 0.046303 0.119328
O42   O     O_2   0.809140 0.273922 0.036060 -0.310129
O43   O     O_2   0.849253 0.977575 0.001404 -0.290215
O44   O     O_3   0.859854 0.064482 0.122649 -0.413555
H16   H     H_    0.823672 0.989732 0.124606 0.409952
S9    S     S_3+6 0.482466 0.484162 0.619471 0.057848
O45   O     O_2   0.465283 0.439441 0.686002 -0.299336
O46   O     O_2   0.544046 0.557142 0.624111 -0.335059
O47   O     O_3   0.439165 0.654467 0.587836 -0.436766
H17   H     H_    0.447567 0.763724 0.615807 0.376849
S10   S     S_3+6 0.535066 0.611132 0.351829 0.101209
O48   O     O_2   0.502269 0.430470 0.353499 -0.285274
O49   O     O_2   0.510828 0.722116 0.295011 -0.331326
O50   O     O_3   0.605779 0.567098 0.340399 -0.390873
H18   H     H_    0.623150 0.690188 0.332154 0.379426
S11   S     S_3+6 0.011425 0.998163 0.888428 0.039886
O51   O     O_2   0.024925 0.967575 0.819726 -0.308078
O52   O     O_2   0.949121 0.063103 0.889985 -0.363996
O53   O     O_3   0.054923 0.166578 0.920761 -0.441838
H19   H     H_    0.048497 0.274485 0.891648 0.373646
S12   S     S_3+6 0.988589 0.000036 0.111159 0.079800
O54   O     O_2   0.951171 0.850214 0.079550 -0.258198
O55   O     O_2   0.051268 0.937409 0.111862 -0.353802
O56   O     O_3   0.970439 0.025750 0.187472 -0.431663
H20   H     H_    0.981558 0.154698 0.199437 0.332220

loop_
_geom_bond_atom_site_label_1
_geom_bond_atom_site_label_2
_ccdc_geom_bond_type
C34   C38   A    
C55   C59   A    
O1    C5    A    
C61   N1    T    
C32   C52   A    
C31   C35   A    
O19   V1    S    
C18   C61   S    
O13   V1    S    
O3    C7    A    
S3    O27   D    
C56   C60   A    
S7    O41   S    
O15   V3    S    
C63   N3    T    
C17   C62   S    
O7    C3    A    
C22   C25   T    
S1    O21   D    
C9    S1    S    
C9    C18   A    
C40   C44   A    
C15   C23   S    
S12   O54   D    
C19   C64   S    
C14   C18   A    
S9    O46   D    
C30   C34   A    
O4    C8    A    
C51   C60   A    
C32   H4    S    
S2    O24   D    
O1    V3    S    
S4    O30   D    
O2    V4    S    
S11   O53   S    
O3    V1    S    
S5    O35   S    
C30   C50   A    
S9    O45   D    
C1    O15   A    
C24   C27   T    
C62   N2    T    
C2    O16   A    
C46   C50   A    
S11   O51   D    
C45   C49   A    
O14   V2    S    
C59   S11   S    
C44   C48   A    
C31   C51   A    
O11   C7    A    
O12   C8    A    
C13   C17   A    
C10   C17   A    
O10   V2    S    
S8    O44   S    
C52   C59   A    
O23   H9    S    
C58   S10   S    
C37   H5    S    
O29   H11   S    
S10   O49   D    
C8    C26   S    
C42   C54   A    
O44   H16   S    
C39   C43   A    
C41   C53   A    
C38   C42   A    
O8    V4    S    
C12   C16   A    
O7    V3    S    
S8    O43   D    
S9    O47   S    
C30   H2    S    
C53   S5    S    
C29   C33   A    
O18   V4    S    
S8    O42   D    
C15   C19   A    
S6    O38   S    
C9    C13   A    
C32   C36   A    
C1    C35   S    
C10   S2    S    
C11   C15   A    
O5    C1    A    
S10   O50   S    
C20   C63   S    
C54   C58   A    
O56   H20   S    
C53   C57   A    
O8    C4    A    
C55   S7    S    
C57   S9    S    
C4    O14   A    
O53   H19   S    
O9    C5    A    
C48   C52   A    
S3    O28   D    
C33   C37   A    
C11   C20   A    
S5    O33   D    
O41   H15   S    
O6    V2    S    
S1    O23   S    
C40   H8    S    
C50   C57   A    
C13   C21   S    
C44   C56   A    
C54   S6    S    
O5    V1    S    
C49   C58   A    
C5    C27   S    
S5    O34   D    
C11   S3    S    
C6    C28   S    
S10   O48   D    
O16   V4    S    
O9    V1    S    
C16   C24   S    
C2    C36   S    
C3    O13   A    
S6    O37   D    
C10   C14   A    
O17   V3    S    
S12   O56   S    
C29   C49   A    
O47   H17   S    
S7    O40   D    
O6    C2    A    
O32   H12   S    
S4    O32   S    
O11   V3    S    
C23   C28   T    
O12   V4    S    
C35   C39   A    
C56   S8    S    
C64   N4    T    
C36   C40   A    
O10   C6    A    
S12   O55   D    
O38   H14   S    
C4    C34   S    
C47   C48   A    
C3    C33   S    
O26   H10   S    
C47   C51   A    
C60   S12   S    
C42   C46   A    
S2    O25   D    
C21   C26   T    
S6    O36   D    
C41   C45   A    
C38   H6    S    
O20   V2    S    
O2    C6    A    
S4    O31   D    
S3    O29   S    
C43   C47   A    
S11   O52   D    
C31   H3    S    
C45   C46   A    
C14   C22   S    
C7    C25   S    
C37   C41   A    
C16   C20   A    
S1    O22   D    
C39   H7    S    
C12   C19   A    
C29   H1    S    
O50   H18   S    
C43   C55   A    
O4    V2    S    
S7    O39   D    
O35   H13   S    
S2    O26   S    
C12   S4    S    
