data_mof_unit_41249.cif
_audit_creation_date              2012-12-10T18:59:53-0500
_audit_creation_method            fapswitch 2.2
_symmetry_space_group_name_H-M    P1
_symmetry_Int_Tables_number       1
_space_group_crystal_system       triclinic
_cell_length_a                    10.790681
_cell_length_b                    10.787721
_cell_length_c                    9.819575
_cell_angle_alpha                 91.149426
_cell_angle_beta                  91.631217
_cell_angle_gamma                 89.991018
_cell_volume                      1142.37261705

loop_
_atom_site_label
_atom_site_type_symbol
_atom_type_description
_atom_site_fract_x
_atom_site_fract_y
_atom_site_fract_z
_atom_type_partial_charge
C1    C     C_R   0.496721 0.259743 0.498144 0.950280
C2    C     C_R   0.503279 0.740257 0.501856 0.950292
C3    C     C_R   0.872799 0.504489 0.506202 -0.072398
C4    C     C_R   0.127201 0.495484 0.493793 -0.072394
C5    C     C_R   0.943461 0.475648 0.624281 0.152419
C6    C     C_R   0.056539 0.524313 0.375711 0.152424
C7    C     C_R   0.500339 0.058742 0.372083 0.561156
C8    C     C_R   0.499668 0.941261 0.627914 0.561121
C9    C     C_R   0.512427 0.931584 0.379771 -0.416300
C10   C     C_R   0.487561 0.068416 0.620224 -0.416253
C11   C     C_R   0.506082 0.872931 0.504766 -0.196432
C12   C     C_R   0.493914 0.127070 0.495231 -0.196451
C13   C     C_R   0.550077 0.596744 0.075478 -0.114169
C14   C     C_R   0.449925 0.403255 0.924522 -0.114141
C15   C     C_R   0.550431 0.596248 0.931468 -0.053714
C16   C     C_R   0.449567 0.403752 0.068532 -0.053753
C17   C     C_R   0.259777 0.498143 0.497694 0.904783
C18   C     C_R   0.740223 0.501848 0.502305 0.904786
C19   C     C_R   0.160072 0.685035 0.058601 0.536916
C20   C     C_R   0.839909 0.314840 0.941336 0.536852
C21   C     C_R   0.122714 0.664941 0.192464 0.400818
C22   C     C_R   0.877277 0.334974 0.807482 0.400882
C23   C     C_R   0.107727 0.543068 0.239313 -0.204677
C24   C     C_R   0.892269 0.456860 0.760672 -0.204684
C25   C     C_R   0.128756 0.440585 0.150814 0.473207
C26   C     C_R   0.871237 0.559321 0.849200 0.473139
C27   C     C_R   0.163485 0.461807 0.017174 -0.351659
C28   C     C_R   0.836500 0.538065 0.982830 -0.351556
C29   C     C_R   0.179852 0.581982 0.971549 -0.360622
C30   C     C_R   0.820125 0.417878 0.028419 -0.360689
C31   C     C_R   0.930069 0.531635 0.384823 -0.147961
C32   C     C_R   0.069931 0.468325 0.615167 -0.147946
H1    H     H_    0.204812 0.593917 0.866937 0.210697
H2    H     H_    0.795154 0.405931 0.133027 0.210660
H3    H     H_    0.593462 0.670967 0.879153 0.197975
H4    H     H_    0.406533 0.329036 0.120847 0.197973
H5    H     H_    0.177721 0.384862 0.947037 0.207631
H6    H     H_    0.822262 0.614994 0.052988 0.207609
H7    H     H_    0.876168 0.556975 0.294890 0.157080
H8    H     H_    0.123832 0.442967 0.705092 0.157064
H9    H     H_    0.526292 0.878067 0.287232 0.187661
H10   H     H_    0.473687 0.121931 0.712763 0.187674
H11   H     H_    0.591308 0.673661 0.132681 0.135230
H12   H     H_    0.408695 0.326337 0.867319 0.135225
N1    N     N_R   0.499970 0.499970 0.857200 -0.086534
N2    N     N_R   0.500030 0.500030 0.142800 -0.086528
O1    O     O_R   0.499990 0.316750 0.614620 -0.663963
O2    O     O_R   0.500010 0.683250 0.385380 -0.663960
O3    O     O_R   0.499990 0.316780 0.385290 -0.549480
O4    O     O_R   0.500010 0.683220 0.614710 -0.549505
O5    O     O_R   0.316760 0.500000 0.614660 -0.643966
O6    O     O_R   0.683240 0.500000 0.385340 -0.643964
O7    O     O_R   0.316760 0.500020 0.385330 -0.605355
O8    O     O_R   0.683240 0.499980 0.614670 -0.605326
Zn1   Zn    Zn3+2 0.500000 0.499980 0.653120 0.969887
Zn2   Zn    Zn3+2 0.500000 0.500020 0.346880 0.969881
O9    O     O_3   0.162985 0.806349 0.013568 -0.528495
C33   C     C_3   0.268097 0.827994 0.935202 -0.141500
H13   H     H_    0.281817 0.929553 0.929079 0.197363
H14   H     H_    0.253373 0.792575 0.829095 0.206500
H15   H     H_    0.353934 0.788241 0.982360 0.108785
O10   O     O_3   0.836976 0.193495 0.986295 -0.528681
C34   C     C_3   0.732057 0.171894 0.065006 -0.141436
H16   H     H_    0.646127 0.211832 0.018196 0.109116
H17   H     H_    0.747136 0.207154 0.171154 0.206611
H18   H     H_    0.718228 0.070333 0.070995 0.197290
O11   O     O_3   0.090217 0.765201 0.273938 -0.560121
C35   C     C_3   0.198174 0.812715 0.340243 -0.162002
H19   H     H_    0.272583 0.832595 0.267571 0.137904
H20   H     H_    0.232882 0.748189 0.419246 0.128713
H21   H     H_    0.174739 0.901417 0.392486 0.192618
O12   O     O_3   0.909784 0.234736 0.725978 -0.560120
C36   C     C_3   0.801832 0.187232 0.659660 -0.161969
H22   H     H_    0.767144 0.251772 0.580641 0.128693
H23   H     H_    0.727394 0.167365 0.732325 0.137920
H24   H     H_    0.825276 0.098517 0.607429 0.192611
S1    S     S_3+6 0.109956 0.285444 0.203469 0.014914
O13   O     O_2   0.984633 0.270089 0.263885 -0.316516
O14   O     O_2   0.121662 0.196447 0.084758 -0.266431
O15   O     O_3   0.219637 0.252896 0.322324 -0.581141
H25   H     H_    0.191817 0.175222 0.364067 0.371359
S2    S     S_3+6 0.890050 0.714476 0.796592 0.014991
O16   O     O_2   0.878289 0.803449 0.915317 -0.266466
O17   O     O_2   0.015400 0.729852 0.736244 -0.316241
O18   O     O_3   0.780418 0.747040 0.677690 -0.581174
H26   H     H_    0.808228 0.824741 0.636007 0.371359
O19   O     O_3   0.503280 0.117588 0.247407 -0.619340
C37   C     C_3   0.417217 0.063129 0.152694 -0.287996
H27   H     H_    0.325163 0.047964 0.197838 0.219340
H28   H     H_    0.453658 0.975289 0.109437 0.127792
H29   H     H_    0.403209 0.125603 0.065579 0.179438
O20   O     O_3   0.496757 0.882419 0.752595 -0.619366
C38   C     C_3   0.582852 0.936876 0.847274 -0.287849
H30   H     H_    0.674899 0.952012 0.802095 0.219322
H31   H     H_    0.596866 0.874409 0.934400 0.179447
H32   H     H_    0.546445 0.024735 0.890527 0.127821

loop_
_geom_bond_atom_site_label_1
_geom_bond_atom_site_label_2
_ccdc_geom_bond_type
O19   C37   S    
C34   H17   S    
C38   H30   S    
C10   H10   S    
C36   H22   S    
C17   O5    A    
C18   O6    A    
C20   C30   A    
S1    O13   D    
C19   O9    S    
C25   S1    S    
C22   C24   A    
O1    Zn1   S    
C19   C21   A    
C24   C26   A    
C8    C11   A    
C13   N2    A    
O15   H25   S    
O7    Zn2   S    
C27   C29   A    
C33   H14   S    
C29   H1    S    
C3    C18   S    
C7    C9    A    
C15   H3    S    
C2    O4    A    
C7    O19   S    
C35   H19   S    
C8    O20   S    
C5    C32   A    
C33   H15   S    
C32   H8    S    
C6    C31   A    
C34   H18   S    
C26   S2    S    
C21   O11   S    
C36   H23   S    
C1    C12   S    
C2    C11   S    
C22   O12   S    
C14   N1    A    
S1    O14   D    
C21   C23   A    
C7    C12   A    
C30   H2    S    
O11   C35   S    
C4    C6    A    
C16   N2    A    
C1    O1    A    
C2    O2    A    
C33   H13   S    
O18   H26   S    
O10   C34   S    
C37   H29   S    
C28   H6    S    
C3    C31   A    
C9    C11   A    
C4    C32   A    
C10   C12   A    
C4    C17   S    
C35   H20   S    
C37   H28   S    
C38   H32   S    
S2    O17   D    
C13   C15   A    
C36   H24   S    
C14   C16   A    
C15   N1    A    
S2    O18   S    
C17   O7    A    
C13   H11   S    
C14   H12   S    
S1    O15   S    
O2    Zn2   S    
O8    Zn1   S    
C9    H9    S    
C20   C22   A    
O12   C36   S    
C3    C5    A    
C25   C27   A    
O3    Zn2   S    
C26   C28   A    
O4    Zn1   S    
C28   C30   A    
C16   H4    S    
O9    C33   S    
C38   H31   S    
C5    C24   S    
C27   H5    S    
C35   H21   S    
C6    C23   S    
O20   C38   S    
C31   H7    S    
O5    Zn1   S    
C23   C25   A    
C20   O10   S    
C18   O8    A    
C34   H16   S    
C37   H27   S    
N1    Zn1   S    
C8    C10   A    
S2    O16   D    
N2    Zn2   S    
C1    O3    A    
O6    Zn2   S    
C19   C29   A    
