data_mof_unit_50155.cif
_audit_creation_date              2012-12-10T18:58:37-0500
_audit_creation_method            fapswitch 2.2
_symmetry_space_group_name_H-M    P1
_symmetry_Int_Tables_number       1
_space_group_crystal_system       triclinic
_cell_length_a                    10.62448
_cell_length_b                    10.045462
_cell_length_c                    17.562614
_cell_angle_alpha                 89.032298
_cell_angle_beta                  92.437557
_cell_angle_gamma                 92.048457
_cell_volume                      1871.30482088

loop_
_atom_site_label
_atom_site_type_symbol
_atom_type_description
_atom_site_fract_x
_atom_site_fract_y
_atom_site_fract_z
_atom_type_partial_charge
C1    C     C_R   0.260577 0.498322 0.498973 0.856132
C2    C     C_R   0.739422 0.501679 0.501034 0.855950
C3    C     C_1   0.501029 0.499355 0.966249 -0.072873
C4    C     C_1   0.501198 0.500440 0.033809 -0.072863
C5    C     C_R   0.063898 0.399580 0.540509 -0.202102
C6    C     C_R   0.936103 0.600439 0.459521 -0.201913
C7    C     C_R   0.935225 0.403343 0.542709 -0.191591
C8    C     C_R   0.064774 0.596677 0.457323 -0.191683
C9    C     C_R   0.500019 0.500784 0.354007 0.843762
C10   C     C_R   0.500030 0.499218 0.645993 0.843585
C11   C     C_R   0.872296 0.503675 0.502161 -0.000712
C12   C     C_R   0.127703 0.496336 0.497864 -0.000994
C13   C     C_R   0.545785 0.611471 0.847251 -0.164614
C14   C     C_R   0.455974 0.388286 0.152712 -0.164614
C15   C     C_R   0.546535 0.613871 0.152931 -0.168666
C16   C     C_R   0.454752 0.386075 0.847185 -0.168645
C17   C     C_R   0.545226 0.611670 0.768383 -0.206582
C18   C     C_R   0.455834 0.388196 0.231560 -0.206440
C19   C     C_R   0.546480 0.614002 0.231896 -0.206071
C20   C     C_R   0.454108 0.386056 0.768202 -0.206147
C21   C     C_R   0.500266 0.498480 0.728565 -0.021424
C22   C     C_R   0.500225 0.501526 0.271445 -0.021555
C23   C     C_R   0.590354 0.073809 0.540821 0.143813
C24   C     C_R   0.409631 0.926194 0.459191 0.143952
C25   C     C_R   0.400689 0.066807 0.467544 0.177087
C26   C     C_R   0.599297 0.933189 0.532480 0.177256
C27   C     C_R   0.500837 0.498689 0.886104 0.165815
C28   C     C_R   0.501047 0.501098 0.113945 0.165819
H1    H     H_    0.580972 0.698874 0.877860 0.132234
H2    H     H_    0.421180 0.300789 0.122051 0.132226
H3    H     H_    0.582504 0.700834 0.122398 0.132859
H4    H     H_    0.418811 0.299168 0.877785 0.132866
H5    H     H_    0.580429 0.699832 0.738803 0.147117
H6    H     H_    0.420556 0.299999 0.261071 0.147035
H7    H     H_    0.584765 0.700404 0.261908 0.148918
H8    H     H_    0.415372 0.299786 0.738249 0.148843
N1    N     N_R   0.500000 0.857200 0.500000 -0.139660
N2    N     N_R   0.500000 0.142800 0.500000 -0.139616
O1    O     O_R   0.316770 0.614620 0.500000 -0.636153
O2    O     O_R   0.683230 0.385380 0.500000 -0.636134
O3    O     O_R   0.683230 0.614620 0.500000 -0.620132
O4    O     O_R   0.316770 0.385380 0.500000 -0.619927
O5    O     O_R   0.500010 0.614710 0.389120 -0.628867
O6    O     O_R   0.499990 0.385290 0.610880 -0.628774
O7    O     O_R   0.499990 0.614710 0.610880 -0.613577
O8    O     O_R   0.500010 0.385290 0.389120 -0.613571
Zn1   Zn    Zn3+2 0.500000 0.653120 0.500000 0.923828
Zn2   Zn    Zn3+2 0.500000 0.346880 0.500000 0.923844
C29   C     C_3   0.664054 0.138479 0.607160 -0.355035
C30   C     C_3   0.604274 0.098730 0.682198 -0.886980
H9    H     H_    0.652605 0.154099 0.729895 0.250164
H10   H     H_    0.502962 0.122319 0.679478 0.260512
H11   H     H_    0.611573 0.990390 0.693924 0.256567
H12   H     H_    0.764457 0.112425 0.610173 0.174336
H13   H     H_    0.666350 0.246732 0.603126 0.261410
C31   C     C_3   0.335785 0.861499 0.392913 -0.354953
C32   C     C_3   0.395177 0.901467 0.317798 -0.887424
H14   H     H_    0.496509 0.878000 0.320323 0.260477
H15   H     H_    0.346700 0.846129 0.270143 0.250139
H16   H     H_    0.387695 0.009802 0.306152 0.256804
H17   H     H_    0.333704 0.753252 0.396874 0.261496
H18   H     H_    0.235336 0.887351 0.390075 0.174298
C33   C     C_3   0.267443 0.116250 0.465648 -0.330420
C34   C     C_3   0.227495 0.187352 0.391385 -0.815533
H19   H     H_    0.138731 0.239459 0.399415 0.243624
H20   H     H_    0.300098 0.261166 0.373581 0.279248
H21   H     H_    0.209237 0.114815 0.345038 0.232843
H22   H     H_    0.197958 0.032977 0.474988 0.153661
H23   H     H_    0.254076 0.174022 0.517147 0.213172
C35   C     C_3   0.732557 0.883766 0.534404 -0.330645
C36   C     C_3   0.772504 0.812650 0.608662 -0.815530
H24   H     H_    0.789688 0.885059 0.655210 0.232909
H25   H     H_    0.700362 0.737963 0.626100 0.279500
H26   H     H_    0.861897 0.761512 0.600794 0.243382
H27   H     H_    0.745987 0.826011 0.482907 0.213223
H28   H     H_    0.802020 0.967078 0.525105 0.153720
H29   H     H_    0.113429 0.323958 0.573260 0.134809
H30   H     H_    0.886571 0.676049 0.426759 0.134803
H31   H     H_    0.885082 0.328981 0.576220 0.129182
H32   H     H_    0.114913 0.671032 0.423808 0.129199

loop_
_geom_bond_atom_site_label_1
_geom_bond_atom_site_label_2
_ccdc_geom_bond_type
C14   C18   A    
C15   C28   A    
C15   C19   A    
C7    H31   S    
C13   H1    S    
C9    C22   S    
C32   H15   S    
C2    O3    A    
C29   H12   S    
C31   C32   S    
C25   C33   S    
C23   C26   A    
C33   H23   S    
C30   H10   S    
C35   C36   S    
N1    Zn1   S    
N2    Zn2   S    
C16   C20   A    
C16   C27   A    
C9    O8    A    
C1    C12   S    
C17   H5    S    
C14   H2    S    
C2    C11   S    
C4    C28   S    
C24   N1    A    
C5    C7    A    
O7    Zn1   S    
C10   C21   S    
O8    Zn2   S    
C9    O5    A    
C30   H11   S    
C10   O6    A    
C34   H21   S    
C19   C22   A    
C24   C25   A    
C5    C12   A    
C6    C11   A    
C36   H25   S    
C32   H16   S    
C6    C8    A    
C29   H13   S    
C17   C21   A    
C34   H20   S    
C7    C11   A    
C25   N2    A    
C8    C12   A    
C10   O7    A    
C30   H9    S    
O3    Zn1   S    
O4    Zn2   S    
C18   H6    S    
C35   H28   S    
C26   C35   S    
C31   H18   S    
C16   H4    S    
C5    H29   S    
C3    C4    T    
O1    Zn1   S    
O2    Zn2   S    
C33   H22   S    
C18   C22   A    
C36   H26   S    
C26   N1    A    
C15   H3    S    
C24   C31   S    
C23   N2    A    
C13   C17   A    
C34   H19   S    
C3    C27   S    
C36   H24   S    
C19   H7    S    
C32   H14   S    
C6    H30   S    
C1    O1    A    
C33   C34   S    
C20   H8    S    
C2    O2    A    
C1    O4    A    
C23   C29   S    
C20   C21   A    
C29   C30   S    
C35   H27   S    
C8    H32   S    
C31   H17   S    
C13   C27   A    
C14   C28   A    
O5    Zn1   S    
O6    Zn2   S    
