data_mof_unit_10211.cif
_audit_creation_date              2012-12-10T17:35:00-0500
_audit_creation_method            fapswitch 2.2
_symmetry_space_group_name_H-M    P1
_symmetry_Int_Tables_number       1
_space_group_crystal_system       triclinic
_cell_length_a                    12.347428
_cell_length_b                    13.151105
_cell_length_c                    13.856704
_cell_angle_alpha                 105.345537
_cell_angle_beta                  73.568887
_cell_angle_gamma                 116.63168
_cell_volume                      1904.12545646

loop_
_atom_site_label
_atom_site_type_symbol
_atom_type_description
_atom_site_fract_x
_atom_site_fract_y
_atom_site_fract_z
_atom_type_partial_charge
C1    C     C_R   0.144488 0.713818 0.508355 0.801032
C2    C     C_1   0.972756 0.504962 0.791709 -0.174799
C3    C     C_R   0.737894 0.973833 0.368902 -0.192481
C4    C     C_R   0.775876 0.163860 0.467128 -0.045133
C5    C     C_R   0.177816 0.918308 0.569590 -0.257445
C6    C     C_R   0.254451 0.034607 0.588220 0.546015
C7    C     C_R   0.382494 0.068835 0.559861 -0.293361
C8    C     C_R   0.434640 0.989734 0.501558 0.019901
C9    C     C_R   0.353891 0.875229 0.469752 0.078208
C10   C     C_R   0.564260 0.021407 0.471160 0.105172
C11   C     C_R   0.610356 0.942523 0.401666 0.164518
C12   C     C_R   0.983817 0.504010 0.686442 0.825230
C13   C     C_R   0.528850 0.834844 0.362707 -0.246805
C14   C     C_R   0.402670 0.802332 0.394840 -0.175460
C15   C     C_R   0.649881 0.129969 0.506385 -0.261715
C16   C     C_R   0.820405 0.084623 0.400573 -0.192979
C17   C     C_R   0.226179 0.837327 0.512922 -0.184442
C18   C     C_R   0.640742 0.677410 0.657934 -0.300777
C19   C     C_R   0.253890 0.356747 0.359610 -0.008662
C20   C     C_R   0.359002 0.334836 0.318597 -0.369398
C21   C     C_R   0.462746 0.391350 0.366137 0.502147
C22   C     C_R   0.456683 0.469703 0.459141 -0.111711
C23   C     C_R   0.856271 0.286106 0.486053 0.797133
C24   C     C_R   0.348854 0.494952 0.493408 0.207260
C25   C     C_R   0.554274 0.527917 0.518019 -0.018904
C26   C     C_R   0.546386 0.616241 0.601248 0.161671
C27   C     C_R   0.443747 0.642581 0.628877 -0.269510
C28   C     C_R   0.346594 0.582014 0.577498 -0.128465
C29   C     C_R   0.658200 0.501089 0.501324 0.061804
C30   C     C_R   0.742434 0.650121 0.633940 0.070958
C31   C     C_R   0.016177 0.496024 0.313506 0.821557
C32   C     C_1   0.027641 0.496103 0.208284 -0.172876
C33   C     C_2   0.047496 0.499408 0.013432 0.377595
C34   C     C_2   0.953501 0.504931 0.987081 0.376256
C35   C     C_1   0.963096 0.505269 0.880376 -0.075012
C36   C     C_1   0.037488 0.497142 0.119820 -0.082233
Cu1   Cu    Cu3+1 0.899780 0.525060 0.522890 0.942244
Cu2   Cu    Cu3+1 0.100220 0.474940 0.477110 0.919914
H1    H     H_    0.344299 0.720642 0.357307 0.171611
H2    H     H_    0.816085 0.697555 0.676832 0.125284
H3    H     H_    0.437198 0.709741 0.692573 0.152118
H4    H     H_    0.635607 0.745760 0.720732 0.139098
H5    H     H_    0.668396 0.429606 0.446821 0.189949
H6    H     H_    0.176548 0.313614 0.320615 0.151945
H7    H     H_    0.359608 0.277398 0.246789 0.144817
H8    H     H_    0.271714 0.607996 0.605746 0.205795
H9    H     H_    0.918118 0.109699 0.369713 0.146826
H10   H     H_    0.562722 0.775643 0.306385 0.145133
H11   H     H_    0.773511 0.914034 0.315719 0.136908
H12   H     H_    0.621328 0.191751 0.562655 0.147500
H13   H     H_    0.079986 0.891348 0.600904 0.174748
H14   H     H_    0.437958 0.158315 0.582436 0.140642
N1    N     N_R   0.748810 0.563010 0.557590 -0.196763
N2    N     N_R   0.250540 0.437620 0.443020 -0.199354
O1    O     O_R   0.025040 0.682470 0.528790 -0.579439
O2    O     O_R   0.194310 0.640150 0.490130 -0.600510
O3    O     O_R   0.903380 0.524130 0.659910 -0.583097
O4    O     O_R   0.072660 0.481800 0.621240 -0.582967
O5    O     O_R   0.805690 0.359850 0.509870 -0.594719
O6    O     O_R   0.974960 0.317530 0.471210 -0.586065
O7    O     O_R   0.927340 0.518200 0.378760 -0.553286
O8    O     O_R   0.096620 0.475870 0.340090 -0.595799
O9    O     O_3   0.849897 0.505357 0.061935 -0.590483
C37   C     C_3   0.771135 0.534837 0.028504 0.058953
H15   H     H_    0.730178 0.468276 0.965171 0.148770
H16   H     H_    0.822353 0.620770 0.003396 0.142610
C38   C     C_3   0.666022 0.540890 0.116101 -0.742801
H17   H     H_    0.703249 0.602831 0.182751 0.260313
H18   H     H_    0.607194 0.569672 0.091981 0.178225
H19   H     H_    0.608392 0.454428 0.138394 0.264239
O10   O     O_3   0.575885 0.387458 0.315134 -0.612406
C39   C     C_3   0.568962 0.275897 0.266080 0.070073
H20   H     H_    0.665177 0.283930 0.234041 0.192366
H21   H     H_    0.523099 0.243974 0.199373 0.136128
C40   C     C_3   0.511718 0.188210 0.339282 -0.884218
H22   H     H_    0.410960 0.164676 0.364112 0.237778
H23   H     H_    0.526356 0.108647 0.300547 0.231583
H24   H     H_    0.555881 0.224790 0.407090 0.250996
O11   O     O_3   0.149578 0.496761 0.937544 -0.594971
C41   C     C_3   0.244276 0.496551 0.975450 0.072319
H25   H     H_    0.210658 0.417701 0.009922 0.152085
H26   H     H_    0.278860 0.575040 0.032712 0.141525
C42   C     C_3   0.351388 0.496832 0.887646 -0.763767
H27   H     H_    0.387841 0.575179 0.852105 0.246014
H28   H     H_    0.426522 0.496341 0.916299 0.189898
H29   H     H_    0.320159 0.419252 0.829079 0.261675
O12   O     O_3   0.202788 0.111538 0.644548 -0.578872
C43   C     C_3   0.230047 0.196498 0.586422 -0.299790
H30   H     H_    0.208838 0.157893 0.508524 0.152378
H31   H     H_    0.327694 0.259646 0.581880 0.154126
H32   H     H_    0.171494 0.245048 0.625049 0.208431

loop_
_geom_bond_atom_site_label_1
_geom_bond_atom_site_label_2
_ccdc_geom_bond_type
C2    C35   T    
O12   C43   S    
C31   O7    A    
C19   C20   A    
C18   C26   A    
C40   H22   S    
C2    C12   S    
C3    H11   S    
C7    C8    A    
C23   O5    A    
C28   H8    S    
C26   C27   A    
C21   O10   S    
C32   C36   T    
C1    O2    A    
C7    H14   S    
C10   C15   A    
C18   H4    S    
C5    C6    A    
C5    C17   A    
C24   N2    A    
C33   C36   S    
C34   C35   S    
C15   H12   S    
C14   H1    S    
Cu2   O4    S    
C42   H27   S    
C8    C9    A    
C22   C25   A    
C18   C30   A    
C20   H7    S    
C12   O4    A    
C21   C22   A    
C29   H5    S    
C31   O8    A    
C41   C42   S    
C16   H9    S    
C25   C29   A    
C23   O6    A    
C30   N1    A    
C38   H17   S    
C37   C38   S    
C39   H21   S    
C4    C23   S    
C39   H20   S    
C25   C26   A    
C6    O12   S    
O11   C41   S    
C38   H18   S    
C37   H16   S    
C4    C16   A    
C9    C14   A    
Cu1   Cu2   S    
C27   H3    S    
C31   C32   S    
Cu2   N2    S    
C43   H32   S    
C33   C34   D    
C30   H2    S    
C43   H30   S    
C40   H23   S    
Cu1   O5    S    
Cu2   O6    S    
C12   O3    A    
C19   N2    A    
C41   H26   S    
C42   H28   S    
C43   H31   S    
C22   C24   A    
C19   H6    S    
C9    C17   A    
C33   O11   S    
C24   C28   A    
C41   H25   S    
C13   H10   S    
Cu1   O7    S    
C6    C7    A    
C1    C17   S    
C38   H19   S    
C37   H15   S    
C4    C15   A    
C1    O1    A    
Cu1   N1    S    
O10   C39   S    
C11   C13   A    
C39   C40   S    
C29   N1    A    
C34   O9    S    
C40   H24   S    
C3    C11   A    
C10   C11   A    
O9    C37   S    
Cu1   O1    S    
C42   H29   S    
Cu2   O2    S    
C20   C21   A    
C8    C10   A    
C27   C28   A    
C5    H13   S    
C13   C14   A    
Cu1   O3    S    
C3    C16   A    
Cu2   O8    S    
