data_mof_unit_41561.cif
_audit_creation_date              2013-03-05T15:42:15-0500
_audit_creation_method            fapswitch 2.2
_symmetry_space_group_name_H-M    P1
_symmetry_Int_Tables_number       1
_space_group_crystal_system       triclinic
_cell_length_a                    11.677336
_cell_length_b                    11.632513
_cell_length_c                    19.432215
_cell_angle_alpha                 90.769119
_cell_angle_beta                  90.089184
_cell_angle_gamma                 60.368194
_cell_volume                      2294.15676452

loop_
_atom_site_label
_atom_site_type_symbol
_atom_site_description
_atom_site_fract_x
_atom_site_fract_y
_atom_site_fract_z
_atom_type_partial_charge
O1    O     O_R   0.267740 0.231960 0.575440 -0.489808
O2    O     O_R   0.527280 0.186640 0.570530 -0.489702
C1    C     C_R   0.640258 0.117254 0.598871 0.544198
O3    O     O_R   0.728090 0.003450 0.576380 -0.494612
O4    O     O_R   0.682970 0.789190 0.570490 -0.492760
C2    C     C_R   0.611842 0.746607 0.598341 0.545523
O5    O     O_R   0.499290 0.771880 0.575530 -0.494192
O6    O     O_R   0.285330 0.030870 0.569730 -0.492474
C3    C     C_R   0.241062 0.145324 0.597820 0.550916
O7    O     O_R   0.270980 0.227080 0.423890 -0.421110
O8    O     O_R   0.530280 0.182120 0.430050 -0.432804
C4    C     C_R   0.646138 0.112113 0.401864 0.550796
O9    O     O_R   0.731330 0.998570 0.424830 -0.482296
O10   O     O_R   0.685970 0.784660 0.430010 -0.440124
C5    C     C_R   0.618208 0.733752 0.403931 0.573438
O11   O     O_R   0.502530 0.767000 0.423990 -0.482685
O12   O     O_R   0.288330 0.026350 0.429250 -0.413608
C6    C     C_R   0.303778 0.115414 0.393875 0.586271
Cr1   Cr    Cr6+3 0.404720 0.198220 0.499960 1.132745
Cr2   Cr    Cr6+3 0.698290 0.897110 0.500380 1.110688
Cr3   Cr    Cr6+3 0.396970 0.904720 0.499610 1.119439
O13   O     O_3   0.499990 0.000020 0.499980 -0.334911
C7    C     C_1   0.670684 0.646268 0.860401 0.007100
C8    C     C_1   0.654528 0.683623 0.728282 -0.026770
C9    C     C_1   0.663539 0.666607 0.799772 -0.029040
C10   C     C_1   0.640696 0.704025 0.667671 0.014819
C11   C     C_1   0.126884 0.198466 0.859572 0.007592
C12   C     C_1   0.171119 0.170492 0.727526 -0.026896
C13   C     C_1   0.150204 0.182036 0.798985 -0.028717
C14   C     C_1   0.194855 0.161342 0.666994 0.012654
C15   C     C_1   0.679309 0.190210 0.861112 0.007911
C16   C     C_1   0.658684 0.167340 0.728921 -0.026719
C17   C     C_1   0.666113 0.180183 0.800459 -0.028819
C18   C     C_1   0.652912 0.150088 0.668283 0.013591
C19   C     C_R   0.663085 0.675120 0.193456 -0.074107
C20   C     C_R   0.545026 0.707888 0.227414 -0.012934
C21   C     C_R   0.551221 0.669925 0.296259 -0.011433
C22   C     C_R   0.767574 0.647123 0.304053 0.353662
C23   C     C_R   0.775067 0.645876 0.232723 -0.113024
C24   C     C_R   0.426103 0.757238 0.191363 -0.068276
C25   C     C_R   0.328330 0.735080 0.216013 -0.054540
C26   C     C_R   0.346063 0.671794 0.278388 -0.008415
C27   C     C_R   0.452557 0.643126 0.321018 0.140503
C28   C     C_R   0.653449 0.665929 0.336824 0.021947
H1    H     H_    0.414008 0.801705 0.141305 0.116993
H2    H     H_    0.869390 0.616126 0.208609 0.172571
H3    H     H_    0.240279 0.765024 0.185997 0.165074
H4    H     H_    0.274216 0.649312 0.294523 0.166826
C29   C     C_R   0.180028 0.185246 0.182367 -0.048782
C30   C     C_R   0.224172 0.266796 0.214401 -0.096693
C31   C     C_R   0.262569 0.246877 0.284123 -0.059287
C32   C     C_R   0.247425 0.045095 0.282936 0.343901
C33   C     C_R   0.197304 0.072514 0.216364 -0.113739
C34   C     C_R   0.217679 0.378919 0.182257 -0.078702
C35   C     C_R   0.188034 0.490769 0.222354 0.290302
C36   C     C_R   0.194934 0.478772 0.293681 0.179380
C37   C     C_R   0.266840 0.354178 0.317533 0.368418
C38   C     C_R   0.275142 0.133341 0.319072 0.014815
H5    H     H_    0.225114 0.385056 0.127122 0.176520
H6    H     H_    0.163295 0.009793 0.193126 0.144629
H7    H     H_    0.521484 0.349769 0.334821 0.217304
C39   C     C_R   0.655162 0.182407 0.188579 -0.003477
C40   C     C_R   0.726128 0.056026 0.216585 0.002449
C41   C     C_R   0.759634 0.047526 0.286670 0.022541
C42   C     C_R   0.583008 0.268721 0.303190 -0.124300
C43   C     C_R   0.578501 0.288979 0.232737 -0.159204
C44   C     C_R   0.790141 0.943488 0.174227 -0.120998
C45   C     C_R   0.910662 0.841379 0.194501 -0.114297
C46   C     C_R   0.964941 0.853244 0.256528 -0.031150
C47   C     C_R   0.889123 0.953196 0.304410 0.144889
C48   C     C_R   0.671216 0.147248 0.332087 0.009370
H8    H     H_    0.756925 0.943033 0.122151 0.123422
H9    H     H_    0.520787 0.388617 0.213591 0.155767
H10   H     H_    0.965914 0.762725 0.157903 0.198502
H11   H     H_    0.067374 0.790011 0.265836 0.187909
O14   O     O_R   0.821500 0.119340 0.952830 -0.508823
O15   O     O_R   0.037130 0.162530 0.957360 -0.497023
C49   C     C_R   0.081619 0.231208 0.928904 0.540466
O16   O     O_R   0.056440 0.344740 0.951340 -0.507607
O17   O     O_R   0.797900 0.560360 0.957470 -0.496544
C50   C     C_R   0.684251 0.603826 0.929766 0.539430
O18   O     O_R   0.596130 0.579390 0.952730 -0.505735
O19   O     O_R   0.639060 0.321160 0.958670 -0.495453
C51   C     C_R   0.708989 0.206450 0.930461 0.537816
O20   O     O_R   0.821240 0.124200 0.104370 -0.507593
O21   O     O_R   0.036890 0.167040 0.097840 -0.499791
C52   C     C_R   0.090327 0.233363 0.122556 0.547580
O22   O     O_R   0.056180 0.349610 0.102880 -0.519660
O23   O     O_R   0.797660 0.564870 0.097950 -0.503934
C53   C     C_R   0.682504 0.614668 0.124844 0.537330
O24   O     O_R   0.595880 0.584250 0.104270 -0.508230
O25   O     O_R   0.638830 0.325670 0.099150 -0.498634
C54   C     C_R   0.703756 0.209298 0.124402 0.541833
Cr4   Cr    Cr6+3 0.926180 0.151990 0.028120 1.032150
Cr5   Cr    Cr6+3 0.921330 0.451820 0.027470 1.035344
Cr6   Cr    Cr6+3 0.626260 0.446870 0.028710 1.040839
O26   O     O_3   0.824590 0.350230 0.028100 -0.257842
F1    F     F_    0.872925 0.623736 0.341700 -0.606484
F2    F     F_    0.167783 0.601398 0.191196 -0.732314
I1    I     I_    0.112883 0.620377 0.376901 -0.116550
F3    F     F_    0.343536 0.346490 0.370431 -0.621541
I2    I     I_    0.989305 0.988717 0.386824 -0.184084
I3    I     I_    0.456416 0.552234 0.418439 -0.236650
F4    F     F_    0.255051 0.939178 0.314867 -0.622265

loop_
_geom_bond_atom_site_label_1
_geom_bond_atom_site_label_2
_geom_bond_distance
_ccdc_geom_bond_type
C35   C36   1.393132 A    
O23   Cr5   1.941784 S    
O11   Cr3   2.057904 S    
C11   C13   1.200124 T    
C25   C26   1.387949 A    
C29   C52   1.481638 S    
C19   C20   1.399203 A    
C22   F1    1.339488 S    
C11   C49   1.424421 S    
O14   C51   1.278858 A    
C50   O18   1.277841 A    
O4    Cr2   1.932060 S    
C2    C10   1.423164 S    
O15   C49   1.279479 A    
O16   Cr5   2.060046 S    
O8    Cr1   1.938609 S    
C30   C34   1.421606 A    
C12   C13   1.403391 S    
C8    C10   1.199440 T    
C5    C28   1.464675 S    
O4    C2    1.282024 A    
C45   H10   1.076760 S    
C5    O11   1.267746 A    
O15   Cr4   1.936867 S    
O25   Cr6   1.931171 S    
C36   C37   1.354207 A    
C44   H8    1.084046 S    
C41   C48   1.407679 A    
O21   Cr4   1.936360 S    
O14   Cr4   2.053677 S    
O24   Cr6   2.052708 S    
O20   C54   1.289173 A    
C6    C38   1.485226 S    
O6    C3    1.280069 A    
C15   C17   1.200021 T    
C31   C37   1.421852 A    
C41   C47   1.406099 A    
O22   Cr5   2.056415 S    
Cr3   O13   1.998678 S    
C33   H6    1.082150 S    
O12   C6    1.335201 A    
C34   H5    1.081205 S    
C24   H1    1.083771 S    
C40   C44   1.398341 A    
O1    Cr1   2.057917 S    
O18   Cr6   2.050178 S    
C39   C43   1.396771 A    
C44   C45   1.380058 A    
O10   Cr2   1.933682 S    
C20   C24   1.402953 A    
Cr1   O13   2.004236 S    
O1    C3    1.274556 A    
C8    C9    1.402308 S    
C49   O16   1.273436 A    
C45   C46   1.397582 A    
Cr4   O26   2.004984 S    
C42   C48   1.397571 A    
C43   H9    1.083677 S    
O12   Cr3   1.937071 S    
C15   C51   1.424172 S    
C16   C18   1.200037 T    
C21   C27   1.420202 A    
C19   C23   1.404244 A    
C22   C28   1.392858 A    
C39   C40   1.399838 A    
O20   Cr4   2.052278 S    
O19   C51   1.285343 A    
O7    Cr1   2.055353 S    
Cr6   O26   2.013161 S    
C47   I2    2.135059 S    
C30   C31   1.412145 A    
C25   H3    1.080814 S    
C31   C38   1.434957 A    
C26   H4    1.044319 S    
O17   Cr5   1.939680 S    
C32   C38   1.400024 A    
C3    C14   1.424378 S    
C23   H2    1.082980 S    
C24   C25   1.376741 A    
C4    C48   1.491914 S    
Cr2   O13   2.013521 S    
C42   C43   1.388823 A    
C26   C27   1.392139 A    
C36   I1    2.149234 S    
C1    O3    1.280122 A    
C32   C33   1.393528 A    
C34   C35   1.395716 A    
C32   F4    1.350116 S    
C7    C50   1.423219 S    
O9    Cr2   2.048341 S    
O2    Cr1   1.937827 S    
O21   C52   1.296323 A    
O17   C50   1.283846 A    
O6    Cr3   1.941571 S    
O8    C4    1.301701 A    
Cr5   O26   1.998336 S    
C2    O5    1.276684 A    
C37   F3    1.336835 S    
C1    C18   1.424210 S    
C16   C17   1.403271 S    
C21   C28   1.411297 A    
C12   C14   1.200107 T    
O2    C1    1.285295 A    
O5    Cr3   2.054731 S    
C53   O24   1.287285 A    
C22   C23   1.388414 A    
O7    C6    1.289406 A    
C29   C33   1.399294 A    
O19   Cr6   1.934996 S    
O25   C54   1.284481 A    
C46   H11   1.066494 S    
C7    C9    1.199449 T    
C46   C47   1.398945 A    
C27   I3    2.170277 S    
C40   C41   1.407615 A    
O3    Cr2   2.051185 S    
C19   C53   1.463448 S    
H7    C42   1.048252 S    
C4    O9    1.283922 A    
C52   O22   1.270416 A    
C20   C21   1.404976 A    
C29   C30   1.421212 A    
C39   C54   1.470825 S    
C35   F2    1.340953 S    
O10   C5    1.299116 A    
O23   C53   1.280910 A    
