data_mof_unit_17593.cif
_audit_creation_date              2013-03-05T16:48:40-0500
_audit_creation_method            fapswitch 2.2
_symmetry_space_group_name_H-M    P1
_symmetry_Int_Tables_number       1
_space_group_crystal_system       triclinic
_cell_length_a                    10.973864
_cell_length_b                    10.888662
_cell_length_c                    10.593184
_cell_angle_alpha                 91.553922
_cell_angle_beta                  91.713509
_cell_angle_gamma                 89.769656
_cell_volume                      1264.74910278

loop_
_atom_site_label
_atom_site_type_symbol
_atom_site_description
_atom_site_fract_x
_atom_site_fract_y
_atom_site_fract_z
_atom_type_partial_charge
O1    O     O_R   0.499990 0.319650 0.605810 -0.585446
O2    O     O_R   0.500010 0.680350 0.394190 -0.585445
O3    O     O_R   0.499990 0.319640 0.394190 -0.568923
O4    O     O_R   0.500010 0.680360 0.605810 -0.568931
C1    C     C_R   0.499243 0.261847 0.497957 0.780991
C2    C     C_R   0.500756 0.738153 0.502044 0.780984
O5    O     O_R   0.319640 0.500010 0.605810 -0.488233
O6    O     O_R   0.680360 0.499990 0.394190 -0.488239
O7    O     O_R   0.319650 0.500010 0.394190 -0.598145
O8    O     O_R   0.680350 0.499990 0.605810 -0.598145
C3    C     C_R   0.261730 0.504125 0.498067 0.796816
C4    C     C_R   0.738270 0.495878 0.501933 0.796813
Cu1   Cu    Cu3+1 0.500000 0.500000 0.625300 1.043422
Cu2   Cu    Cu3+1 0.500000 0.500000 0.374700 1.043425
C5    C     C_R   0.183373 0.594948 0.088339 -0.234790
C6    C     C_R   0.816658 0.405067 0.911669 -0.234784
H1    H     H_    0.214219 0.681790 0.054313 0.158974
H2    H     H_    0.785838 0.318220 0.945704 0.158966
C7    C     C_R   0.143719 0.590277 0.211034 -0.149819
C8    C     C_R   0.856310 0.409737 0.788973 -0.149834
H3    H     H_    0.143047 0.673545 0.269439 0.132599
H4    H     H_    0.857003 0.326465 0.730576 0.132603
C9    C     C_R   0.105218 0.478740 0.258441 0.168436
C10   C     C_R   0.894783 0.521278 0.741555 0.168437
C11   C     C_R   0.101959 0.372541 0.181052 -0.225324
C12   C     C_R   0.898017 0.627484 0.818934 -0.225320
H5    H     H_    0.068835 0.286756 0.216268 0.141558
H6    H     H_    0.931119 0.713274 0.783709 0.141558
C13   C     C_R   0.140950 0.377401 0.057412 -0.230685
C14   C     C_R   0.859029 0.622625 0.942575 -0.230705
H7    H     H_    0.137928 0.294664 0.998449 0.162998
H8    H     H_    0.862032 0.705366 0.001531 0.163001
C15   C     C_R   0.183443 0.488484 0.010863 0.406714
C16   C     C_R   0.816563 0.511536 0.989135 0.406714
C17   C     C_R   0.931615 0.466577 0.393394 -0.176462
C18   C     C_R   0.068385 0.533439 0.606603 -0.176456
H9    H     H_    0.880686 0.438950 0.310442 0.238121
H10   H     H_    0.119314 0.561066 0.689556 0.238122
C19   C     C_R   0.872347 0.492357 0.505355 -0.112940
C20   C     C_R   0.127653 0.507655 0.494644 -0.112945
C21   C     C_R   0.943221 0.521573 0.614713 -0.016247
C22   C     C_R   0.056779 0.478444 0.385284 -0.016241
H11   H     H_    0.551792 0.202828 0.906245 0.122177
H12   H     H_    0.448192 0.797176 0.093760 0.122168
C23   C     C_R   0.433110 0.189057 0.063458 -0.142412
C24   C     C_R   0.566864 0.810904 0.936533 -0.142407
H13   H     H_    0.354789 0.225304 0.012402 0.145910
H14   H     H_    0.645175 0.774620 0.987578 0.145911
C25   C     C_R   0.422900 0.153947 0.188780 -0.104712
C26   C     C_R   0.577076 0.846014 0.811211 -0.104661
H15   H     H_    0.335669 0.161986 0.233590 0.117282
H16   H     H_    0.664300 0.837938 0.766390 0.117285
C27   C     C_R   0.524818 0.106927 0.255139 0.131745
C28   C     C_R   0.475170 0.893075 0.744864 0.131747
C29   C     C_R   0.635877 0.093177 0.193595 -0.118801
C30   C     C_R   0.364123 0.906871 0.806424 -0.118840
H17   H     H_    0.714404 0.053874 0.242213 0.121132
H18   H     H_    0.285606 0.946210 0.757818 0.121141
C31   C     C_R   0.645270 0.127376 0.068087 -0.087416
C32   C     C_R   0.354729 0.872672 0.931932 -0.087447
H19   H     H_    0.730733 0.115229 0.020859 0.110697
H20   H     H_    0.269275 0.884853 0.979172 0.110700
C33   C     C_R   0.544176 0.175922 0.003251 -0.092903
C34   C     C_R   0.455809 0.824083 0.996753 -0.092888
C35   C     C_R   0.514853 0.929779 0.390022 -0.238212
C36   C     C_R   0.485144 0.070221 0.609980 -0.238217
H21   H     H_    0.526483 0.875961 0.303577 0.166078
H22   H     H_    0.473513 0.124041 0.696425 0.166074
C37   C     C_R   0.502190 0.871927 0.505303 -0.078286
C38   C     C_R   0.497807 0.128073 0.494699 -0.078283
C39   C     C_R   0.488032 0.943438 0.617498 -0.013873
C40   C     C_R   0.511962 0.056563 0.382505 -0.013879
N1    N     N_1   0.500010 0.499990 0.186410 -0.090477
N2    N     N_1   0.499990 0.500010 0.813590 -0.090478
C41   C     C_1   0.499412 0.500142 0.072358 0.160565
C42   C     C_1   0.500587 0.499857 0.927642 0.160553
N3    N     N_R   0.228324 0.493555 0.886156 0.071286
O9    O     O_R   0.267935 0.597239 0.844835 -0.416935
O10   O     O_R   0.237861 0.393721 0.816632 -0.406425
N4    N     N_R   0.771679 0.506465 0.113841 0.071284
O11   O     O_R   0.732070 0.402779 0.155161 -0.416952
O12   O     O_R   0.762135 0.606299 0.183364 -0.406422

loop_
_geom_bond_atom_site_label_1
_geom_bond_atom_site_label_2
_geom_bond_distance
_ccdc_geom_bond_type
C2    C37   1.456229 S    
C36   H22   1.084228 S    
C29   C31   1.397245 A    
C17   C19   1.391060 A    
C41   C42   1.533365 S    
H11   C33   1.081878 S    
C19   C21   1.405787 A    
N3    O9    1.302800 A    
H12   C34   1.081879 S    
C5    C7    1.385225 A    
C26   C28   1.405378 A    
C9    C22   1.459784 S    
N2    C42   1.208040 T    
O1    C1    1.289194 A    
C7    H3    1.083835 S    
C10   C12   1.399169 A    
C35   C37   1.400003 A    
C13   C15   1.405075 A    
C32   H20   1.082066 S    
C23   H13   1.080762 S    
O4    Cu1   1.980262 S    
C37   C39   1.415222 A    
C17   C22   1.385558 A    
C6    C16   1.402085 A    
C28   C39   1.480934 S    
C8    C10   1.398406 A    
C35   H21   1.084228 S    
C26   H16   1.083325 S    
C6    C8    1.385223 A    
C16   N4    1.426137 S    
N3    O10   1.302045 A    
Cu1   Cu2   2.654652 S    
C10   C21   1.459776 S    
N1    C41   1.208039 T    
C18   C21   1.385558 A    
O2    C2    1.289198 A    
O5    C3    1.291388 A    
C24   H14   1.080764 S    
C27   C29   1.404829 A    
C11   C13   1.392399 A    
C28   C30   1.404844 A    
C31   H19   1.082057 S    
C14   C16   1.405069 A    
Cu2   N1    1.994591 S    
C18   C20   1.391059 A    
N4    O12   1.302045 A    
C25   H15   1.083318 S    
C23   C33   1.397459 A    
C30   C32   1.397248 A    
C24   C34   1.397462 A    
C7    C9    1.398416 A    
O7    Cu2   1.996006 S    
C1    C38   1.456227 S    
C36   C39   1.385137 A    
C23   C25   1.399244 A    
O6    C4    1.291386 A    
O7    C3    1.286774 A    
O3    Cu2   1.980263 S    
O8    C4    1.286775 A    
O4    C2    1.281578 A    
C8    H4    1.083831 S    
C12   C14   1.392402 A    
C29   H17   1.083263 S    
O1    Cu1   1.969018 S    
C5    H1    1.080278 S    
O6    Cu2   1.983835 S    
C17   H9    1.064268 S    
C12   H6    1.083299 S    
N4    O11   1.302798 A    
O3    C1    1.281582 A    
O8    Cu1   1.996005 S    
C11   H5    1.083304 S    
C35   C40   1.385133 A    
C24   C26   1.399245 A    
C31   C33   1.396885 A    
C32   C34   1.396889 A    
C4    C19   1.471080 S    
C18   H10   1.064271 S    
C13   H7    1.082277 S    
C14   H8    1.082272 S    
C15   N3    1.426135 S    
C36   C38   1.400001 A    
C25   C27   1.405371 A    
C20   C22   1.405790 A    
C30   H18   1.083268 S    
C9    C11   1.399176 A    
C3    C20   1.471080 S    
O2    Cu2   1.969018 S    
O5    Cu1   1.983836 S    
Cu1   N2    1.994592 S    
C6    H2    1.080268 S    
C38   C40   1.415213 A    
C27   C40   1.480922 S    
C5    C15   1.402091 A    
