data_mof_unit_44198.cif
_audit_creation_date              2012-12-10T17:46:28-0500
_audit_creation_method            fapswitch 2.2
_symmetry_space_group_name_H-M    P1
_symmetry_Int_Tables_number       1
_space_group_crystal_system       triclinic
_cell_length_a                    20.75586
_cell_length_b                    21.479681
_cell_length_c                    14.82141
_cell_angle_alpha                 90.219361
_cell_angle_beta                  129.111936
_cell_angle_gamma                 89.795289
_cell_volume                      5127.06196193

loop_
_atom_site_label
_atom_site_type_symbol
_atom_type_description
_atom_site_fract_x
_atom_site_fract_y
_atom_site_fract_z
_atom_type_partial_charge
C1    C     C_R   0.602335 0.913496 0.630684 0.804287
C2    C     C_R   0.633044 0.261903 0.017896 -0.214806
C3    C     C_R   0.721303 0.773340 0.962873 0.055090
C4    C     C_R   0.201519 0.744539 0.933353 0.068282
C5    C     C_R   0.767667 0.283787 0.020125 0.057162
C6    C     C_R   0.785927 0.732299 0.046909 0.054301
C7    C     C_R   0.221378 0.273408 0.962981 0.055126
C8    C     C_R   0.328796 0.800693 0.010570 -0.198077
C9    C     C_R   0.637586 0.231383 0.939442 -0.211036
C10   C     C_R   0.662910 0.792975 0.976613 -0.197478
C11   C     C_R   0.345012 0.213455 0.033932 -0.212651
C12   C     C_R   0.828701 0.300763 0.010455 -0.198129
C13   C     C_R   0.657828 0.764178 0.055394 -0.179805
C14   C     C_R   0.137584 0.731412 0.939401 -0.211053
C15   C     C_R   0.163006 0.293062 0.976747 -0.197090
C16   C     C_R   0.844958 0.713406 0.033860 -0.212699
C17   C     C_1   0.423697 0.815985 0.259627 0.279351
C18   C     C_1   0.553845 0.193824 0.695743 0.233279
C19   C     C_1   0.566877 0.814707 0.727397 0.252810
C20   C     C_1   0.438498 0.187197 0.282139 0.251126
C21   C     C_1   0.923670 0.316023 0.259530 0.279480
C22   C     C_1   0.053877 0.693855 0.695708 0.233246
C23   C     C_1   0.066923 0.314740 0.727513 0.252759
C24   C     C_R   0.349371 0.242039 0.954233 -0.165621
C25   C     C_1   0.938434 0.687200 0.282075 0.251130
C26   C     C_3   0.240916 0.074794 0.828598 -0.294984
C27   C     C_3   0.767901 0.952178 0.172951 -0.278749
C28   C     C_3   0.740848 0.574713 0.828579 -0.295063
C29   C     C_3   0.268041 0.452681 0.173239 -0.278911
C30   C     C_3   0.369502 0.010863 0.130319 -0.255950
C31   C     C_3   0.610464 0.051367 0.883533 -0.305235
C32   C     C_3   0.869507 0.510851 0.130356 -0.255891
C33   C     C_3   0.110413 0.551452 0.883492 -0.305307
C34   C     C_1   0.236387 0.039253 0.596234 0.333605
C35   C     C_R   0.836343 0.269077 0.936168 -0.216504
C36   C     C_1   0.768914 0.976217 0.409597 0.334134
C37   C     C_1   0.736337 0.539098 0.596201 0.333618
C38   C     C_1   0.268945 0.476401 0.409607 0.334024
C39   C     C_R   0.133035 0.761938 0.017842 -0.214819
C40   C     C_R   0.157933 0.264278 0.055546 -0.179871
C41   C     C_R   0.849340 0.742008 0.954197 -0.165647
C42   C     C_R   0.323732 0.025325 0.663190 -0.107315
C43   C     C_R   0.680207 0.983971 0.340621 -0.110947
C44   C     C_R   0.823700 0.525240 0.663165 -0.107307
C45   C     C_R   0.398213 0.086854 0.370032 0.779961
C46   C     C_R   0.180225 0.484066 0.340628 -0.110917
C47   C     C_R   0.351887 0.011274 0.601334 -0.080163
C48   C     C_R   0.649562 0.996685 0.400099 -0.070217
C49   C     C_R   0.851874 0.511222 0.601322 -0.080171
C50   C     C_R   0.149565 0.496733 0.400100 -0.070207
C51   C     C_R   0.489247 0.995856 0.777266 0.655024
C52   C     C_R   0.510623 0.998018 0.221583 0.640158
C53   C     C_R   0.989250 0.495875 0.777267 0.655048
C54   C     C_R   0.010623 0.498010 0.221583 0.640195
C55   C     C_R   0.461690 0.000624 0.844944 -0.172483
C56   C     C_R   0.396770 0.914271 0.367945 0.782524
C57   C     C_R   0.540631 0.998025 0.157044 -0.143286
C58   C     C_R   0.961686 0.500617 0.844940 -0.172484
C59   C     C_R   0.040628 0.498039 0.157040 -0.143294
C60   C     C_R   0.380145 0.024149 0.786831 -0.042329
C61   C     C_R   0.624491 0.980586 0.217088 -0.038369
C62   C     C_R   0.880114 0.524096 0.786808 -0.042325
C63   C     C_R   0.124510 0.480659 0.217098 -0.038483
C64   C     C_R   0.513644 0.988491 0.968465 0.014909
C65   C     C_R   0.488336 0.008420 0.033436 0.042263
C66   C     C_R   0.013651 0.488506 0.968468 0.014840
C67   C     C_R   0.601686 0.086800 0.630004 0.803180
C68   C     C_R   0.988321 0.508412 0.033423 0.042283
C69   C     C_R   0.416260 0.044815 0.975523 -0.274377
C70   C     C_R   0.589633 0.956517 0.029282 -0.281110
C71   C     C_R   0.916207 0.544770 0.975479 -0.274373
C72   C     C_R   0.089682 0.456588 0.029313 -0.280999
C73   C     C_R   0.359549 0.049875 0.853775 0.497082
C74   C     C_R   0.648156 0.957487 0.151766 0.482679
C75   C     C_R   0.859493 0.549809 0.853730 0.497087
C76   C     C_R   0.148202 0.457604 0.151788 0.482645
C77   C     C_R   0.659322 0.137337 0.702145 -0.092826
C78   C     C_R   0.102335 0.413497 0.630685 0.804300
C79   C     C_R   0.331894 0.869723 0.285635 -0.096340
C80   C     C_R   0.339206 0.136471 0.295922 -0.091526
C81   C     C_R   0.663090 0.865154 0.707091 -0.092893
C82   C     C_R   0.159353 0.637318 0.702174 -0.092822
C83   C     C_R   0.831891 0.369722 0.285632 -0.096369
C84   C     C_R   0.839165 0.636439 0.295869 -0.091502
C85   C     C_R   0.163095 0.365162 0.707103 -0.092902
C86   C     C_R   0.791126 0.188043 0.794828 -0.184160
C87   C     C_R   0.192422 0.830617 0.182043 -0.190904
C88   C     C_R   0.208125 0.188313 0.206285 -0.176077
C89   C     C_R   0.898204 0.586847 0.370021 0.779967
C90   C     C_R   0.795947 0.815616 0.798846 -0.175832
C91   C     C_R   0.291224 0.687948 0.794980 -0.184150
C92   C     C_R   0.692434 0.330589 0.182090 -0.190894
C93   C     C_R   0.708033 0.688219 0.206146 -0.176074
C94   C     C_R   0.295939 0.315612 0.798818 -0.175805
C95   C     C_R   0.734222 0.142284 0.721023 -0.194754
C96   C     C_R   0.257763 0.867589 0.269479 -0.203795
C97   C     C_R   0.266790 0.144115 0.283154 -0.191262
C98   C     C_R   0.735378 0.858105 0.719286 -0.196143
C99   C     C_R   0.234286 0.642216 0.721127 -0.194757
C100  C     C_R   0.896769 0.414271 0.367944 0.782474
C101  C     C_R   0.757772 0.367571 0.269510 -0.203778
C102  C     C_R   0.766729 0.644047 0.283059 -0.191283
C103  C     C_R   0.235361 0.358094 0.719248 -0.196166
C104  C     C_R   0.640608 0.179869 0.754913 -0.106898
C105  C     C_R   0.340551 0.833787 0.214501 -0.072463
C106  C     C_R   0.353257 0.174522 0.232984 -0.103265
C107  C     C_R   0.651310 0.828339 0.773767 -0.072008
C108  C     C_R   0.140641 0.679871 0.754915 -0.106908
C109  C     C_R   0.840531 0.333802 0.214464 -0.072517
C110  C     C_R   0.853198 0.674490 0.232912 -0.103277
C111  C     C_R   0.101692 0.586797 0.630009 0.803210
C112  C     C_R   0.151345 0.328372 0.773835 -0.071987
C113  C     C_R   0.705025 0.216644 0.848867 0.041253
C114  C     C_R   0.269377 0.806622 0.111912 0.031866
C115  C     C_R   0.286519 0.208865 0.137344 0.038124
C116  C     C_R   0.719593 0.795864 0.871062 0.032583
C117  C     C_R   0.205073 0.716623 0.848905 0.041242
C118  C     C_R   0.769352 0.306631 0.111894 0.031861
C119  C     C_R   0.786441 0.708800 0.137236 0.038077
C120  C     C_R   0.219641 0.295910 0.871135 0.032563
C121  C     C_R   0.777952 0.224387 0.860480 0.149574
C122  C     C_R   0.336458 0.768980 0.936325 -0.216521
C123  C     C_R   0.197524 0.800368 0.102874 0.150344
C124  C     C_R   0.216867 0.220134 0.132276 0.150293
C125  C     C_R   0.789024 0.784931 0.875588 0.147266
C126  C     C_R   0.278037 0.724317 0.860594 0.149572
C127  C     C_R   0.697523 0.300350 0.102902 0.150346
C128  C     C_R   0.716773 0.720045 0.132139 0.150342
C129  C     C_R   0.289049 0.284957 0.875618 0.147257
C130  C     C_R   0.701487 0.244544 0.933341 0.068294
C131  C     C_R   0.267715 0.783760 0.020172 0.057163
C132  C     C_R   0.286000 0.232362 0.047010 0.054323
Cu1   Cu    Cu3+1 0.526640 0.000000 0.436960 0.980414
Cu2   Cu    Cu3+1 0.473360 0.000000 0.563040 0.989949
Cu3   Cu    Cu3+1 0.026640 0.500000 0.436960 0.980398
Cu4   Cu    Cu3+1 0.973360 0.500000 0.563040 0.989957
H1    H     H_    0.388447 0.779396 0.938378 0.149253
H2    H     H_    0.605320 0.931460 0.982442 0.193228
H3    H     H_    0.907010 0.574224 0.024934 0.131828
H4    H     H_    0.105422 0.431555 0.982514 0.193306
H5    H     H_    0.250440 0.894295 0.324651 0.162113
H6    H     H_    0.748302 0.111220 0.677755 0.156154
H7    H     H_    0.744637 0.884908 0.666536 0.162620
H8    H     H_    0.256022 0.116479 0.333485 0.159299
H9    H     H_    0.750458 0.394267 0.324698 0.162114
H10   H     H_    0.248372 0.611129 0.677892 0.156119
H11   H     H_    0.244595 0.384873 0.666449 0.162654
H12   H     H_    0.580415 0.253183 0.015186 0.140424
H13   H     H_    0.755968 0.616405 0.333394 0.159290
H14   H     H_    0.347466 0.692820 0.805165 0.143075
H15   H     H_    0.636929 0.327182 0.174091 0.143565
H16   H     H_    0.654105 0.695610 0.200995 0.146287
H17   H     H_    0.349684 0.308518 0.803431 0.144758
H18   H     H_    0.847334 0.192959 0.804940 0.143097
H19   H     H_    0.136905 0.827225 0.174015 0.143557
H20   H     H_    0.154212 0.195727 0.201161 0.146308
H21   H     H_    0.849715 0.808539 0.803503 0.144735
H22   H     H_    0.372135 0.838077 0.061186 0.188717
H23   H     H_    0.608273 0.777265 0.057473 0.147996
H24   H     H_    0.590536 0.196981 0.885978 0.146979
H25   H     H_    0.620184 0.830692 0.926983 0.156153
H26   H     H_    0.388294 0.176073 0.083745 0.140313
H27   H     H_    0.872015 0.338164 0.061045 0.188738
H28   H     H_    0.090513 0.697027 0.885908 0.146980
H29   H     H_    0.120281 0.330780 0.927112 0.156143
H30   H     H_    0.888242 0.676027 0.083681 0.140300
H31   H     H_    0.691621 0.998830 0.494222 0.140257
H32   H     H_    0.309659 0.013395 0.507229 0.142092
H33   H     H_    0.191622 0.498896 0.494222 0.140265
H34   H     H_    0.398996 0.229244 0.952134 0.144621
H35   H     H_    0.809644 0.513320 0.507214 0.142080
H36   H     H_    0.265590 0.094128 0.914508 0.151441
H37   H     H_    0.230855 0.023599 0.824716 0.151446
H38   H     H_    0.179265 0.096553 0.763105 0.210046
H39   H     H_    0.764681 0.003986 0.167874 0.144073
H40   H     H_    0.745683 0.931653 0.088821 0.171702
H41   H     H_    0.834294 0.939288 0.238750 0.205013
H42   H     H_    0.765445 0.594214 0.914356 0.151685
H43   H     H_    0.730979 0.523513 0.825057 0.151321
H44   H     H_    0.679103 0.596302 0.762882 0.210048
H45   H     H_    0.888293 0.279532 0.938154 0.149276
H46   H     H_    0.264857 0.504503 0.168660 0.144099
H47   H     H_    0.245833 0.432447 0.088921 0.171642
H48   H     H_    0.334421 0.439733 0.238928 0.205075
H49   H     H_    0.387703 0.060692 0.148828 0.129684
H50   H     H_    0.340273 0.998318 0.169561 0.184963
H51   H     H_    0.320271 0.004393 0.035662 0.146680
H52   H     H_    0.569441 0.091695 0.832138 0.161818
H53   H     H_    0.667416 0.056100 0.892351 0.187079
H54   H     H_    0.629919 0.054173 0.972249 0.150964
H55   H     H_    0.887704 0.560682 0.148844 0.129687
H56   H     H_    0.080386 0.753238 0.015097 0.140414
H57   H     H_    0.840304 0.498306 0.169634 0.184967
H58   H     H_    0.820253 0.504384 0.035708 0.146623
H59   H     H_    0.069341 0.591757 0.832078 0.161811
H60   H     H_    0.167349 0.556225 0.892281 0.187108
H61   H     H_    0.129891 0.554256 0.972221 0.150965
H62   H     H_    0.108388 0.277376 0.057638 0.147997
H63   H     H_    0.898984 0.729227 0.952128 0.144587
H64   H     H_    0.407093 0.074274 0.025009 0.131800
N1    N     N_R   0.433280 0.000000 0.657760 -0.208102
N2    N     N_1   0.984564 0.704919 0.647774 -0.266084
N3    N     N_1   0.999552 0.303871 0.690086 -0.281522
N4    N     N_1   0.006481 0.697305 0.321842 -0.279945
N5    N     N_1   0.166391 0.050317 0.542246 -0.272066
N6    N     N_1   0.840025 0.970092 0.465204 -0.266703
N7    N     N_1   0.666326 0.550105 0.542207 -0.272090
N8    N     N_1   0.340068 0.470353 0.465222 -0.266769
N9    N     N_R   0.566720 0.000000 0.342240 -0.206627
N10   N     N_R   0.933280 0.500000 0.657760 -0.208103
N11   N     N_R   0.066720 0.500000 0.342240 -0.206634
N12   N     N_1   0.490038 0.801810 0.296084 -0.263623
N13   N     N_1   0.484532 0.204866 0.647840 -0.266104
N14   N     N_1   0.499497 0.803839 0.689932 -0.281486
N15   N     N_1   0.506550 0.197274 0.321897 -0.279951
N16   N     N_1   0.990007 0.301866 0.295939 -0.263623
O1    O     O_R   0.600040 0.935040 0.546740 -0.586427
O2    O     O_R   0.444990 0.064930 0.346780 -0.589869
O3    O     O_R   0.444990 0.935070 0.346780 -0.527419
O4    O     O_R   0.555010 0.064930 0.653220 -0.553941
O5    O     O_R   0.055010 0.435070 0.653220 -0.525894
O6    O     O_R   0.944990 0.564930 0.346780 -0.589890
O7    O     O_R   0.944990 0.435070 0.346780 -0.527444
O8    O     O_R   0.055010 0.564930 0.653220 -0.553884
O9    O     O_3   0.292849 0.090740 0.801524 -0.572155
O10   O     O_3   0.723881 0.927349 0.208069 -0.568072
O11   O     O_3   0.792758 0.590646 0.801448 -0.572113
O12   O     O_R   0.399960 0.064960 0.453260 -0.582367
O13   O     O_3   0.223980 0.427560 0.208081 -0.568016
O14   O     O_3   0.434656 0.968972 0.168447 -0.572840
O15   O     O_3   0.572908 0.993383 0.830004 -0.581058
O16   O     O_3   0.934656 0.468963 0.168443 -0.572886
O17   O     O_3   0.072913 0.493448 0.830004 -0.581060
O18   O     O_R   0.399960 0.935040 0.453260 -0.586067
O19   O     O_R   0.600040 0.064960 0.546740 -0.584097
O20   O     O_R   0.100040 0.435040 0.546740 -0.586425
O21   O     O_R   0.899960 0.564960 0.453260 -0.582342
O22   O     O_R   0.899960 0.435040 0.453260 -0.586079
O23   O     O_R   0.100040 0.564960 0.546740 -0.584103
O24   O     O_R   0.555010 0.935070 0.653220 -0.525861

loop_
_geom_bond_atom_site_label_1
_geom_bond_atom_site_label_2
_ccdc_geom_bond_type
C44   C49   A    
C58   C62   A    
Cu3   N11   S    
C32   O16   S    
C15   C40   A    
C90   C98   A    
C47   H32   S    
C29   H48   S    
Cu4   O22   S    
C80   C97   A    
C84   C102  A    
C82   C99   A    
C60   C73   A    
C66   C68   A    
C67   C77   S    
C88   C124  A    
C85   C112  A    
C8    H22   S    
C11   C132  A    
C81   C107  A    
C106  C115  A    
C103  H11   S    
Cu3   Cu4   S    
C8    C122  A    
C9    C130  A    
C23   C112  S    
C48   H31   S    
C31   H54   S    
C101  H9    S    
Cu1   O3    S    
C56   C79   S    
C38   N8    T    
C88   H20   S    
C84   C110  A    
C67   O4    A    
C91   C126  A    
C17   C105  S    
C3    C116  A    
C94   H17   S    
C81   C98   A    
C98   H7    S    
C65   C69   A    
C63   C76   A    
C26   H38   S    
C26   O9    S    
C1    C81   S    
C80   C106  A    
C11   C24   A    
C39   C123  A    
C47   N1    A    
Cu1   O19   S    
C92   H15   S    
C57   C61   A    
C96   H5    S    
C13   C128  A    
C24   C129  A    
C58   C66   A    
C66   C72   A    
Cu4   O5    S    
C33   H60   S    
C16   H30   S    
C53   N10   A    
C31   O15   S    
C31   H52   S    
C70   C74   A    
C69   H64   S    
C83   C109  A    
C100  O22   A    
C64   C70   A    
C45   C80   S    
C24   H34   S    
C117  C126  A    
C88   C97   A    
C85   C103  A    
C41   H63   S    
C115  C132  A    
C2    C127  A    
C17   N12   T    
C7    C15   A    
C14   C39   A    
C110  C119  A    
C26   H36   S    
C1    O24   A    
C71   C75   A    
Cu4   O21   S    
C55   C64   A    
C14   H28   S    
C45   O2    A    
C37   N7    T    
C56   O18   A    
C8    C131  A    
C7    C120  A    
C28   O11   S    
C54   O16   S    
C109  C118  A    
C100  O7    A    
C4    C131  A    
C20   C106  S    
C54   C59   A    
C34   N5    T    
C40   C124  A    
C34   C42   S    
C94   C129  A    
C113  C130  A    
C22   N2    T    
C51   O15   S    
C120  C129  A    
C20   N15   T    
C41   C125  A    
C105  C114  A    
C35   C121  A    
C49   N10   A    
C122  H1    S    
C5    C12   A    
C32   H58   S    
C29   H46   S    
C42   C60   A    
C89   O6    A    
C49   H35   S    
C71   H3    S    
C78   O5    A    
C9    H24   S    
C44   C62   A    
C2    H12   S    
C77   C95   A    
C11   H26   S    
Cu1   O1    S    
C32   H55   S    
C23   N3    T    
C45   O12   A    
Cu2   O12   S    
C122  C126  A    
C30   H49   S    
C97   H8    S    
C27   H40   S    
C89   O21   A    
C59   C68   A    
Cu4   O8    S    
C33   H61   S    
C67   O19   A    
C87   C96   A    
C86   C121  A    
Cu2   O18   S    
C21   N16   T    
C72   C76   A    
C36   N6    T    
C114  C131  A    
C12   C35   A    
C69   C73   A    
C28   H44   S    
C7    C132  A    
C25   C110  S    
C95   H6    S    
Cu4   N10   S    
C114  C123  A    
C92   C101  A    
C78   C85   S    
C54   N11   A    
C99   H10   S    
C50   N11   A    
C70   H2    S    
C10   H25   S    
C82   C108  A    
C116  C125  A    
Cu1   Cu2   S    
C87   H19   S    
C62   C75   A    
C18   N13   T    
C84   C89   S    
C25   N4    T    
C27   H39   S    
C52   C57   A    
C92   C127  A    
C53   O17   S    
C6    C119  A    
C30   H51   S    
C33   O17   S    
C43   C61   A    
Cu2   N1    S    
C112  C120  A    
C43   C48   A    
Cu3   O6    S    
C31   H53   S    
C5    C130  A    
C115  C124  A    
C83   C101  A    
Cu2   O24   S    
C108  C117  A    
C27   H41   S    
C18   C104  S    
C57   C65   A    
C32   H57   S    
C36   C43   S    
C10   C13   A    
C93   C102  A    
C94   C103  A    
C91   H14   S    
C21   C109  S    
C53   C58   A    
C27   O10   S    
C29   H47   S    
C73   O9    S    
C61   C74   A    
C35   H45   S    
Cu3   O7    S    
C46   C50   A    
C111  O8    A    
C59   C63   A    
Cu1   O2    S    
C26   H37   S    
C5    C118  A    
C83   C100  S    
C19   N14   T    
C82   C111  S    
C30   O14   S    
C90   H21   S    
C75   O11   S    
C86   H18   S    
C93   C128  A    
C29   O13   S    
C79   C96   A    
C74   O10   S    
C3    C10   A    
C119  C128  A    
C12   H27   S    
C87   C123  A    
C39   H56   S    
C52   O14   S    
C52   N9    A    
C46   C63   A    
C40   H62   S    
Cu1   N9    S    
C68   C71   A    
Cu2   O4    S    
C64   C65   A    
C90   C125  A    
Cu3   O23   S    
C93   H16   S    
C50   H33   S    
C51   C55   A    
C42   C47   A    
C4    C14   A    
C4    C117  A    
C28   H43   S    
C111  O23   A    
C107  C116  A    
C38   C46   S    
C22   C108  S    
C86   C95   A    
C102  H13   S    
C6    C16   A    
C104  C113  A    
C37   C44   S    
C72   H4    S    
C113  C121  A    
C48   N9    A    
C33   H59   S    
C79   C105  A    
C78   O20   A    
C118  C127  A    
C3    C6    A    
C76   O13   S    
C30   H50   S    
Cu3   O20   S    
C15   H29   S    
C77   C104  A    
C1    O1    A    
C91   C99   A    
C55   C60   A    
C2    C9    A    
C28   H42   S    
C16   C41   A    
C13   H23   S    
C56   O3    A    
C51   N1    A    
C19   C107  S    
