data_mof_unit_37473.cif
_audit_creation_date              2013-03-05T16:14:40-0500
_audit_creation_method            fapswitch 2.2
_symmetry_space_group_name_H-M    P1
_symmetry_Int_Tables_number       1
_space_group_crystal_system       triclinic
_cell_length_a                    15.88579
_cell_length_b                    10.69045
_cell_length_c                    9.591001
_cell_angle_alpha                 90.681373
_cell_angle_beta                  90.136806
_cell_angle_gamma                 88.898824
_cell_volume                      1628.38391083

loop_
_atom_site_label
_atom_site_type_symbol
_atom_site_description
_atom_site_fract_x
_atom_site_fract_y
_atom_site_fract_z
_atom_type_partial_charge
O1    O     O_R   0.500040 0.316850 0.620870 -0.541111
O2    O     O_R   0.499960 0.683150 0.379130 -0.541998
O3    O     O_R   0.500000 0.316860 0.379090 -0.521255
O4    O     O_R   0.500000 0.683140 0.620910 -0.519712
C1    C     C_R   0.500204 0.260327 0.498977 0.830360
C2    C     C_R   0.499770 0.739671 0.501024 0.829680
O5    O     O_R   0.379090 0.499980 0.620870 -0.540739
O6    O     O_R   0.620910 0.500020 0.379130 -0.532730
O7    O     O_R   0.379060 0.499990 0.379090 -0.534882
O8    O     O_R   0.620940 0.500010 0.620910 -0.538813
C3    C     C_R   0.340649 0.499797 0.499825 0.791964
C4    C     C_R   0.659373 0.500133 0.500193 0.787243
Cu1   Cu    Cu3+1 0.500020 0.499990 0.643150 1.114967
Cu2   Cu    Cu3+1 0.499980 0.500010 0.356850 1.119407
C5    C     C_3   0.973454 0.383917 0.524901 0.233092
C6    C     C_3   0.026343 0.615552 0.484444 0.209867
C7    C     C_3   0.028439 0.424361 0.402328 0.234863
C8    C     C_3   0.971076 0.574394 0.607127 0.202667
C9    C     C_1   0.251451 0.499338 0.499693 -0.050629
C10   C     C_1   0.748623 0.500170 0.500883 -0.032162
C11   C     C_3   0.029098 0.458511 0.627204 0.041279
C12   C     C_3   0.971055 0.540704 0.382432 0.037742
C13   C     C_3   0.084949 0.498959 0.504078 -0.154306
C14   C     C_3   0.915220 0.499670 0.504895 -0.174173
C15   C     C_1   0.176216 0.499036 0.500991 0.164665
C16   C     C_1   0.823882 0.500015 0.502425 0.185834
C17   C     C_3   0.561792 0.043135 0.586051 -0.280186
C18   C     C_3   0.438153 0.956857 0.413965 -0.280668
C19   C     C_3   0.574158 0.955364 0.457930 0.150187
C20   C     C_3   0.425787 0.044630 0.542085 0.148121
H1    H     H_    0.611738 0.078856 0.656306 0.228973
H2    H     H_    0.388205 0.921133 0.343714 0.227967
C21   C     C_3   0.499680 0.876129 0.503126 -0.234894
C22   C     C_3   0.500266 0.123866 0.496885 -0.234943
C23   C     C_3   0.485948 0.964162 0.629411 0.366865
C24   C     C_3   0.513997 0.035828 0.370602 0.367139
C25   C     C_3   0.517209 0.608216 0.051206 0.206959
C26   C     C_3   0.482738 0.391798 0.948804 0.201468
C27   C     C_3   0.444744 0.578702 0.952667 0.219267
C28   C     C_3   0.555215 0.421302 0.047339 0.215541
N1    N     N_3   0.500060 0.499970 0.858290 -0.317453
N2    N     N_3   0.499940 0.500030 0.141710 -0.317605
C29   C     C_3   0.572071 0.530284 0.951139 0.193411
C30   C     C_3   0.427902 0.469738 0.048928 0.199876
N3    N     N_R   0.056313 0.339755 0.290671 0.159228
O9    O     O_R   0.001001 0.282897 0.213875 -0.257068
O10   O     O_R   0.136107 0.320796 0.266844 -0.289772
N4    N     N_R   0.941022 0.658360 0.717978 0.156418
O11   O     O_R   0.992074 0.737277 0.775848 -0.298502
O12   O     O_R   0.861926 0.661282 0.752598 -0.271056
N5    N     N_R   0.947312 0.255742 0.547175 0.184538
O13   O     O_R   0.003801 0.167198 0.561812 -0.240406
O14   O     O_R   0.867887 0.228982 0.552180 -0.325418
N6    N     N_R   0.052392 0.743903 0.463155 0.172944
O15   O     O_R   0.995852 0.832431 0.448883 -0.264539
O16   O     O_R   0.131798 0.770896 0.459143 -0.337914
N7    N     N_2   0.937723 0.585195 0.250971 -0.374046
H3    H     H_    0.890752 0.652272 0.263285 0.289293
C31   C     C_3   0.999644 0.618361 0.148287 -0.435332
H4    H     H_    0.967518 0.638260 0.047866 0.259804
H5    H     H_    0.045471 0.540296 0.130670 0.233305
H6    H     H_    0.033664 0.703143 0.182498 0.249413
N8    N     N_2   0.055580 0.406896 0.759711 -0.382335
H7    H     H_    0.005486 0.381081 0.820429 0.302979
C32   C     C_3   0.118437 0.475194 0.836828 -0.446529
H8    H     H_    0.132035 0.426617 0.936289 0.264057
H9    H     H_    0.095666 0.571545 0.861279 0.238347
H10   H     H_    0.178059 0.478357 0.777475 0.238993
N9    N     N_2   0.654367 0.903165 0.412048 -0.370354
H11   H     H_    0.670385 0.820299 0.460161 0.255343
C33   C     C_3   0.722976 0.990086 0.410587 -0.391778
H12   H     H_    0.777300 0.946914 0.354088 0.252490
H13   H     H_    0.742916 0.012712 0.518939 0.226674
H14   H     H_    0.704078 0.077826 0.357112 0.256446
N10   N     N_2   0.345575 0.096806 0.587983 -0.369067
H15   H     H_    0.329551 0.179687 0.539905 0.258400
C34   C     C_3   0.276974 0.009867 0.589414 -0.383256
H16   H     H_    0.222655 0.052992 0.645965 0.260119
H17   H     H_    0.295886 0.922098 0.642823 0.252672
H18   H     H_    0.257019 0.987297 0.481054 0.224422
N11   N     N_R   0.473079 0.925419 0.772548 0.197800
O17   O     O_R   0.406035 0.961370 0.840637 -0.197119
O18   O     O_R   0.534540 0.870446 0.838778 -0.232715
N12   N     N_R   0.526859 0.074550 0.227458 0.196794
O19   O     O_R   0.593890 0.038568 0.159356 -0.196943
O20   O     O_R   0.465395 0.129514 0.161231 -0.233438
N13   N     N_R   0.380306 0.669879 0.909122 0.197436
O21   O     O_R   0.336260 0.729928 0.003401 -0.244559
O22   O     O_R   0.365624 0.692864 0.778881 -0.320286
N14   N     N_R   0.619633 0.330095 0.090807 0.205052
O23   O     O_R   0.663792 0.270319 0.996458 -0.231637
O24   O     O_R   0.634241 0.306909 0.221027 -0.309103
N15   N     N_R   0.540628 0.728973 0.109007 0.209019
O25   O     O_R   0.485609 0.820272 0.116363 -0.234381
O26   O     O_R   0.616112 0.744425 0.158163 -0.274285
N16   N     N_R   0.459276 0.271067 0.891001 0.209131
O27   O     O_R   0.514257 0.179718 0.883670 -0.234618
O28   O     O_R   0.383791 0.255697 0.841809 -0.277767
N17   N     N_R   0.652770 0.570333 0.896835 0.191392
O29   O     O_R   0.721580 0.507818 0.925052 -0.256850
O30   O     O_R   0.657355 0.675496 0.830877 -0.249242
N18   N     N_R   0.347260 0.429889 0.103655 0.189622
O31   O     O_R   0.278870 0.494946 0.080005 -0.314548
O32   O     O_R   0.342414 0.324049 0.168201 -0.248410

loop_
_geom_bond_atom_site_label_1
_geom_bond_atom_site_label_2
_geom_bond_distance
_ccdc_geom_bond_type
N13   O21   1.300499 A    
N8    C32   1.445285 S    
N15   O25   1.299003 A    
C17   C19   1.547780 S    
C8    C11   1.543471 S    
C27   N13   1.463428 S    
O7    Cu2   1.933225 S    
C12   N7    1.448357 S    
Cu1   N1    2.063408 S    
N11   O17   1.300045 A    
C23   N11   1.454689 S    
C27   N1    1.502399 S    
N3    O9    1.300333 A    
O5    C3    1.310464 A    
C19   C24   1.528567 S    
C3    C9    1.417075 S    
C7    C13   1.548879 S    
C20   C23   1.528579 S    
O1    C1    1.309586 A    
C29   N17   1.458633 S    
N9    H11   1.031002 S    
N7    C31   1.445531 S    
C19   C21   1.534582 S    
C25   N2    1.484433 S    
N3    O10   1.300182 A    
O4    Cu1   1.972055 S    
N9    C33   1.445975 S    
C28   C29   1.522863 S    
C32   H9    1.107760 S    
N16   O28   1.300215 A    
C6    C12   1.540525 S    
C5    N5    1.457719 S    
C22   C24   1.538374 S    
Cu2   N2    2.063410 S    
N4    O12   1.300095 A    
C31   H4    1.109825 S    
N15   O26   1.300199 A    
Cu1   Cu2   2.745905 S    
N16   O27   1.298982 A    
N1    C29   1.486332 S    
O2    C2    1.309591 A    
N2    C30   1.486226 S    
O2    Cu2   1.966943 S    
N11   O18   1.298460 A    
C19   N9    1.448489 S    
C34   H17   1.110359 S    
C17   C22   1.553267 S    
N6    O16   1.300169 A    
C31   H5    1.108546 S    
C20   C22   1.534615 S    
C17   H1    1.110118 S    
N5    O13   1.300350 A    
C18   H2    1.110122 S    
N12   O19   1.300031 A    
C26   N1    1.484547 S    
O4    C2    1.305284 A    
C33   H13   1.110942 S    
C30   N18   1.458638 S    
C17   C23   1.545050 S    
C34   H16   1.110093 S    
C7    N3    1.457673 S    
N5    O14   1.300212 A    
C25   C29   1.527025 S    
N10   H15   1.031005 S    
C26   C30   1.527194 S    
O7    C3    1.310230 A    
N14   O24   1.295727 A    
N17   O29   1.299832 A    
C5    C11   1.544142 S    
O6    C4    1.310780 A    
C32   H10   1.107490 S    
C1    C22   1.458705 S    
C4    C10   1.417812 S    
C25   N15   1.453523 S    
N18   O32   1.299858 A    
N10   C34   1.446003 S    
O3    Cu2   1.972054 S    
O8    C4    1.310229 A    
N4    O11   1.300217 A    
N17   O30   1.299885 A    
C18   C21   1.553234 S    
C6    C13   1.554330 S    
C11   C13   1.549376 S    
C8    C14   1.546390 S    
O1    Cu1   1.966942 S    
N14   O23   1.300514 A    
C34   H18   1.110955 S    
C5    C7    1.537354 S    
N6    O15   1.300376 A    
C5    C14   1.544247 S    
C31   H6    1.110011 S    
O6    Cu2   1.932411 S    
C14   C16   1.451056 S    
O3    C1    1.305310 A    
O8    Cu1   1.933227 S    
C8    N4    1.458518 S    
C33   H14   1.110343 S    
C27   C30   1.523033 S    
C7    C12   1.541287 S    
C2    C21   1.458665 S    
C18   C20   1.547794 S    
C33   H12   1.110111 S    
C25   C27   1.523021 S    
C26   C28   1.523112 S    
C20   N10   1.448489 S    
N7    H3    1.030904 S    
C10   C16   1.195568 T    
C24   N12   1.454671 S    
C28   N2    1.501966 S    
C21   C23   1.538352 S    
C12   C14   1.546250 S    
C13   C15   1.450244 S    
N18   O31   1.299616 A    
C9    C15   1.195335 T    
C6    N6    1.457587 S    
C11   N8    1.449754 S    
N8    H7    1.031042 S    
O5    Cu1   1.932410 S    
C18   C24   1.545053 S    
C6    C8    1.543058 S    
C32   H8    1.110323 S    
C26   N16   1.453478 S    
N13   O22   1.295702 A    
N12   O20   1.298439 A    
C28   N14   1.463217 S    
