data_mof_unit_19369.cif
_audit_creation_date              2012-10-26T19:30:04-0400
_audit_creation_method            fapswitch 2.2
_symmetry_space_group_name_H-M    P1
_symmetry_Int_Tables_number       1
_space_group_crystal_system       triclinic
_cell_length_a                    15.885087
_cell_length_b                    10.597679
_cell_length_c                    9.420287
_cell_angle_alpha                 90.275836
_cell_angle_beta                  90.250327
_cell_angle_gamma                 89.97041
_cell_volume                      1585.82500562

loop_
_atom_site_label
_atom_site_type_symbol
_atom_type_description
_atom_site_fract_x
_atom_site_fract_y
_atom_site_fract_z
_atom_type_partial_charge
C1    C     C_R   0.500020 0.259441 0.499588 0.550983
C2    C     C_3   0.457902 0.405119 0.948576 -0.003200
C3    C     C_3   0.466262 0.602149 0.949695 -0.008333
C4    C     C_3   0.533738 0.397851 0.050305 -0.008333
C5    C     C_3   0.575911 0.492700 0.950223 -0.003569
C6    C     C_3   0.424089 0.507300 0.049777 -0.003569
C7    C     C_R   0.340081 0.500208 0.499726 0.544062
C8    C     C_R   0.659918 0.499792 0.500274 0.544062
C9    C     C_3   0.973814 0.380192 0.525792 -0.038112
C10   C     C_3   0.026186 0.619800 0.474208 -0.038113
C11   C     C_3   0.028500 0.423127 0.399695 0.211368
C12   C     C_R   0.499979 0.740559 0.500411 0.550982
C13   C     C_3   0.971500 0.576865 0.600305 0.211360
C14   C     C_1   0.250679 0.501224 0.499219 -0.010120
C15   C     C_1   0.749321 0.498772 0.500781 -0.010117
C16   C     C_3   0.028966 0.462323 0.625758 0.201655
C17   C     C_3   0.971034 0.537668 0.374242 0.201663
C18   C     C_3   0.083929 0.503622 0.499839 0.033267
C19   C     C_3   0.916071 0.496371 0.500161 0.033266
C20   C     C_1   0.175347 0.502291 0.499239 0.023672
C21   C     C_1   0.824653 0.497703 0.500761 0.023679
C22   C     C_3   0.569365 0.042440 0.566943 -0.124545
C23   C     C_3   0.569020 0.957442 0.433080 -0.126446
C24   C     C_3   0.430635 0.957560 0.433057 -0.124544
C25   C     C_R   0.943190 0.246374 0.542807 0.043039
C26   C     C_R   0.971870 0.169812 0.654435 -0.088298
C27   C     C_R   0.942975 0.045682 0.667088 -0.101522
C28   C     C_R   0.885493 0.996905 0.568538 -0.084526
C29   C     C_R   0.857045 0.072024 0.456728 -0.122549
C30   C     C_R   0.885961 0.196008 0.443485 -0.102719
C31   C     C_R   0.056800 0.753623 0.457190 0.043054
C32   C     C_R   0.028089 0.830191 0.345590 -0.088295
C33   C     C_R   0.056966 0.954331 0.332942 -0.101523
C34   C     C_3   0.430979 0.042557 0.566920 -0.126446
C35   C     C_R   0.114459 0.003112 0.431469 -0.084526
C36   C     C_R   0.142938 0.927987 0.543252 -0.122539
C37   C     C_R   0.114041 0.803992 0.556489 -0.102700
C38   C     C_3   0.499993 0.877479 0.501225 0.045902
C39   C     C_3   0.500006 0.122521 0.498775 0.045903
C40   C     C_3   0.500337 0.960155 0.635230 -0.113511
C41   C     C_3   0.499662 0.039845 0.364770 -0.113510
C42   C     C_3   0.542098 0.594881 0.051424 -0.003201
Cu1   Cu    Cu3+1 0.500020 0.499990 0.643150 0.932711
Cu2   Cu    Cu3+1 0.499980 0.500010 0.356850 0.932712
H1    H     H_    0.625486 0.919356 0.378565 0.108389
H2    H     H_    0.422424 0.325310 0.900490 0.109847
H3    H     H_    0.639999 0.486435 0.904278 0.123533
H4    H     H_    0.360001 0.513565 0.095722 0.123534
H5    H     H_    0.010892 0.310957 0.241965 0.328888
H6    H     H_    0.989108 0.689007 0.758060 0.328898
H7    H     H_    0.017229 0.204407 0.730834 0.152933
H8    H     H_    0.965686 0.986912 0.752775 0.121329
H9    H     H_    0.863563 0.900641 0.578140 0.154084
H10   H     H_    0.812824 0.034028 0.379962 0.107435
H11   H     H_    0.863649 0.252835 0.355792 0.112279
H12   H     H_    0.374513 0.080644 0.621435 0.108392
H13   H     H_    0.982718 0.795594 0.269213 0.152938
H14   H     H_    0.034230 0.013106 0.247279 0.121319
H15   H     H_    0.136373 0.099385 0.421874 0.154107
H16   H     H_    0.187167 0.965987 0.620001 0.107440
H17   H     H_    0.136376 0.747161 0.644163 0.112279
H18   H     H_    0.987874 0.575479 0.177614 0.336918
H19   H     H_    0.012129 0.424533 0.822393 0.336916
H20   H     H_    0.626127 0.080462 0.621401 0.114646
H21   H     H_    0.373872 0.919538 0.378599 0.114645
H22   H     H_    0.500595 0.924783 0.745987 0.113965
H23   H     H_    0.499404 0.075217 0.254013 0.113965
H24   H     H_    0.437744 0.688096 0.902689 0.102625
H25   H     H_    0.562256 0.311904 0.097311 0.102625
H26   H     H_    0.577576 0.674690 0.099510 0.109845
N1    N     N_3   0.500060 0.499970 0.858290 -0.231420
N2    N     N_3   0.499940 0.500030 0.141710 -0.231420
O1    O     O_R   0.500040 0.316850 0.620870 -0.505047
O2    O     O_3   0.939298 0.655554 0.706623 -0.701801
O3    O     O_3   0.938534 0.570998 0.241449 -0.708565
O4    O     O_3   0.061467 0.428991 0.758549 -0.708564
O5    O     O_R   0.499960 0.683150 0.379130 -0.505047
O6    O     O_R   0.500000 0.316860 0.379090 -0.507276
O7    O     O_R   0.500000 0.683140 0.620910 -0.507276
O8    O     O_R   0.379090 0.499980 0.620870 -0.492940
O9    O     O_R   0.620910 0.500020 0.379130 -0.492940
O10   O     O_R   0.379060 0.499990 0.379090 -0.499077
O11   O     O_R   0.620940 0.500010 0.620910 -0.499077
O12   O     O_3   0.060703 0.344440 0.293376 -0.701798

loop_
_geom_bond_atom_site_label_1
_geom_bond_atom_site_label_2
_ccdc_geom_bond_type
Cu1   O1    S    
C5    C42   S    
C11   C18   S    
C34   H12   S    
C33   H14   S    
C23   H1    S    
C8    O11   A    
Cu1   O11   S    
C2    C4    S    
C3    H24   S    
C3    C6    S    
C9    C25   S    
C3    C42   S    
C2    H2    S    
C6    N2    S    
C5    H3    S    
C26   C27   A    
C6    H4    S    
C34   C40   S    
H5    O12   S    
C36   C37   A    
C19   C21   S    
C9    C16   S    
Cu2   O10   S    
H6    O2    S    
H19   O4    S    
C10   C17   S    
Cu1   O7    S    
C12   O7    A    
C42   H26   S    
C35   H15   S    
C17   C19   S    
C10   C31   S    
C9    C19   S    
C7    C14   S    
C11   C17   S    
C35   C36   A    
C24   C38   S    
C40   H22   S    
C1    O6    A    
C2    C6    S    
C24   C41   S    
C32   H13   S    
C4    H25   S    
C13   C19   S    
C34   C39   S    
C14   C20   T    
C41   H23   S    
Cu2   O9    S    
Cu1   O8    S    
C24   C34   S    
C8    O9    A    
C3    N1    S    
Cu1   Cu2   S    
C29   C30   A    
C31   C32   A    
C22   C40   S    
C12   O5    A    
C42   N2    S    
C9    C11   S    
C24   H21   S    
C8    C15   S    
H18   O3    S    
C2    N1    S    
C4    N2    S    
C27   H8    S    
C25   C30   A    
C28   C29   A    
Cu1   N1    S    
C16   O4    S    
C4    C5    S    
C36   H16   S    
C10   C13   S    
C37   H17   S    
C28   H9    S    
C11   O12   S    
C23   C38   S    
Cu2   O5    S    
C30   H11   S    
C23   C41   S    
C1    O1    A    
C32   C33   A    
Cu2   O6    S    
C25   C26   A    
C5    N1    S    
C26   H7    S    
C38   C40   S    
C10   C18   S    
C22   C39   S    
C33   C35   A    
Cu2   N2    S    
C18   C20   S    
C12   C38   S    
C1    C39   S    
C22   H20   S    
C31   C37   A    
C15   C21   T    
C7    O10   A    
C13   O2    S    
C39   C41   S    
C16   C18   S    
C29   H10   S    
C13   C16   S    
C27   C28   A    
C17   O3    S    
C22   C23   S    
C7    O8    A    
