data_mof_unit_11626.cif
_audit_creation_date              2012-12-10T17:35:51-0500
_audit_creation_method            fapswitch 2.2
_symmetry_space_group_name_H-M    P1
_symmetry_Int_Tables_number       1
_space_group_crystal_system       triclinic
_cell_length_a                    10.574144
_cell_length_b                    12.257163
_cell_length_c                    12.866881
_cell_angle_alpha                 93.244046
_cell_angle_beta                  94.971972
_cell_angle_gamma                 88.862276
_cell_volume                      1658.53891184

loop_
_atom_site_label
_atom_site_type_symbol
_atom_type_description
_atom_site_fract_x
_atom_site_fract_y
_atom_site_fract_z
_atom_type_partial_charge
C1    C     C_R   0.495733 0.521208 0.699526 0.859551
C2    C     C_R   0.617422 0.162970 0.586381 0.231764
C3    C     C_R   0.554898 0.861756 0.544254 0.166015
C4    C     C_R   0.445102 0.138244 0.455746 0.166014
C5    C     C_R   0.548302 0.977486 0.532933 0.033194
C6    C     C_R   0.451697 0.022514 0.467067 0.033192
C7    C     C_R   0.742201 0.502778 0.504389 0.852021
C8    C     C_R   0.257799 0.497222 0.495612 0.852026
C9    C     C_3   0.964536 0.424494 0.563563 -0.257399
C10   C     C_3   0.035465 0.575505 0.436441 -0.257400
C11   C     C_3   0.056613 0.518756 0.596248 0.108228
C12   C     C_R   0.504268 0.478793 0.300474 0.859556
C13   C     C_3   0.943388 0.481243 0.403755 0.108227
C14   C     C_3   0.122463 0.493353 0.496098 -0.099666
C15   C     C_3   0.877537 0.506646 0.503905 -0.099667
C16   C     C_3   0.031099 0.399580 0.462733 0.130623
C17   C     C_3   0.968902 0.600419 0.537270 0.130618
C18   C     C_R   0.511867 0.467403 0.189494 -0.045247
C19   C     C_R   0.488136 0.532599 0.810506 -0.045250
C20   C     C_R   0.431506 0.635351 0.964785 -0.238823
C21   C     C_R   0.568498 0.364652 0.035216 -0.238819
C22   C     C_R   0.436084 0.626818 0.857465 -0.199559
C23   C     C_R   0.530017 0.445207 0.869667 -0.306044
C24   C     C_R   0.563917 0.373184 0.142535 -0.199569
C25   C     C_3   0.128548 0.531273 0.704887 -0.402656
C26   C     C_3   0.038105 0.545813 0.791729 -0.362782
C27   C     C_3   0.111024 0.567229 0.898178 -0.872669
C28   C     C_3   0.871455 0.468727 0.295115 -0.402657
C29   C     C_3   0.961901 0.454190 0.208274 -0.362773
C30   C     C_3   0.888983 0.432783 0.101823 -0.872651
C31   C     C_3   0.069662 0.284519 0.425650 -0.433386
C32   C     C_3   0.955856 0.208782 0.401826 -0.316130
C33   C     C_3   0.998702 0.091322 0.376737 -0.930303
C34   C     C_R   0.469992 0.554798 0.130334 -0.306046
C35   C     C_3   0.930339 0.715480 0.574353 -0.433377
C36   C     C_3   0.044147 0.791213 0.598190 -0.316128
C37   C     C_3   0.001299 0.908679 0.623254 -0.930287
C38   C     C_3   0.356985 0.183077 0.369269 -0.420803
C39   C     C_3   0.400748 0.151405 0.260843 -0.351105
C40   C     C_3   0.314690 0.203579 0.175270 -0.888150
C41   C     C_3   0.643016 0.816923 0.630731 -0.420803
C42   C     C_3   0.599255 0.848594 0.739157 -0.351106
C43   C     C_3   0.685315 0.796421 0.824729 -0.888147
C44   C     C_3   0.712940 0.230502 0.656142 -0.381545
C45   C     C_R   0.524544 0.451962 0.976027 0.194773
C46   C     C_3   0.727107 0.197149 0.770431 -0.401679
C47   C     C_3   0.819682 0.271544 0.837667 -0.924110
C48   C     C_3   0.287057 0.769497 0.343859 -0.381539
C49   C     C_3   0.272880 0.802852 0.229570 -0.401670
C50   C     C_3   0.180307 0.728454 0.162336 -0.924122
C51   C     C_R   0.475463 0.548043 0.023974 0.194762
C52   C     C_R   0.364815 0.950588 0.413386 -0.341920
C53   C     C_R   0.635185 0.049412 0.586614 -0.341918
C54   C     C_R   0.382578 0.837030 0.413619 0.231760
H1    H     H_    0.934623 0.364713 0.617541 0.143116
H2    H     H_    0.972255 0.615752 0.777360 0.223397
H3    H     H_    0.980953 0.471008 0.793503 0.220919
H4    H     H_    0.188098 0.456664 0.717573 0.204337
H5    H     H_    0.193425 0.601480 0.707483 0.194971
H6    H     H_    0.835170 0.355892 0.101041 0.262281
H7    H     H_    0.822423 0.501722 0.083625 0.275082
H8    H     H_    0.956620 0.423342 0.040525 0.253195
H9    H     H_    0.019058 0.528992 0.206506 0.220917
H10   H     H_    0.027747 0.384246 0.222640 0.223396
H11   H     H_    0.806579 0.398519 0.292516 0.194970
H12   H     H_    0.065378 0.635286 0.382463 0.143112
H13   H     H_    0.811905 0.543336 0.282429 0.204338
H14   H     H_    0.049757 0.086520 0.304682 0.260530
H15   H     H_    0.062068 0.060821 0.442572 0.266284
H16   H     H_    0.914494 0.037983 0.363779 0.256473
H17   H     H_    0.898459 0.209953 0.469902 0.225736
H18   H     H_    0.894775 0.236516 0.333767 0.224546
H19   H     H_    0.119919 0.290419 0.354342 0.187474
H20   H     H_    0.135228 0.250827 0.488499 0.216381
H21   H     H_    0.937949 0.939172 0.557404 0.266285
H22   H     H_    0.950224 0.913495 0.695299 0.260522
H23   H     H_    0.433525 0.628480 0.167121 0.176568
H24   H     H_    0.085509 0.962015 0.636219 0.256473
H25   H     H_    0.105204 0.763487 0.666268 0.224537
H26   H     H_    0.101570 0.790028 0.530128 0.225742
H27   H     H_    0.864781 0.749175 0.511500 0.216382
H28   H     H_    0.880074 0.709578 0.645657 0.187467
H29   H     H_    0.603656 0.307890 0.188591 0.150856
H30   H     H_    0.396342 0.692109 0.811409 0.150852
H31   H     H_    0.216553 0.172624 0.174459 0.253529
H32   H     H_    0.312468 0.293907 0.188337 0.266661
H33   H     H_    0.350846 0.182606 0.098038 0.256162
H34   H     H_    0.566488 0.371527 0.832881 0.176578
H35   H     H_    0.499741 0.177854 0.257732 0.230366
H36   H     H_    0.399775 0.061515 0.245018 0.216788
H37   H     H_    0.260550 0.153001 0.374210 0.180782
H38   H     H_    0.348876 0.271803 0.378094 0.265834
H39   H     H_    0.687539 0.706093 0.811662 0.266661
H40   H     H_    0.783451 0.827377 0.825539 0.253530
H41   H     H_    0.649160 0.817392 0.901962 0.256163
H42   H     H_    0.600226 0.938484 0.754982 0.216786
H43   H     H_    0.500261 0.822144 0.742270 0.230367
H44   H     H_    0.651124 0.728197 0.621904 0.265834
H45   H     H_    0.392012 0.708816 0.001035 0.145282
H46   H     H_    0.739451 0.846999 0.625787 0.180781
H47   H     H_    0.915914 0.263209 0.809380 0.265114
H48   H     H_    0.788508 0.358399 0.835157 0.259574
H49   H     H_    0.825334 0.247702 0.919902 0.257651
H50   H     H_    0.633172 0.199545 0.802852 0.219218
H51   H     H_    0.765373 0.112609 0.776026 0.226218
H52   H     H_    0.806485 0.218821 0.624299 0.174196
H53   H     H_    0.688979 0.317509 0.657563 0.260765
H54   H     H_    0.211521 0.641606 0.164802 0.259582
H55   H     H_    0.084091 0.736740 0.190660 0.265112
H56   H     H_    0.607989 0.291187 0.998965 0.145273
H57   H     H_    0.174599 0.752332 0.080111 0.257658
H58   H     H_    0.234606 0.887391 0.223979 0.226221
H59   H     H_    0.366812 0.800462 0.197144 0.219215
H60   H     H_    0.311020 0.682490 0.342436 0.260769
H61   H     H_    0.193515 0.781175 0.375708 0.174195
H62   H     H_    0.281916 0.981437 0.369551 0.161305
H63   H     H_    0.718084 0.018562 0.630451 0.161305
H64   H     H_    0.177586 0.498292 0.916380 0.275086
H65   H     H_    0.164833 0.644121 0.898954 0.262284
H66   H     H_    0.043387 0.576672 0.959477 0.253197
N1    N     N_R   0.523490 0.207800 0.519350 -0.134491
N2    N     N_R   0.476510 0.792200 0.480650 -0.134493
O1    O     O_R   0.506270 0.421700 0.658830 -0.634564
O2    O     O_R   0.493730 0.578300 0.341170 -0.634564
O3    O     O_R   0.491200 0.609310 0.646410 -0.631546
O4    O     O_R   0.508800 0.390690 0.353590 -0.631545
O5    O     O_R   0.693580 0.406210 0.506230 -0.640141
O6    O     O_R   0.306420 0.593790 0.493770 -0.640145
O7    O     O_R   0.678510 0.593830 0.493810 -0.643613
O8    O     O_R   0.321490 0.406170 0.506190 -0.643614
Zn1   Zn    Zn3+2 0.510060 0.374730 0.508290 0.900559
Zn2   Zn    Zn3+2 0.489940 0.625270 0.491710 0.900558

loop_
_geom_bond_atom_site_label_1
_geom_bond_atom_site_label_2
_ccdc_geom_bond_type
C49   H59   S    
C29   H9    S    
C23   C45   A    
C41   C42   S    
C48   H61   S    
C35   C36   S    
C21   H56   S    
C35   H27   S    
C32   H18   S    
C27   H66   S    
C16   C31   S    
C48   C54   S    
C26   C27   S    
C42   H42   S    
C40   H33   S    
C5    C53   A    
C28   C29   S    
C24   H29   S    
C1    O3    A    
C20   C51   A    
C34   H23   S    
C38   C39   S    
C11   C14   S    
C53   H63   S    
C31   H19   S    
C12   O4    A    
C45   C51   A    
C10   C17   S    
C46   H51   S    
C38   H38   S    
C43   H40   S    
O2    Zn2   S    
C40   H32   S    
C8    O6    A    
C11   C17   S    
C44   C46   S    
C30   H6    S    
C43   H41   S    
C10   C13   S    
C13   C28   S    
C9    H1    S    
C39   H36   S    
C3    N2    A    
C33   H15   S    
O7    Zn2   S    
C52   H62   S    
C37   H21   S    
C29   H10   S    
C47   H48   S    
C50   H54   S    
N1    Zn1   S    
O6    Zn2   S    
N2    Zn2   S    
C35   H28   S    
C52   C54   A    
C32   H17   S    
C21   C45   A    
C10   H12   S    
C1    C19   S    
C47   H49   S    
C19   C22   A    
C4    C6    A    
C36   H26   S    
C42   H43   S    
C2    C44   S    
C39   C40   S    
C31   H20   S    
C25   C26   S    
C46   H50   S    
C38   H37   S    
C36   H25   S    
C50   H55   S    
C22   H30   S    
C40   H31   S    
C19   C23   A    
C1    O1    A    
C29   C30   S    
C2    N1    A    
C9    C11   S    
C31   C32   S    
C12   O2    A    
C28   H13   S    
C34   C51   A    
C41   H46   S    
C18   C34   A    
C33   H16   S    
C49   H58   S    
C48   C49   S    
C37   H22   S    
C4    C38   S    
C27   H65   S    
C23   H34   S    
C30   H8    S    
C8    O8    A    
C18   C24   A    
C13   C16   S    
C25   H4    S    
C21   C24   A    
C48   H60   S    
C44   H53   S    
C15   C17   S    
C46   C47   S    
C3    C41   S    
C8    C14   S    
O1    Zn1   S    
C9    C16   S    
C20   C22   A    
C3    C5    A    
C2    C53   A    
C26   H2    S    
C44   H52   S    
C25   H5    S    
C37   H24   S    
C7    O5    A    
C32   C33   S    
C13   C15   S    
C28   H11   S    
C9    C15   S    
O3    Zn2   S    
C5    C6    A    
C20   H45   S    
O4    Zn1   S    
C7    C15   S    
C50   H57   S    
C43   H39   S    
C4    N1    A    
O8    Zn1   S    
C14   C16   S    
C47   H47   S    
C54   N2    A    
C26   H3    S    
O5    Zn1   S    
C7    O7    A    
C17   C35   S    
C36   C37   S    
C49   C50   S    
C42   C43   S    
C30   H7    S    
C12   C18   S    
C11   C25   S    
C41   H44   S    
C27   H64   S    
C6    C52   A    
C39   H35   S    
C33   H14   S    
C10   C14   S    
