data_mof_unit_60417.cif
_audit_creation_date              2012-12-10T19:23:53-0500
_audit_creation_method            fapswitch 2.2
_symmetry_space_group_name_H-M    P1
_symmetry_Int_Tables_number       1
_space_group_crystal_system       triclinic
_cell_length_a                    44.617084
_cell_length_b                    38.897709
_cell_length_c                    21.605004
_cell_angle_alpha                 90.001382
_cell_angle_beta                  60.753031
_cell_angle_gamma                 90.000546
_cell_volume                      32715.673903

loop_
_atom_site_label
_atom_site_type_symbol
_atom_type_description
_atom_site_fract_x
_atom_site_fract_y
_atom_site_fract_z
_atom_type_partial_charge
C1    C     C_R   0.067198 0.499991 0.433380 0.866555
C2    C     C_R   0.976919 0.477503 0.242755 0.001455
C3    C     C_R   0.232252 0.982310 0.811187 -0.181702
C4    C     C_R   0.285805 0.500764 0.215828 0.106185
C5    C     C_R   0.714194 0.500762 0.784183 0.106174
C6    C     C_R   0.785805 0.000762 0.215800 0.106188
C7    C     C_R   0.214197 0.000775 0.784150 0.106195
C8    C     C_R   0.158572 0.469481 0.334875 -0.179570
C9    C     C_R   0.841427 0.469482 0.665131 -0.179577
C10   C     C_R   0.658573 0.969490 0.334752 -0.179596
C11   C     C_R   0.341427 0.969500 0.665270 -0.179543
C12   C     C_R   0.122902 0.469340 0.370005 -0.201282
C13   C     C_R   0.523069 0.977497 0.757255 0.001387
C14   C     C_R   0.877097 0.469341 0.629993 -0.201270
C15   C     C_R   0.622902 0.969348 0.369900 -0.201290
C16   C     C_R   0.377098 0.969358 0.630143 -0.201315
C17   C     C_R   0.104682 0.500019 0.397473 -0.034258
C18   C     C_R   0.895317 0.500020 0.602544 -0.034210
C19   C     C_R   0.604683 0.000019 0.397440 -0.034187
C20   C     C_R   0.395319 0.000018 0.602496 -0.034383
C21   C     C_R   0.122549 0.530768 0.390168 -0.196843
C22   C     C_R   0.877449 0.530773 0.609880 -0.196794
C23   C     C_R   0.622549 0.030764 0.390179 -0.196743
C24   C     C_R   0.476905 0.977518 0.242770 0.001452
C25   C     C_R   0.377456 0.030748 0.609607 -0.197035
C26   C     C_R   0.158225 0.530913 0.354831 -0.198090
C27   C     C_R   0.841772 0.530918 0.645222 -0.198122
C28   C     C_R   0.658225 0.030910 0.354829 -0.198097
C29   C     C_R   0.341779 0.030894 0.644932 -0.197983
C30   C     C_R   0.176433 0.500289 0.326783 0.114558
C31   C     C_R   0.823566 0.500292 0.673246 0.114557
C32   C     C_R   0.676433 0.000292 0.326719 0.114522
C33   C     C_R   0.323570 0.000290 0.673169 0.114518
C34   C     C_R   0.000000 0.432797 0.999999 0.862301
C35   C     C_R   0.022446 0.478654 0.693861 -0.241956
C36   C     C_R   0.500000 0.932796 0.000002 0.862304
C37   C     C_R   0.950826 0.576778 0.735551 -0.126749
C38   C     C_R   0.049224 0.576792 0.264224 -0.127038
C39   C     C_R   0.450724 0.076855 0.736195 -0.127618
C40   C     C_R   0.549203 0.076757 0.264429 -0.126752
C41   C     C_R   0.000082 0.499270 0.879749 0.875513
C42   C     C_R   0.999918 0.499270 0.120251 0.875520
C43   C     C_R   0.500082 0.999272 0.879749 0.875545
C44   C     C_R   0.499918 0.999271 0.120251 0.875521
C45   C     C_R   1.000000 0.567188 0.000000 0.862420
C46   C     C_R   0.977563 0.478647 0.306129 -0.241934
C47   C     C_R   0.500000 0.067188 1.000000 0.862410
C48   C     C_R   0.500000 0.432661 0.999999 0.870899
C49   C     C_R   1.000000 0.932661 0.999999 0.870896
C50   C     C_R   0.432755 0.500010 0.067367 0.870183
C51   C     C_R   0.567245 0.500011 0.932633 0.870180
C52   C     C_R   0.932755 0.000011 0.067366 0.870199
C53   C     C_R   0.067245 0.000011 0.932633 0.870189
C54   C     C_R   0.500000 0.567187 0.000001 0.871043
C55   C     C_R   1.000000 0.067187 0.000000 0.871091
C56   C     C_R   0.503079 0.622952 0.052776 -0.190807
C57   C     C_R   0.522419 0.978637 0.693888 -0.241804
C58   C     C_R   0.496920 0.622953 0.947234 -0.190805
C59   C     C_R   0.002706 0.122956 0.053213 -0.190815
C60   C     C_R   0.997296 0.122955 0.946788 -0.190801
C61   C     C_R   0.503132 0.658695 0.052699 -0.168086
C62   C     C_R   0.496866 0.658696 0.947315 -0.168088
C63   C     C_R   0.002754 0.158699 0.053142 -0.168111
C64   C     C_R   0.997250 0.158698 0.946858 -0.168112
C65   C     C_R   0.500000 0.676793 0.000008 0.143784
C66   C     C_R   0.000002 0.176794 0.000000 0.143809
C67   C     C_R   0.499999 0.604827 0.000003 -0.039383
C68   C     C_R   0.477549 0.978662 0.306145 -0.241902
C69   C     C_R   0.000001 0.104829 0.000001 -0.039457
C70   C     C_R   0.480949 0.732580 0.063636 -0.201975
C71   C     C_R   0.519056 0.732577 0.936379 -0.201951
C72   C     C_R   0.980651 0.232579 0.063510 -0.201891
C73   C     C_R   0.019352 0.232578 0.936491 -0.201897
C74   C     C_R   0.948543 0.540807 0.740354 0.128156
C75   C     C_R   0.051457 0.540816 0.259634 0.128276
C76   C     C_R   0.448568 0.040866 0.740363 0.128506
C77   C     C_R   0.551474 0.040787 0.259634 0.128142
C78   C     C_R   0.980584 0.268340 0.063896 0.151836
C79   C     C_R   0.999014 0.499918 0.687180 -0.075687
C80   C     C_R   0.019417 0.268340 0.936105 0.151842
C81   C     C_R   0.480883 0.768341 0.064016 0.151900
C82   C     C_R   0.519125 0.768339 0.935996 0.151877
C83   C     C_R   0.000001 0.286341 0.000001 -0.026846
C84   C     C_R   0.500004 0.786339 0.000005 -0.027004
C85   C     C_R   0.500002 0.714520 0.000008 0.021168
C86   C     C_R   0.000002 0.214522 0.000000 0.021181
C87   C     C_R   0.028026 0.341599 0.996406 -0.124472
C88   C     C_R   0.971975 0.341598 0.003593 -0.124473
C89   C     C_R   0.528075 0.841594 0.996191 -0.124477
C90   C     C_R   0.000991 0.499916 0.312814 -0.075719
C91   C     C_R   0.471931 0.841591 0.003817 -0.124489
C92   C     C_R   0.028091 0.377334 0.996182 -0.225580
C93   C     C_R   0.971911 0.377333 0.003813 -0.225567
C94   C     C_R   0.528134 0.877329 0.995986 -0.225504
C95   C     C_R   0.471868 0.877326 0.004025 -0.225658
C96   C     C_R   0.000000 0.395345 0.999997 -0.053725
C97   C     C_R   0.500000 0.895341 0.000006 -0.053675
C98   C     C_R   0.000000 0.323766 0.000001 0.166581
C99   C     C_R   0.500004 0.823762 0.000003 0.166776
C100  C     C_R   0.499987 0.377051 0.943816 -0.190497
C101  C     C_R   0.499002 0.999918 0.687194 -0.075785
C102  C     C_R   0.500012 0.377051 0.056179 -0.190494
C103  C     C_R   0.999988 0.877051 0.943816 -0.190508
C104  C     C_R   0.000010 0.877051 0.056181 -0.190495
C105  C     C_R   0.499998 0.341354 0.943827 -0.177596
C106  C     C_R   0.499999 0.341354 0.056166 -0.177592
C107  C     C_R   0.999999 0.841354 0.943827 -0.177597
C108  C     C_R   0.999998 0.841355 0.056169 -0.177599
C109  C     C_R   0.499998 0.323352 0.999996 0.116127
C110  C     C_R   0.999998 0.823352 0.999998 0.116130
C111  C     C_R   0.919565 0.524227 0.745076 -0.159403
C112  C     C_R   0.932802 0.499992 0.566625 0.866616
C113  C     C_R   0.500989 0.999916 0.312819 -0.075680
C114  C     C_R   0.080403 0.524228 0.255050 -0.159200
C115  C     C_R   0.419689 0.024288 0.744600 -0.158733
C116  C     C_R   0.580448 0.024194 0.254909 -0.159460
C117  C     C_R   0.500000 0.395122 0.999998 -0.036344
C118  C     C_R   1.000000 0.895122 0.999999 -0.036340
C119  C     C_R   0.477735 0.267773 0.061816 -0.184417
C120  C     C_R   0.522259 0.267772 0.938173 -0.184412
C121  C     C_R   0.977734 0.767773 0.061818 -0.184418
C122  C     C_R   0.022261 0.767772 0.938177 -0.184418
C123  C     C_R   0.977719 0.732078 0.061806 -0.185076
C124  C     C_R   0.975680 0.520500 0.743687 -0.005214
C125  C     C_R   0.022277 0.732077 0.938191 -0.185073
C126  C     C_R   0.477720 0.232078 0.061802 -0.185067
C127  C     C_R   0.522275 0.232077 0.938185 -0.185081
C128  C     C_R   0.999998 0.714074 0.999999 0.106428
C129  C     C_R   0.499997 0.214074 0.999994 0.106424
C130  C     C_R   0.499997 0.285777 0.999995 0.106352
C131  C     C_R   0.999998 0.785777 0.999998 0.106354
C132  C     C_R   0.031165 0.658499 0.969685 -0.179418
C133  C     C_R   0.968832 0.658498 0.030314 -0.179414
C134  C     C_R   0.531165 0.158499 0.969678 -0.179409
C135  C     C_R   0.024317 0.520507 0.256315 -0.005164
C136  C     C_R   0.468832 0.158498 0.030312 -0.179430
C137  C     C_R   0.031179 0.622803 0.969689 -0.192361
C138  C     C_R   0.968819 0.622802 0.030311 -0.192353
C139  C     C_R   0.531179 0.122803 0.969684 -0.192360
C140  C     C_R   0.468819 0.122802 0.030310 -0.192374
C141  C     C_R   0.999999 0.604729 0.000000 -0.035313
C142  C     C_R   0.499999 0.104729 0.999998 -0.035313
C143  C     C_R   0.999998 0.676500 0.999999 0.115605
C144  C     C_R   0.499998 0.176500 0.999994 0.115607
C145  C     C_R   0.893024 0.543498 0.745536 -0.128709
C146  C     C_R   0.475697 0.020533 0.743679 -0.005076
C147  C     C_R   0.106964 0.543498 0.254508 -0.128738
C148  C     C_R   0.393121 0.043577 0.745222 -0.128768
C149  C     C_R   0.606997 0.043456 0.254439 -0.128689
C150  C     C_R   0.895590 0.579294 0.739779 -0.109501
C151  C     C_R   0.104448 0.579302 0.260053 -0.109521
C152  C     C_R   0.395564 0.079394 0.740087 -0.109493
C153  C     C_R   0.604445 0.079253 0.260185 -0.109441
C154  C     C_R   0.976681 0.519877 0.806620 -0.240947
C155  C     C_R   0.023310 0.519887 0.193386 -0.240967
C156  C     C_R   0.476710 0.019913 0.806601 -0.241006
C157  C     C_R   0.524330 0.020490 0.256307 -0.005208
C158  C     C_R   0.523328 0.019869 0.193374 -0.240931
C159  C     C_R   0.082087 0.455767 0.721486 -0.140864
C160  C     C_R   0.917924 0.455751 0.278507 -0.140866
C161  C     C_R   0.582061 0.955749 0.721541 -0.140780
C162  C     C_R   0.417893 0.955818 0.278521 -0.140837
C163  C     C_R   0.103990 0.431519 0.726338 -0.148905
C164  C     C_R   0.567198 0.999991 0.433372 0.866630
C165  C     C_R   0.896025 0.431497 0.273652 -0.148907
C166  C     C_R   0.603956 0.931493 0.726397 -0.148814
C167  C     C_R   0.395976 0.931583 0.273679 -0.148782
C168  C     C_R   0.090343 0.403766 0.773036 -0.096333
C169  C     C_R   0.909676 0.403748 0.226946 -0.096309
C170  C     C_R   0.590300 0.903731 0.773067 -0.096501
C171  C     C_R   0.409607 0.903818 0.227007 -0.096624
C172  C     C_R   0.054788 0.400270 0.815031 -0.094605
C173  C     C_R   0.945232 0.400259 0.184946 -0.094604
C174  C     C_R   0.554744 0.900234 0.815031 -0.094563
C175  C     C_R   0.432803 0.999991 0.566610 0.866409
C176  C     C_R   0.445160 0.900296 0.185026 -0.094547
C177  C     C_R   0.032799 0.424685 0.811066 -0.137519
C178  C     C_R   0.967216 0.424679 0.188913 -0.137542
C179  C     C_R   0.532762 0.924658 0.811064 -0.137422
C180  C     C_R   0.467163 0.924697 0.188980 -0.137217
C181  C     C_R   0.999401 0.499995 0.620702 0.881802
C182  C     C_R   0.000602 0.499994 0.379294 0.881739
C183  C     C_R   0.499393 0.999995 0.620710 0.881581
C184  C     C_R   0.500600 0.999994 0.379297 0.881773
C185  C     C_R   0.046344 0.452605 0.764190 0.131133
C186  C     C_R   0.000149 0.498656 0.813441 -0.080506
C187  C     C_R   0.953667 0.452596 0.235797 0.131127
C188  C     C_R   0.546317 0.952585 0.764214 0.131026
C189  C     C_R   0.453635 0.952629 0.235831 0.131063
C190  C     C_R   0.377151 0.504112 0.067772 -0.188889
C191  C     C_R   0.622847 0.504137 0.932227 -0.188889
C192  C     C_R   0.877155 0.004149 0.067768 -0.188849
C193  C     C_R   0.122849 0.004216 0.932200 -0.188858
C194  C     C_R   0.341468 0.504424 0.103868 -0.176257
C195  C     C_R   0.658531 0.504447 0.896134 -0.176257
C196  C     C_R   0.841472 0.004461 0.103858 -0.176253
C197  C     C_R   0.999849 0.498658 0.186559 -0.080481
C198  C     C_R   0.158532 0.004534 0.896098 -0.176231
C199  C     C_R   0.323428 0.500715 0.177833 0.115679
C200  C     C_R   0.676571 0.500713 0.822174 0.115668
C201  C     C_R   0.823429 0.000713 0.177814 0.115679
C202  C     C_R   0.176572 0.000725 0.822152 0.115685
C203  C     C_R   0.341472 0.496793 0.215336 -0.175751
C204  C     C_R   0.658531 0.496767 0.784672 -0.175750
C205  C     C_R   0.841469 0.996755 0.215316 -0.175745
C206  C     C_R   0.158527 0.996700 0.784676 -0.175740
C207  C     C_R   0.377153 0.496612 0.179301 -0.188657
C208  C     C_R   0.500153 0.998665 0.813439 -0.080422
C209  C     C_R   0.622849 0.496587 0.820703 -0.188657
C210  C     C_R   0.877151 0.996576 0.179288 -0.188696
C211  C     C_R   0.122845 0.996518 0.820715 -0.188679
C212  C     C_R   0.395220 0.500222 0.105273 -0.036508
C213  C     C_R   0.604780 0.500222 0.894728 -0.036502
C214  C     C_R   0.895220 0.000223 0.105268 -0.036502
C215  C     C_R   0.104779 0.000225 0.894724 -0.036488
C216  C     C_R   0.267773 0.519255 0.279291 -0.183952
C217  C     C_R   0.732227 0.519250 0.720719 -0.183954
C218  C     C_R   0.767770 0.019223 0.279302 -0.183949
C219  C     C_R   0.499851 0.998657 0.186560 -0.080532
C220  C     C_R   0.232227 0.019163 0.720549 -0.183937
C221  C     C_R   0.232088 0.519090 0.315547 -0.182342
C222  C     C_R   0.767913 0.519088 0.684471 -0.182343
C223  C     C_R   0.732084 0.019060 0.315544 -0.182328
C224  C     C_R   0.267913 0.018993 0.684284 -0.182335
C225  C     C_R   0.214047 0.500499 0.288643 0.107774
C226  C     C_R   0.785952 0.500500 0.711380 0.107767
C227  C     C_R   0.714047 0.000501 0.288588 0.107786
C228  C     C_R   0.285956 0.000503 0.711315 0.107763
C229  C     C_R   0.924495 0.595923 0.734693 -0.143956
C230  C     C_R   0.023087 0.477508 0.757238 0.001469
C231  C     C_R   0.075573 0.595938 0.265007 -0.143954
C232  C     C_R   0.424371 0.096022 0.735477 -0.143940
C233  C     C_R   0.575543 0.095892 0.265275 -0.143958
C234  C     C_R   0.232079 0.482114 0.225054 -0.187499
C235  C     C_R   0.767919 0.482117 0.774969 -0.187507
C236  C     C_R   0.732083 0.982147 0.224961 -0.187514
C237  C     C_R   0.267926 0.982223 0.775040 -0.187481
C238  C     C_R   0.267753 0.482198 0.188917 -0.181710
C239  C     C_R   0.732245 0.482200 0.811102 -0.181715
C240  C     C_R   0.767756 0.982228 0.188837 -0.181710
H1    H     H_    0.875112 0.594138 0.739611 0.123156
H2    H     H_    0.955758 0.378495 0.149682 0.173791
H3    H     H_    0.000380 0.827796 0.099573 0.130391
H4    H     H_    0.460176 0.281325 0.109822 0.132078
H5    H     H_    0.539819 0.281323 0.890168 0.132077
H6    H     H_    0.960174 0.781325 0.109823 0.132074
H7    H     H_    0.039821 0.781323 0.890173 0.132073
H8    H     H_    0.960566 0.718527 0.110148 0.131693
H9    H     H_    0.039429 0.718525 0.889849 0.131694
H10   H     H_    0.460568 0.218527 0.110145 0.131698
H11   H     H_    0.539427 0.218525 0.889843 0.131694
H12   H     H_    0.055455 0.672058 0.946753 0.131250
H13   H     H_    0.544215 0.878461 0.850264 0.173800
H14   H     H_    0.944542 0.672057 0.053245 0.131251
H15   H     H_    0.555454 0.172058 0.946744 0.131253
H16   H     H_    0.444542 0.172057 0.053245 0.131247
H17   H     H_    0.055566 0.609419 0.946156 0.156551
H18   H     H_    0.944432 0.609418 0.053844 0.156553
H19   H     H_    0.555566 0.109419 0.946149 0.156550
H20   H     H_    0.444432 0.109418 0.053846 0.156550
H21   H     H_    0.917339 0.496494 0.749443 0.123487
H22   H     H_    0.082594 0.496489 0.250833 0.123374
H23   H     H_    0.417552 0.996541 0.748508 0.123103
H24   H     H_    0.455669 0.878521 0.149789 0.173748
H25   H     H_    0.582665 0.996460 0.250544 0.123508
H26   H     H_    0.870434 0.530669 0.750504 0.148419
H27   H     H_    0.129532 0.530662 0.249630 0.148446
H28   H     H_    0.370596 0.030746 0.749867 0.148513
H29   H     H_    0.629582 0.030618 0.249474 0.148428
H30   H     H_    0.958899 0.535739 0.850670 0.157638
H31   H     H_    0.041087 0.535753 0.149340 0.157620
H32   H     H_    0.458947 0.035793 0.850640 0.157560
H33   H     H_    0.541115 0.035724 0.149320 0.157650
H34   H     H_    0.039943 0.462612 0.649826 0.155551
H35   H     H_    0.005276 0.421590 0.843674 0.114628
H36   H     H_    0.960072 0.462599 0.350156 0.155565
H37   H     H_    0.539901 0.962577 0.649869 0.155625
H38   H     H_    0.460046 0.962625 0.350183 0.155571
H39   H     H_    0.092920 0.477000 0.684651 0.127125
H40   H     H_    0.907087 0.476981 0.315349 0.127128
H41   H     H_    0.592901 0.976989 0.684728 0.127116
H42   H     H_    0.407073 0.977060 0.315335 0.127112
H43   H     H_    0.131530 0.434118 0.693561 0.132294
H44   H     H_    0.868484 0.434091 0.306435 0.132294
H45   H     H_    0.631498 0.934093 0.693644 0.132247
H46   H     H_    0.994741 0.421590 0.156302 0.114634
H47   H     H_    0.368437 0.934203 0.306445 0.132246
H48   H     H_    0.505237 0.921563 0.843649 0.114777
H49   H     H_    0.494685 0.921583 0.156383 0.114719
H50   H     H_    0.390541 0.507131 0.010659 0.155514
H51   H     H_    0.609455 0.507177 0.989337 0.155511
H52   H     H_    0.890547 0.007198 0.010662 0.155523
H53   H     H_    0.124942 0.594146 0.260152 0.123177
H54   H     H_    0.109458 0.007313 0.989296 0.155501
H55   H     H_    0.327968 0.507927 0.074108 0.130233
H56   H     H_    0.672029 0.507969 0.925892 0.130246
H57   H     H_    0.827975 0.007993 0.074100 0.130236
H58   H     H_    0.172031 0.008118 0.925838 0.130223
H59   H     H_    0.327974 0.493431 0.272373 0.130369
H60   H     H_    0.672031 0.493387 0.727638 0.130377
H61   H     H_    0.827968 0.993363 0.272346 0.130359
H62   H     H_    0.172023 0.993258 0.727658 0.130343
H63   H     H_    0.390543 0.493419 0.209356 0.155474
H64   H     H_    0.375063 0.094252 0.740051 0.123221
H65   H     H_    0.609461 0.493374 0.790650 0.155464
H66   H     H_    0.890538 0.993353 0.209339 0.155448
H67   H     H_    0.109455 0.993244 0.790681 0.155434
H68   H     H_    0.281279 0.534023 0.300508 0.132370
H69   H     H_    0.718721 0.534013 0.699496 0.132381
H70   H     H_    0.781273 0.033965 0.300560 0.132366
H71   H     H_    0.218721 0.033853 0.699228 0.132349
H72   H     H_    0.218592 0.533194 0.364900 0.131765
H73   H     H_    0.781409 0.533193 0.635119 0.131775
H74   H     H_    0.718586 0.033140 0.364927 0.131769
H75   H     H_    0.624929 0.094090 0.260342 0.123178
H76   H     H_    0.281407 0.033016 0.634827 0.131767
H77   H     H_    0.218578 0.467920 0.203060 0.130326
H78   H     H_    0.781421 0.467925 0.796964 0.130330
H79   H     H_    0.718584 0.967978 0.202929 0.130316
H80   H     H_    0.281430 0.968110 0.797130 0.130339
H81   H     H_    0.926382 0.623655 0.730598 0.125714
H82   H     H_    0.073727 0.623676 0.268932 0.125759
H83   H     H_    0.426160 0.123769 0.731879 0.125856
H84   H     H_    0.573667 0.123625 0.269363 0.125723
H85   H     H_    0.281233 0.467488 0.140359 0.131625
H86   H     H_    0.107296 0.384864 0.776381 0.141477
H87   H     H_    0.718763 0.467494 0.859662 0.131638
H88   H     H_    0.781239 0.967542 0.140248 0.131621
H89   H     H_    0.218775 0.967680 0.859851 0.131609
H90   H     H_    0.172209 0.445497 0.314413 0.133722
H91   H     H_    0.827789 0.445497 0.685576 0.133728
H92   H     H_    0.672210 0.945511 0.314236 0.133740
H93   H     H_    0.327787 0.945531 0.685884 0.133745
H94   H     H_    0.109640 0.445288 0.375227 0.159315
H95   H     H_    0.890360 0.445286 0.624747 0.159314
H96   H     H_    0.609640 0.945300 0.375080 0.159319
H97   H     H_    0.892727 0.384841 0.223599 0.141491
H98   H     H_    0.390359 0.945321 0.625075 0.159313
H99   H     H_    0.109003 0.554758 0.411023 0.159798
H100  H     H_    0.890994 0.554765 0.589044 0.159785
H101  H     H_    0.609002 0.054749 0.411088 0.159760
H102  H     H_    0.391005 0.054724 0.588608 0.159792
H103  H     H_    0.171584 0.555023 0.348384 0.132089
H104  H     H_    0.828412 0.555029 0.651690 0.132090
H105  H     H_    0.671584 0.055016 0.348428 0.132093
H106  H     H_    0.328421 0.054991 0.651226 0.132136
H107  H     H_    0.505649 0.609559 0.093883 0.157850
H108  H     H_    0.607248 0.884822 0.776415 0.141213
H109  H     H_    0.494349 0.609560 0.906125 0.157852
H110  H     H_    0.004974 0.109565 0.094682 0.157919
H111  H     H_    0.995027 0.109564 0.905319 0.157925
H112  H     H_    0.506028 0.672199 0.093310 0.137932
H113  H     H_    0.493971 0.672200 0.906705 0.137933
H114  H     H_    0.005347 0.172202 0.094122 0.137936
H115  H     H_    0.994657 0.172201 0.905879 0.137938
H116  H     H_    0.465847 0.718896 0.113010 0.164808
H117  H     H_    0.534158 0.718892 0.887006 0.164813
H118  H     H_    0.965321 0.218896 0.112784 0.164810
H119  H     H_    0.392642 0.884926 0.223670 0.141144
H120  H     H_    0.034682 0.218894 0.887217 0.164810
H121  H     H_    0.049731 0.327809 0.993696 0.149275
H122  H     H_    0.950270 0.327807 0.006304 0.149274
H123  H     H_    0.549817 0.827803 0.993304 0.149105
H124  H     H_    0.450190 0.827798 0.006703 0.149112
H125  H     H_    0.972954 0.589889 0.732363 0.123967
H126  H     H_    0.027124 0.589909 0.267291 0.123998
H127  H     H_    0.472768 0.089966 0.733409 0.124058
H128  H     H_    0.527080 0.089877 0.267616 0.123973
H129  H     H_    0.049906 0.390872 0.993509 0.159096
H130  H     H_    0.044266 0.378504 0.850289 0.173781
H131  H     H_    0.950096 0.390871 0.006486 0.159093
H132  H     H_    0.549985 0.890867 0.993147 0.159134
H133  H     H_    0.450017 0.890861 0.006863 0.159151
H134  H     H_    0.499893 0.390441 0.899961 0.155472
H135  H     H_    0.500106 0.390441 0.100035 0.155473
H136  H     H_    0.999896 0.890440 0.899959 0.155466
H137  H     H_    0.000103 0.890441 0.100038 0.155471
H138  H     H_    0.499614 0.327796 0.900423 0.130392
H139  H     H_    0.500382 0.327796 0.099569 0.130395
H140  H     H_    0.999617 0.827795 0.900423 0.130389
I1    I     I_    0.951171 0.293573 0.162789 -0.442174
I2    I     I_    0.048829 0.293571 0.837213 -0.442147
I3    I     I_    0.451908 0.793592 0.163038 -0.441706
I4    I     I_    0.548104 0.793584 0.836972 -0.441832
O1    O     O_R   0.050910 0.528730 0.449120 -0.618948
O2    O     O_R   0.550920 0.499990 0.000830 -0.625317
O3    O     O_R   0.949080 0.999990 0.999170 -0.625282
O4    O     O_R   0.050920 0.999990 0.000830 -0.625268
O5    O     O_R   0.500000 0.550830 0.051830 -0.624102
O6    O     O_R   0.500000 0.550830 0.948170 -0.624097
O7    O     O_R   0.000000 0.050830 0.051830 -0.624145
O8    O     O_R   0.000000 0.050830 0.948170 -0.624135
O9    O     O_R   0.050890 0.471250 0.449130 -0.628271
O10   O     O_R   0.949110 0.471250 0.550870 -0.628265
O11   O     O_R   0.550890 0.971250 0.449130 -0.628240
O12   O     O_R   0.949090 0.528730 0.550880 -0.618938
O13   O     O_R   0.449110 0.971250 0.550870 -0.628232
O14   O     O_R   0.000000 0.528730 0.591620 -0.615531
O15   O     O_R   0.000000 0.528730 0.408380 -0.615489
O16   O     O_R   0.500000 0.028730 0.591620 -0.615401
O17   O     O_R   0.500000 0.028730 0.408380 -0.615551
O18   O     O_R   0.999980 0.471250 0.591630 -0.622448
O19   O     O_R   0.000020 0.471250 0.408370 -0.622461
O20   O     O_R   0.499980 0.971250 0.591630 -0.622465
O21   O     O_R   0.500020 0.971250 0.408370 -0.622416
O22   O     O_R   0.971250 0.449060 0.028730 -0.618545
O23   O     O_R   0.550910 0.028730 0.449120 -0.618933
O24   O     O_R   0.028750 0.449060 0.971270 -0.618548
O25   O     O_R   0.471250 0.949060 0.028730 -0.618598
O26   O     O_R   0.528750 0.949060 0.971270 -0.618577
O27   O     O_R   0.971250 0.499970 0.937120 -0.626997
O28   O     O_R   0.028750 0.499970 0.062880 -0.626989
O29   O     O_R   0.471250 0.999970 0.937120 -0.626955
O30   O     O_R   0.528750 0.999970 0.062880 -0.626981
O31   O     O_R   0.028730 0.499980 0.879660 -0.610293
O32   O     O_R   0.971270 0.499980 0.120340 -0.610301
O33   O     O_R   0.528730 0.999980 0.879660 -0.610320
O34   O     O_R   0.449090 0.028730 0.550880 -0.618925
O35   O     O_R   0.471270 0.999980 0.120340 -0.610309
O36   O     O_R   0.971250 0.550880 0.028740 -0.627004
O37   O     O_R   0.028750 0.550880 0.971260 -0.627002
O38   O     O_R   0.471250 0.050880 0.028740 -0.627007
O39   O     O_R   0.528750 0.050880 0.971260 -0.627004
O40   O     O_R   0.499970 0.449010 0.051630 -0.625699
O41   O     O_R   0.500030 0.449010 0.948370 -0.625706
O42   O     O_R   0.999970 0.949010 0.051630 -0.625699
O43   O     O_R   0.000030 0.949010 0.948370 -0.625711
O44   O     O_R   0.449080 0.499920 0.102620 -0.624602
O45   O     O_R   0.550920 0.499920 0.897380 -0.624598
O46   O     O_R   0.949080 0.999920 0.102620 -0.624633
O47   O     O_R   0.050920 0.999920 0.897380 -0.624630
O48   O     O_R   0.449080 0.499990 0.999170 -0.625321
Zn1   Zn    Zn3+2 0.000000 0.538370 0.500000 0.961513
Zn2   Zn    Zn3+2 0.500010 0.499910 0.930920 0.944657
Zn3   Zn    Zn3+2 0.999990 0.999910 0.069080 0.944632
Zn4   Zn    Zn3+2 0.000010 0.999910 0.930920 0.944627
Zn5   Zn    Zn3+2 0.500000 0.038370 0.500000 0.961615
Zn6   Zn    Zn3+2 0.000000 0.461610 0.500000 0.956169
Zn7   Zn    Zn3+2 0.500000 0.961610 0.500000 0.956287
Zn8   Zn    Zn3+2 0.961610 0.499970 0.038370 0.956259
Zn9   Zn    Zn3+2 0.038390 0.499970 0.961630 0.956268
Zn10  Zn    Zn3+2 0.461610 0.999970 0.038370 0.956242
Zn11  Zn    Zn3+2 0.538390 0.999970 0.961630 0.956220
Zn12  Zn    Zn3+2 0.499990 0.499910 0.069080 0.944655

loop_
_geom_bond_atom_site_label_1
_geom_bond_atom_site_label_2
_ccdc_geom_bond_type
C172  C177  A    
C195  H56   S    
C21   C26   A    
C157  C158  A    
C62   H113  S    
C42   O28   A    
C87   H121  S    
C136  C140  A    
C210  H66   S    
C165  C169  A    
C14   H95   S    
C191  H51   S    
C82   I4    S    
C89   C99   A    
O35   Zn10  S    
C34   C96   S    
C170  C174  A    
C139  C142  A    
C20   C175  S    
C100  H134  S    
C221  C225  A    
C119  C130  A    
C47   O39   A    
C89   C94   A    
C149  C153  A    
C111  H21   S    
C52   O3    A    
C4    C199  S    
C5    C217  A    
C36   C97   S    
C5    C239  A    
C71   C82   A    
C76   C146  S    
C72   H118  S    
C80   C83   A    
C224  C228  A    
C235  H78   S    
C184  O17   A    
C105  H138  S    
C5    C200  S    
C25   C29   A    
C27   C31   A    
C21   H99   S    
C28   C32   A    
O24   Zn9   S    
C167  C171  A    
C183  O16   A    
C94   C97   A    
C132  C137  A    
C45   O37   A    
C115  C148  A    
C138  C141  A    
C17   C21   A    
C41   O27   A    
C217  H69   S    
C19   C23   A    
C174  H13   S    
C72   C86   A    
C32   C227  S    
C16   C20   A    
O39   Zn11  S    
O12   Zn1   S    
C110  C131  S    
O47   Zn4   S    
C194  H55   S    
C59   C69   A    
C46   C90   A    
O19   Zn6   S    
C121  H6    S    
C45   O36   A    
C82   C84   A    
C22   C27   A    
C203  H59   S    
C107  C110  A    
O43   Zn4   S    
C55   O8    A    
O41   Zn2   S    
C50   O48   A    
C93   H131  S    
C51   O45   A    
C140  H20   S    
C43   C208  S    
C151  H53   S    
C10   H92   S    
C56   H107  S    
C166  H45   S    
C140  C142  A    
C182  O19   A    
C220  H71   S    
C95   C97   A    
C38   C231  A    
C186  C230  A    
C137  H17   S    
C38   H126  S    
O8    Zn4   S    
C59   C63   A    
C60   C64   A    
C125  H9    S    
C114  H22   S    
O7    Zn3   S    
C81   I3    S    
O31   Zn9   S    
O1    Zn1   S    
C29   H106  S    
C221  H72   S    
C51   O2    A    
C70   H116  S    
C161  H41   S    
C71   H117  S    
C156  C208  A    
C121  C123  A    
C113  C184  S    
C119  C126  A    
C61   C65   A    
C58   C67   A    
C40   C233  A    
C68   H38   S    
O21   Zn7   S    
C47   O38   A    
C40   C77   A    
C103  C107  A    
C100  C117  A    
C113  C157  A    
C154  H30   S    
C54   O5    A    
C240  H88   S    
C138  H18   S    
C4    C216  A    
C29   C33   A    
C159  H39   S    
C160  H40   S    
C89   H123  S    
C16   H98   S    
C182  O15   A    
C120  C127  A    
C218  C223  A    
C129  C144  S    
C37   C229  A    
C185  C230  S    
C154  C186  A    
C225  C234  A    
C43   O33   A    
C134  H15   S    
C161  C188  A    
C170  H108  S    
C180  C189  A    
O2    Zn12  S    
O14   Zn1   S    
C13   C57   A    
C92   C96   A    
C112  O12   A    
C2    C187  S    
C205  H61   S    
C91   H124  S    
C176  H24   S    
C150  H1    S    
C151  C231  A    
C49   C118  S    
C83   C98   S    
C198  C202  A    
C145  C150  A    
C211  H67   S    
C198  H58   S    
C50   C212  S    
C238  H85   S    
C165  H44   S    
C168  H86   S    
C199  C203  A    
C173  H2    S    
C116  C149  A    
C193  C215  A    
C27   H104  S    
C172  H130  S    
C11   C33   A    
O29   Zn10  S    
C6    C201  S    
C134  C139  A    
O27   Zn8   S    
C9    H91   S    
O37   Zn9   S    
C204  C209  A    
C147  C151  A    
C127  C129  A    
C164  O23   A    
O36   Zn8   S    
C196  H57   S    
C200  C204  A    
C52   C214  S    
C13   C208  A    
C23   C28   A    
C55   C69   S    
C102  C117  A    
C7    C220  A    
C166  C170  A    
C1    O1    A    
O32   Zn8   S    
C152  H64   S    
C122  C131  A    
O11   Zn7   S    
C158  H33   S    
C105  C109  A    
C239  H87   S    
C18   C22   A    
C73   H120  S    
C148  C152  A    
C101  C183  S    
C106  H139  S    
C66   C86   S    
C26   C30   A    
C48   C117  S    
C93   C96   A    
C57   C101  A    
C79   C124  A    
C1    C17   S    
C35   C230  A    
C159  C185  A    
C122  C125  A    
C163  C168  A    
C209  H65   S    
C39   C232  A    
C90   C135  A    
C49   O42   A    
C205  C210  A    
O44   Zn12  S    
C108  H3    S    
C35   C79   A    
C108  C110  A    
C41   C186  S    
C191  C195  A    
O4    Zn3   S    
C134  C144  A    
C176  C180  A    
C31   C226  S    
C49   O43   A    
C4    C238  A    
C104  H137  S    
C160  C187  A    
C91   C99   A    
C196  C201  A    
C70   C85   A    
O46   Zn3   S    
C88   C98   A    
C122  H7    S    
C152  C232  A    
C106  C109  A    
C22   H100  S    
C58   C62   A    
C233  H84   S    
C74   C124  S    
C37   C74   A    
C2    C197  A    
C88   H122  S    
C15   H96   S    
C48   O40   A    
O30   Zn11  S    
C8    H90   S    
C53   O4    A    
O28   Zn9   S    
C178  H46   S    
C15   C19   A    
C227  C236  A    
C132  H12   S    
C192  C196  A    
C18   C112  S    
C3    C7    A    
C123  H8    S    
C75   C135  S    
C20   C25   A    
C193  C198  A    
O17   Zn5   S    
C76   C115  A    
C177  C185  A    
C234  C238  A    
C25   H102  S    
C204  H60   S    
C14   C18   A    
C216  C221  A    
C153  H75   S    
O5    Zn12  S    
C167  H47   S    
C6    C218  A    
C78   C83   A    
C158  C219  A    
C139  H19   S    
C12   C17   A    
C8    C12   A    
C119  H4    S    
C155  C197  A    
C232  H83   S    
C68   C113  A    
C87   C98   A    
C132  C143  A    
O48   Zn2   S    
C63   C66   A    
C133  C138  A    
C53   C215  S    
C41   O31   A    
C87   C92   A    
C45   C141  S    
C55   O7    A    
C216  H68   S    
C104  C118  A    
C60   H111  S    
O34   Zn5   S    
C23   H101  S    
C74   C111  A    
C206  H62   S    
O22   Zn8   S    
C78   I1    S    
C102  H135  S    
C79   C181  S    
C12   H94   S    
C9    C14   A    
C11   C16   A    
C222  H73   S    
C61   H112  S    
C153  C233  A    
C160  C165  A    
C95   H133  S    
C183  O20   A    
C178  C187  A    
C60   C69   A    
C181  O18   A    
C59   H110  S    
C63   H114  S    
C103  C118  A    
C54   O6    A    
C104  C108  A    
C169  H97   S    
C177  H35   S    
C171  C176  A    
C217  C222  A    
C137  C141  A    
O16   Zn5   S    
C11   H93   S    
C184  O21   A    
O38   Zn10  S    
C84   C99   S    
C235  C239  A    
C42   C197  S    
C218  H70   S    
C26   H103  S    
C133  H14   S    
C114  C147  A    
C155  H31   S    
C28   H105  S    
C179  C188  A    
C44   O35   A    
C37   H125  S    
C126  C129  A    
C180  H49   S    
C126  H10   S    
C8    C30   A    
C148  H28   S    
C39   H127  S    
C149  H29   S    
C228  C237  A    
C136  C144  A    
C191  C213  A    
C190  H50   S    
C107  H140  S    
C223  C227  A    
O15   Zn1   S    
O10   Zn6   S    
C128  C143  S    
C209  C213  A    
C24   C68   A    
C24   C219  A    
C112  O10   A    
C168  C172  A    
C181  O14   A    
C34   O24   A    
C56   C61   A    
C162  C189  A    
C64   C66   A    
C57   H37   S    
C211  C215  A    
O40   Zn12  S    
C124  C154  A    
C224  H76   S    
C33   C228  S    
C135  C155  A    
C2    C46   A    
C47   C142  S    
C100  C105  A    
C150  C229  A    
C120  C130  A    
C173  C178  A    
C7    C202  S    
C10   C15   A    
C111  C145  A    
C171  H119  S    
O25   Zn10  S    
C222  C226  A    
C237  H80   S    
C52   O46   A    
C179  H48   S    
C1    O9    A    
C53   O47   A    
C70   C81   A    
C71   C85   A    
C206  C211  A    
C42   O32   A    
C90   C182  S    
C43   O29   A    
C35   H34   S    
C190  C212  A    
C125  C128  A    
C72   C78   A    
C24   C189  S    
C77   C116  A    
C161  C166  A    
C51   C213  S    
C13   C188  S    
C30   C225  S    
C44   C219  S    
C80   I2    S    
C121  C131  A    
C192  C214  A    
C229  H81   S    
O23   Zn5   S    
C38   C75   A    
C162  H42   S    
C3    H89   S    
C101  C146  A    
C133  C143  A    
O18   Zn6   S    
C48   O41   A    
C207  H63   S    
C147  H27   S    
C116  H25   S    
C9    C31   A    
C50   O44   A    
C54   C67   S    
C210  C214  A    
C203  C207  A    
O9    Zn6   S    
C46   H36   S    
C226  C235  A    
C236  C240  A    
C223  H74   S    
O13   Zn7   S    
C44   O30   A    
C175  O13   A    
C6    C240  A    
C103  H136  S    
C192  H52   S    
C34   O22   A    
C36   O26   A    
C40   H128  S    
C75   C114  A    
C39   C76   A    
O6    Zn2   S    
C156  H32   S    
C115  H23   S    
C3    C237  A    
C201  C205  A    
C58   H109  S    
C163  H43   S    
O42   Zn3   S    
C207  C212  A    
C164  O11   A    
C159  C163  A    
C120  H5    S    
C220  C224  A    
C81   C84   A    
C145  H26   S    
C195  C200  A    
C88   C93   A    
C169  C173  A    
C62   C65   A    
C136  H16   S    
C64   H115  S    
O3    Zn4   S    
C236  H79   S    
C65   C85   S    
C231  H82   S    
C56   C67   A    
C92   H129  S    
O26   Zn11  S    
C36   O25   A    
O33   Zn11  S    
C123  C128  A    
O45   Zn2   S    
O20   Zn7   S    
C193  H54   S    
C73   C80   A    
C102  C106  A    
C127  H11   S    
C19   C164  S    
C73   C86   A    
C190  C194  A    
C162  C167  A    
C194  C199  A    
C10   C32   A    
C146  C156  A    
C91   C95   A    
C202  C206  A    
C109  C130  S    
C94   H132  S    
C234  H77   S    
C175  O34   A    
C174  C179  A    
C77   C157  S    
