data_mof_unit_25421.cif
_audit_creation_date              2012-12-10T17:06:42-0500
_audit_creation_method            fapswitch 2.2
_symmetry_space_group_name_H-M    P1
_symmetry_Int_Tables_number       1
_space_group_crystal_system       triclinic
_cell_length_a                    15.797643
_cell_length_b                    11.008296
_cell_length_c                    9.926033
_cell_angle_alpha                 110.370901
_cell_angle_beta                  97.666291
_cell_angle_gamma                 92.043891
_cell_volume                      1597.49209471

loop_
_atom_site_label
_atom_site_type_symbol
_atom_type_description
_atom_site_fract_x
_atom_site_fract_y
_atom_site_fract_z
_atom_type_partial_charge
C1    C     C_R   0.486430 0.255285 0.441539 0.754565
C2    C     C_R   0.507788 0.746272 0.558276 0.702549
C3    C     C_2   0.505638 0.045089 0.459913 0.306921
C4    C     C_2   0.471248 0.925805 0.479969 0.331899
C5    C     C_2   0.519034 0.485541 0.071193 0.507095
C6    C     C_2   0.499659 0.473602 0.912116 0.528752
C7    C     C_R   0.340234 0.499662 0.501173 0.774480
C8    C     C_R   0.659795 0.498804 0.498566 0.813329
C9    C     C_3   0.977587 0.435318 0.592067 0.554621
C10   C     C_3   0.020702 0.518884 0.390103 0.543766
C11   C     C_3   0.021449 0.354003 0.463956 -0.312239
C12   C     C_3   0.977387 0.600841 0.518166 -0.310403
C13   C     C_1   0.250475 0.491402 0.501349 -0.192665
C14   C     C_1   0.749165 0.492110 0.494938 -0.200725
C15   C     C_3   0.039499 0.556759 0.623941 -0.296468
C16   C     C_3   0.958471 0.397790 0.358675 -0.311673
C17   C     C_3   0.082406 0.476506 0.494186 0.084382
C18   C     C_3   0.915841 0.479017 0.488966 0.085101
C19   C     C_1   0.174544 0.483097 0.498345 -0.008779
C20   C     C_1   0.824432 0.485337 0.491899 -0.024256
C21   C     C_2   0.453633 0.119886 0.412041 0.192782
C22   C     C_2   0.515066 0.887506 0.582823 0.141048
Cu1   Cu    Cu3+1 0.514700 0.521810 0.644910 0.984934
Cu2   Cu    Cu3+1 0.485300 0.478190 0.355090 0.999252
H1    H     H_    0.042542 0.254818 0.441721 0.145698
H2    H     H_    0.958239 0.700895 0.537806 0.143141
H3    H     H_    0.924118 0.333778 0.250713 0.141400
H4    H     H_    0.074103 0.618929 0.732588 0.149188
N1    N     N_2   0.463210 0.445420 0.137360 -0.053457
N2    N     N_2   0.536790 0.554580 0.862640 -0.060419
O1    O     O_R   0.507840 0.332340 0.577400 -0.554751
O2    O     O_R   0.492160 0.667660 0.422600 -0.546276
O3    O     O_R   0.483020 0.295500 0.332650 -0.585608
O4    O     O_R   0.516980 0.704500 0.667350 -0.590172
O5    O     O_R   0.391490 0.518400 0.622350 -0.538386
O6    O     O_R   0.608510 0.481600 0.377650 -0.534236
O7    O     O_R   0.366660 0.481570 0.377600 -0.596026
O8    O     O_R   0.633340 0.518430 0.622400 -0.617874
O9    O     O_3   0.948434 0.393108 0.698306 -0.627772
C23   C     C_3   0.013041 0.333141 0.759069 0.044220
H5    H     H_    0.013174 0.367982 0.878269 0.170200
H6    H     H_    0.079152 0.358583 0.743230 0.132032
C24   C     C_3   0.991954 0.185371 0.699622 -0.356877
H7    H     H_    0.929546 0.161916 0.729162 0.223404
H8    H     H_    0.985858 0.147233 0.579234 0.210001
C25   C     C_3   0.061358 0.117582 0.761203 -0.924061
H9    H     H_    0.124085 0.138050 0.730826 0.254659
H10   H     H_    0.044274 0.010810 0.716179 0.255760
H11   H     H_    0.067211 0.151586 0.881638 0.261509
O10   O     O_3   0.051267 0.560554 0.284694 -0.620827
C26   C     C_3   0.981809 0.585086 0.195658 0.021241
H12   H     H_    0.939984 0.653297 0.262138 0.141269
H13   H     H_    0.943383 0.492137 0.127336 0.151397
C27   C     C_3   0.016537 0.646735 0.095367 -0.330921
H14   H     H_    0.054370 0.740511 0.161231 0.214343
H15   H     H_    0.059926 0.581756 0.030057 0.216310
C28   C     C_3   0.943928 0.672364 0.993800 -0.907643
H16   H     H_    0.902850 0.581276 0.929158 0.286198
H17   H     H_    0.970897 0.711800 0.918194 0.257967
H18   H     H_    0.904310 0.744883 0.058588 0.243552
O11   O     O_3   0.398049 0.852313 0.389435 -0.587829
C29   C     C_3   0.331273 0.864998 0.474476 0.079935
H19   H     H_    0.320640 0.968897 0.523913 0.167530
H20   H     H_    0.346683 0.823939 0.561852 0.104111
C30   C     C_3   0.246565 0.795951 0.381980 -0.309425
H21   H     H_    0.232014 0.828680 0.288106 0.233857
H22   H     H_    0.251040 0.689372 0.339942 0.212178
C31   C     C_3   0.174273 0.826497 0.474142 -0.901123
H23   H     H_    0.182345 0.779494 0.557024 0.265038
H24   H     H_    0.111339 0.790800 0.404813 0.284601
H25   H     H_    0.173671 0.933023 0.530206 0.235750
O12   O     O_3   0.592204 0.086856 0.505746 -0.595165
C32   C     C_3   0.638637 0.008148 0.400565 0.100234
H26   H     H_    0.621476 0.023535 0.295483 0.129822
H27   H     H_    0.625154 0.902914 0.381657 0.126288
C33   C     C_3   0.734919 0.042222 0.452511 -0.374967
H28   H     H_    0.752737 0.027926 0.557695 0.217423
H29   H     H_    0.770367 0.975575 0.371749 0.170825
C34   C     C_3   0.761916 0.181857 0.470208 -0.728602
H30   H     H_    0.742329 0.198617 0.366802 0.225674
H31   H     H_    0.832640 0.200160 0.499069 0.245381
H32   H     H_    0.732358 0.251014 0.558331 0.280288
O13   O     O_3   0.565871 0.984173 0.700118 -0.591994
C35   C     C_3   0.628017 0.937633 0.780001 0.109122
H33   H     H_    0.662915 0.861739 0.707344 0.116992
H34   H     H_    0.596555 0.901703 0.853997 0.187855
C36   C     C_3   0.693023 0.050323 0.874567 -0.827045
H35   H     H_    0.722840 0.095199 0.806024 0.261185
H36   H     H_    0.660848 0.125295 0.952944 0.229586
H37   H     H_    0.744065 0.014928 0.936127 0.200979
O14   O     O_3   0.370344 0.069045 0.341906 -0.572745
C37   C     C_3   0.313396 0.166413 0.348901 0.081486
H38   H     H_    0.326751 0.217347 0.274061 0.192130
H39   H     H_    0.317809 0.236785 0.462210 0.126054
C38   C     C_3   0.221657 0.104536 0.300299 -0.819953
H40   H     H_    0.177602 0.179661 0.294790 0.209098
H41   H     H_    0.215404 0.027173 0.191045 0.257722
H42   H     H_    0.202942 0.062192 0.379443 0.239212
O15   O     O_3   0.441341 0.374311 0.815280 -0.572995
C39   C     C_3   0.460867 0.250649 0.819519 0.115656
H43   H     H_    0.494748 0.250133 0.924728 0.109614
H44   H     H_    0.503023 0.207167 0.738411 0.205009
C40   C     C_3   0.378054 0.163318 0.782038 -0.753335
H45   H     H_    0.339304 0.169584 0.683360 0.224799
H46   H     H_    0.392983 0.061710 0.764306 0.192650
H47   H     H_    0.339579 0.193997 0.871837 0.276087
O16   O     O_3   0.600861 0.534024 0.144658 -0.560940
C41   C     C_3   0.658369 0.438947 0.091183 0.069934
H48   H     H_    0.652407 0.401998 0.970291 0.095426
H49   H     H_    0.646023 0.354662 0.125464 0.147216
C42   C     C_3   0.750584 0.496658 0.152803 -0.792826
H50   H     H_    0.754721 0.568939 0.264390 0.260498
H51   H     H_    0.792102 0.417926 0.154902 0.194263
H52   H     H_    0.775553 0.546292 0.084584 0.216641
O17   O     O_3   0.574753 0.666840 0.963875 -0.509692
C43   C     C_3   0.656769 0.686682 0.931133 0.257898
H53   H     H_    0.652589 0.713842 0.833922 0.147893
H54   H     H_    0.691895 0.597940 0.911027 0.135703
C44   C     C_3   0.707703 0.797136 0.058143 -0.926329
H55   H     H_    0.718062 0.769572 0.156157 0.267365
H56   H     H_    0.770520 0.819573 0.030104 0.201144
H57   H     H_    0.672483 0.885720 0.082296 0.245642
O18   O     O_3   0.382359 0.410485 0.064339 -0.519231
C45   C     C_3   0.333033 0.518482 0.106252 0.176873
H58   H     H_    0.370003 0.609478 0.184361 0.191266
H59   H     H_    0.279914 0.493149 0.157110 0.160723
C46   C     C_3   0.292224 0.544974 0.972390 -0.824009
H60   H     H_    0.257491 0.454510 0.890166 0.256609
H61   H     H_    0.245937 0.619703 0.003872 0.192980
H62   H     H_    0.341986 0.581896 0.923833 0.269514

loop_
_geom_bond_atom_site_label_1
_geom_bond_atom_site_label_2
_ccdc_geom_bond_type
C36   H35   S    
C1    C21   S    
C32   H26   S    
C42   H50   S    
C35   C36   S    
C1    O1    A    
C46   H61   S    
C15   H4    S    
C38   H42   S    
C1    O3    A    
O18   C45   S    
C43   H53   S    
C25   H11   S    
Cu2   O6    S    
C35   H34   S    
C5    O16   S    
C5    C6    S    
C28   H17   S    
C11   H1    S    
C10   C17   S    
O17   C43   S    
C9    O9    S    
C41   H48   S    
C2    O2    A    
C8    O6    A    
Cu2   N1    S    
C37   H38   S    
C29   H20   S    
C27   H14   S    
C23   C24   S    
C38   H40   S    
C41   H49   S    
C31   H23   S    
C30   H22   S    
C2    C22   S    
O16   C41   S    
C33   C34   S    
C40   H47   S    
Cu1   O4    S    
C16   H3    S    
C23   H6    S    
C32   H27   S    
C8    O8    A    
C39   H44   S    
O10   C26   S    
C5    N1    D    
N2    O17   S    
C44   H56   S    
C27   H15   S    
C13   C19   T    
C26   H12   S    
Cu1   N2    S    
C14   C20   T    
C33   H28   S    
C40   H46   S    
O9    C23   S    
C34   H31   S    
C28   H18   S    
C4    O11   S    
C39   C40   S    
C12   H2    S    
C26   H13   S    
Cu1   O1    S    
C24   H7    S    
Cu2   O2    S    
C29   H19   S    
C4    C22   D    
C11   C16   S    
O13   C35   S    
C12   C15   S    
Cu1   Cu2   S    
C30   C31   S    
C37   H39   S    
Cu2   O7    S    
C7    O7    A    
C42   H51   S    
C41   C42   S    
C35   H33   S    
C9    C11   S    
C10   C12   S    
C45   C46   S    
C31   H24   S    
C23   H5    S    
C6    N2    D    
Cu1   O5    S    
C36   H36   S    
C32   C33   S    
C3    C21   D    
C46   H60   S    
C10   O10   S    
O14   C37   S    
C45   H59   S    
C21   O14   S    
C44   H57   S    
C15   C17   S    
C25   H9    S    
C11   C17   S    
C8    C14   S    
C29   C30   S    
C7    O5    A    
C33   H29   S    
O12   C32   S    
C34   H32   S    
C44   H55   S    
C38   H41   S    
Cu1   O8    S    
Cu2   O3    S    
C43   C44   S    
C26   C27   S    
C22   O13   S    
C3    O12   S    
C9    C15   S    
C46   H62   S    
C24   H8    S    
C10   C16   S    
O15   C39   S    
C6    O15   S    
C2    O4    A    
C28   H16   S    
C31   H25   S    
N1    O18   S    
C39   H43   S    
C17   C19   S    
C43   H54   S    
C42   H52   S    
C18   C20   S    
C37   C38   S    
O11   C29   S    
C24   C25   S    
C34   H30   S    
C25   H10   S    
C9    C18   S    
C7    C13   S    
C16   C18   S    
C30   H21   S    
C36   H37   S    
C12   C18   S    
C40   H45   S    
C3    C4    S    
C45   H58   S    
C27   C28   S    
