data_mof_unit_7129.cif
_audit_creation_date              2013-03-05T16:09:50-0500
_audit_creation_method            fapswitch 2.2
_symmetry_space_group_name_H-M    P1
_symmetry_Int_Tables_number       1
_space_group_crystal_system       triclinic
_cell_length_a                    8.573668
_cell_length_b                    15.58185
_cell_length_c                    26.909532
_cell_angle_alpha                 101.132021
_cell_angle_beta                  92.10358
_cell_angle_gamma                 80.616807
_cell_volume                      3480.05639552

loop_
_atom_site_label
_atom_site_type_symbol
_atom_site_description
_atom_site_fract_x
_atom_site_fract_y
_atom_site_fract_z
_atom_type_partial_charge
P1    P     P_3+3 0.071950 0.575820 0.612140 0.527652
O1    O     O_2   0.906480 0.548660 0.619050 -0.261327
O2    O     O_3   0.138490 0.548590 0.558870 -0.390084
O3    O     O_3   0.686300 0.382310 0.585700 -0.389369
O4    O     O_2   0.814861 0.446438 0.672272 -0.310115
O5    O     O_3   0.008134 0.691316 0.625478 -0.593708
O6    O     O_3   0.679137 0.312339 0.675644 -0.474159
H1    H     H_    0.745833 0.228074 0.607656 0.129112
C1    C     C_3   0.650241 0.159840 0.658539 -1.017531
H2    H     H_    0.624674 0.104486 0.628235 0.216152
H3    H     H_    0.766511 0.140237 0.675695 0.273317
P2    P     P_3+3 0.664370 0.290050 0.457240 0.534820
P3    P     P_3+3 0.152570 0.221721 0.556755 0.467652
O7    O     O_2   0.844040 0.276390 0.471470 -0.326844
O8    O     O_3   0.101510 0.335500 0.560330 -0.353892
O9    O     O_2   0.032328 0.179203 0.520098 -0.371846
O10   O     O_3   0.676279 0.251977 0.389357 -0.575935
O11   O     O_3   0.102615 0.201352 0.615317 -0.512044
C2    C     C_3   0.227729 0.216928 0.649256 0.267774
H4    H     H_    0.256536 0.284699 0.651149 0.073191
H5    H     H_    0.333645 0.167547 0.636685 0.011348
C3    C     C_3   0.184116 0.208203 0.702709 0.179042
C4    C     C_3   0.203494 0.258219 0.398035 0.217416
H6    H     H_    0.323574 0.271016 0.410846 0.030530
H7    H     H_    0.126329 0.270139 0.431766 0.155548
C5    C     C_3   0.208842 0.162563 0.368044 0.516510
Ba1   Ba    Ba6+2 0.860050 0.456430 0.522530 1.645017
C6    C     C_3   0.015568 0.726951 0.581710 0.824913
H8    H     H_    0.136100 0.717070 0.569941 0.090070
C7    C     C_3   0.953561 0.825955 0.590366 -1.163038
H9    H     H_    0.823495 0.837642 0.586192 0.281252
H10   H     H_    0.002936 0.856058 0.561509 0.266051
H11   H     H_    0.988834 0.859503 0.628328 0.258070
C8    C     C_3   0.668856 0.314334 0.356072 0.935056
C9    C     C_3   0.519894 0.312474 0.321265 -0.526688
H12   H     H_    0.469627 0.380944 0.318173 0.226372
H13   H     H_    0.430844 0.287493 0.339948 0.191949
P4    P     P_3+3 0.117760 0.424110 0.387850 0.537005
O12   O     O_2   0.283210 0.451310 0.380920 -0.387970
O13   O     O_3   0.051220 0.451340 0.441120 -0.338637
O14   O     O_3   0.503410 0.617620 0.414290 -0.309791
O15   O     O_3   0.143016 0.312104 0.364310 -0.560377
P5    P     P_3+3 0.037077 0.775886 0.433830 0.443049
O16   O     O_3   0.617150 0.609960 0.527100 -0.279311
O17   O     O_3   0.088210 0.664420 0.439670 -0.344696
O18   O     O_2   0.152063 0.821203 0.471974 -0.384277
O19   O     O_3   0.117672 0.780340 0.375139 -0.513724
Ba2   Ba    Ba6+2 0.329780 0.543490 0.477460 1.621166
P6    P     P_3+3 0.663075 0.410149 0.651470 0.543120
C10   C     C_3   0.650703 0.242718 0.636528 0.533058
H14   H     H_    0.533916 0.259376 0.618479 -0.031930
H15   H     H_    0.559731 0.172658 0.688619 0.263001
O20   O     O_3   0.572560 0.389960 0.472890 -0.355097
C11   C     C_3   0.510289 0.763948 0.644705 0.830376
C12   C     C_3   0.549575 0.835525 0.690449 -0.457851
H16   H     H_    0.456619 0.894253 0.693573 0.195013
H17   H     H_    0.549405 0.809695 0.726214 0.212425
P7    P     P_3+3 0.528502 0.726909 0.537390 0.507301
O21   O     O_2   0.345660 0.723580 0.528500 -0.409767
O22   O     O_3   0.552044 0.789625 0.599628 -0.627391
H18   H     H_    0.289898 0.212783 0.727585 0.134707
C13   C     C_3   0.022964 0.750995 0.333012 0.785255
H19   H     H_    0.902081 0.751386 0.345820 -0.184497
C14   C     C_3   0.006446 0.813919 0.294579 -0.479425
H20   H     H_    0.976164 0.781054 0.256026 0.170157
H21   H     H_    0.907552 0.866184 0.304853 0.181636
P8    P     P_3+3 0.532323 0.607299 0.348986 0.489299
C15   C     C_3   0.542843 0.773862 0.355335 0.286159
H22   H     H_    0.663685 0.745484 0.365396 0.016363
O23   O     O_2   0.422406 0.542710 0.322576 -0.406245
O24   O     O_3   0.453355 0.708923 0.332043 -0.524016
H23   H     H_    0.482061 0.808702 0.391057 0.092948
C16   C     C_3   0.559275 0.842040 0.321527 -0.096039
H24   H     H_    0.443914 0.875408 0.312042 0.199769
C17   C     C_R   0.026600 0.399941 0.170716 0.528064
O25   O     O_2   0.064721 0.332800 0.188258 -0.583537
N1    N     N_R   0.943855 0.475086 0.200479 -0.162299
C18   C     C_R   0.903027 0.551357 0.180163 0.484173
C19   C     C_2   0.756478 0.518003 0.270443 -0.164066
C20   C     C_3   0.740521 0.569952 0.323961 0.168804
C21   C     C_1   0.995026 0.481974 0.342279 0.364443
C22   C     C_2   0.026317 0.456419 0.292600 -0.205237
C23   C     C_2   0.901873 0.477192 0.253295 0.155789
C24   C     C_R   0.019993 0.477025 0.098908 -0.066462
C25   C     C_R   0.065883 0.400104 0.119655 -0.067707
C26   C     C_R   0.149241 0.325063 0.088743 -0.096125
C27   C     C_R   0.938483 0.552921 0.129732 -0.026490
C28   C     C_2   0.876624 0.546074 0.359247 -0.441674
H25   H     H_    0.146303 0.428666 0.280362 0.151090
H26   H     H_    0.185972 0.264582 0.103183 0.160258
C29   C     C_2   0.345057 0.486310 0.640092 -0.423955
C30   C     C_R   0.183251 0.405665 0.965969 0.040033
C31   C     C_R   0.036252 0.557719 0.975692 0.043234
C32   C     C_R   0.128043 0.483019 0.945525 0.086170
C33   C     C_R   0.277567 0.334168 0.934461 -0.201369
C34   C     C_R   0.315039 0.338321 0.885001 -0.074718
C35   C     C_R   0.260045 0.413751 0.864312 -0.054621
C36   C     C_R   0.165324 0.485999 0.894399 -0.064227
C37   C     C_R   0.108385 0.561521 0.873446 -0.052442
C38   C     C_R   0.148215 0.564439 0.823284 0.536259
N2    N     N_R   0.242637 0.493434 0.794071 -0.159944
C39   C     C_R   0.298412 0.418456 0.814187 0.575639
C40   C     C_2   0.439573 0.484334 0.728764 -0.217201
C41   C     C_3   0.484441 0.491840 0.675901 0.250446
C42   C     C_1   0.202562 0.523243 0.657309 0.238285
C43   C     C_2   0.161310 0.522027 0.704336 -0.162921
C44   C     C_2   0.285618 0.498671 0.742754 0.137769
O26   O     O_2   0.380714 0.355392 0.788346 -0.593397
C45   C     C_R   0.143274 0.402579 0.016898 0.041835
C46   C     C_R   0.056333 0.478640 0.047493 0.081503
C47   C     C_R   0.005708 0.556743 0.027360 0.044184
C48   C     C_R   0.187251 0.326138 0.038738 -0.198765
H27   H     H_    0.532567 0.471664 0.756143 0.178079
H28   H     H_    0.388316 0.281572 0.862871 0.162233
H29   H     H_    0.326769 0.273884 0.947063 0.124228
H30   H     H_    0.250210 0.265056 0.017979 0.123920
O27   O     O_2   0.837329 0.619382 0.206456 -0.653812
C49   C     C_R   0.895146 0.630275 0.109983 -0.111958
H31   H     H_    0.662862 0.533317 0.243734 0.153315
H32   H     H_    0.835198 0.690484 0.133173 0.154103
C50   C     C_R   0.976941 0.631161 0.952800 -0.207456
C51   C     C_R   0.012761 0.632992 0.903074 -0.086386
O28   O     O_2   0.100976 0.631056 0.805969 -0.598676
C52   C     C_R   0.927820 0.632310 0.060172 -0.206914
H33   H     H_    0.899629 0.688505 0.971968 0.124621
H34   H     H_    0.964667 0.691376 0.887857 0.164640
H35   H     H_    0.037587 0.535534 0.714833 0.197817
H36   H     H_    0.892767 0.695408 0.049029 0.123774
H37   H     H_    0.876569 0.582005 0.397809 0.179488
H38   H     H_    0.361103 0.449352 0.601544 0.152476
C53   C     C_R   0.826049 0.830831 0.454833 0.141097
C54   C     C_R   0.775931 0.924704 0.468930 -0.038296
C55   C     C_R   0.653262 0.112640 0.485077 -0.040952
C56   C     C_R   0.801047 0.076822 0.463015 -0.053872
C57   C     C_R   0.863886 0.986207 0.456785 -0.172963
C58   C     C_R   0.585720 0.205613 0.489593 0.232045
H39   H     H_    0.870929 0.119092 0.450878 0.232761
H40   H     H_    0.979465 0.964185 0.440113 0.183288
C59   C     C_R   0.440197 0.234333 0.514476 -0.480981
C60   C     C_R   0.590770 0.804836 0.496908 0.278889
C61   C     C_R   0.539137 0.898433 0.509296 -0.034708
C62   C     C_R   0.627822 0.958384 0.493444 0.029653
C63   C     C_R   0.399340 0.934008 0.536531 -0.098077
C64   C     C_R   0.341050 0.024617 0.544768 -0.199970
C65   C     C_R   0.422094 0.084940 0.527649 0.040005
C66   C     C_R   0.569376 0.052410 0.503006 0.079048
C67   C     C_R   0.357043 0.176188 0.532836 0.176849
C68   C     C_R   0.718369 0.775126 0.463047 -0.449906
H41   H     H_    0.229472 0.046337 0.564199 0.173618
H42   H     H_    0.329101 0.891833 0.550108 0.169918
H43   H     H_    0.386000 0.302835 0.517199 0.160239
H44   H     H_    0.745984 0.705246 0.448025 0.171932
C69   C     C_3   0.276438 0.151209 0.313123 -0.266809
C70   C     C_3   0.228454 0.080006 0.269862 -0.858307
H45   H     H_    0.246671 0.099124 0.233041 0.244877
H46   H     H_    0.304679 0.015153 0.268175 0.227517
H47   H     H_    0.102110 0.073376 0.270930 0.308238
H48   H     H_    0.242893 0.212395 0.297634 0.246490
H49   H     H_    0.405814 0.141549 0.316600 0.184110
Br1   Br    Br    0.336926 0.087246 0.407087 -0.707654
Br2   Br    Br    0.999887 0.131842 0.366996 -0.561014
Br3   Br    Br    0.909852 0.667060 0.526135 -0.399083
Br4   Br    Br    0.851692 0.290772 0.312335 -0.503995
Br5   Br    Br    0.677293 0.431441 0.390292 -0.416744
C71   C     C_3   0.535847 0.264385 0.264947 -0.279232
C72   C     C_3   0.617422 0.167374 0.255817 -0.774043
H50   H     H_    0.717294 0.157763 0.229116 0.267276
H51   H     H_    0.664984 0.147457 0.291413 0.296102
H52   H     H_    0.533987 0.122622 0.238336 0.223749
H53   H     H_    0.415572 0.267269 0.247821 0.202435
H54   H     H_    0.599199 0.302542 0.243629 0.228792
C73   C     C_3   0.334880 0.755302 0.646635 -0.432516
C74   C     C_3   0.275282 0.753576 0.699897 -0.922576
H55   H     H_    0.351655 0.702393 0.717196 0.274314
H56   H     H_    0.270666 0.819205 0.725186 0.252339
H57   H     H_    0.153787 0.738411 0.698490 0.303053
H58   H     H_    0.263504 0.811382 0.632180 0.189223
H59   H     H_    0.320669 0.691435 0.622083 0.201149
Br6   Br    Br    0.631743 0.654446 0.653750 -0.517561
C75   C     C_3   0.707627 0.867603 0.687114 -0.216711
C76   C     C_3   0.747922 0.926490 0.736553 -0.919068
H60   H     H_    0.653905 0.985091 0.746172 0.266828
H61   H     H_    0.760893 0.888720 0.767909 0.275226
H62   H     H_    0.861415 0.949945 0.732277 0.256136
H63   H     H_    0.803291 0.809899 0.678739 0.266472
H64   H     H_    0.699129 0.907671 0.656952 0.222676
C77   C     C_3   0.084789 0.654741 0.307479 -0.313185
C78   C     C_3   0.185706 0.634675 0.259311 -0.815651
H65   H     H_    0.121416 0.657412 0.226675 0.240422
H66   H     H_    0.293531 0.663517 0.265114 0.290429
H67   H     H_    0.220604 0.561915 0.247846 0.240390
H68   H     H_    0.144946 0.618726 0.336257 0.236875
H69   H     H_    0.978094 0.627456 0.294376 0.156630
C79   C     C_3   0.146572 0.859977 0.292058 -0.337434
C80   C     C_3   0.163483 0.925745 0.341110 -0.651200
H70   H     H_    0.047367 0.953684 0.358766 0.273633
H71   H     H_    0.242937 0.897170 0.369083 0.275154
H72   H     H_    0.218575 0.978768 0.332537 0.274146
H73   H     H_    0.252267 0.809588 0.284303 0.241263
H74   H     H_    0.128331 0.896115 0.259973 0.189528
C81   C     C_3   0.638665 0.916739 0.353515 -0.407367
C82   C     C_3   0.647052 0.995228 0.327727 -0.809508
H75   H     H_    0.751080 0.985169 0.303028 0.246174
H76   H     H_    0.541718 0.006562 0.303899 0.260078
H77   H     H_    0.653962 0.055547 0.356882 0.301495
H78   H     H_    0.568033 0.942568 0.388293 0.244760
H79   H     H_    0.756404 0.891057 0.366954 0.192829
C83   C     C_3   0.643713 0.799228 0.270747 -0.240128
C84   C     C_3   0.534814 0.763117 0.228478 -0.853517
H80   H     H_    0.498876 0.701769 0.235613 0.275018
H81   H     H_    0.430646 0.813529 0.223924 0.225615
H82   H     H_    0.599615 0.745890 0.192048 0.262096
H83   H     H_    0.697199 0.849078 0.255790 0.197639
H84   H     H_    0.736817 0.744180 0.276658 0.218828
Br7   Br    Br    0.024731 0.307023 0.731221 -0.478483
C85   C     C_3   0.123952 0.120933 0.704056 -0.251124
C86   C     C_3   0.254925 0.041143 0.695215 -1.055984
H85   H     H_    0.304519 0.030347 0.656603 0.276060
H86   H     H_    0.350710 0.050507 0.723724 0.275338
H87   H     H_    0.204905 0.981313 0.698997 0.269137
H88   H     H_    0.071737 0.125039 0.741817 0.213109
H89   H     H_    0.030447 0.109653 0.675151 0.228316

loop_
_geom_bond_atom_site_label_1
_geom_bond_atom_site_label_2
_geom_bond_distance
_ccdc_geom_bond_type
C73   H58   1.108503 S    
Ba1   Ba2   4.722888 S    
C57   H40   1.078563 S    
C19   C23   1.357091 D    
C12   H16   1.103196 S    
N2    C44   1.462898 S    
C83   H83   1.107284 S    
C3    C85   1.538072 S    
C16   H24   1.085699 S    
C29   C42   1.322029 D    
C33   C34   1.396518 A    
C24   C27   1.403290 A    
C29   C41   1.510295 S    
O4    P6    1.546232 D    
C60   C68   1.409435 A    
P6    C41   1.874354 S    
C65   C66   1.419210 A    
C6    Br3   1.888459 S    
O14   P8    1.756483 S    
C29   H38   1.086525 S    
C11   O22   1.423234 S    
N1    C18   1.391044 Am   
C73   C74   1.545713 S    
C86   H87   1.110676 S    
C59   C67   1.408030 A    
C31   C32   1.420047 A    
C4    O15   1.383898 S    
C82   H76   1.098678 S    
P3    O11   1.747751 S    
C78   H67   1.109579 S    
C6    H8    1.070148 S    
C9    H13   1.089893 S    
C31   C50   1.416709 A    
C8    C9    1.556611 S    
C8    Br5   1.890026 S    
C61   C63   1.404248 A    
C25   C26   1.401961 A    
P4    O12   1.572438 D    
C30   C45   1.436433 A    
C76   H62   1.110886 S    
C68   H44   1.076148 S    
C43   C44   1.508316 S    
C32   C36   1.434880 A    
P7    O22   1.791155 S    
C63   C64   1.396229 A    
O2    Ba2   2.765742 S    
C84   H82   1.109722 S    
C11   Br6   1.901912 S    
C78   H66   1.085708 S    
P1    O1    1.572216 D    
C81   C82   1.530534 S    
C4    C5    1.546269 S    
C69   H48   1.104815 S    
C17   N1    1.387258 Am   
C12   C75   1.530106 S    
C62   C66   1.445105 A    
C85   H88   1.111721 S    
C13   C14   1.544839 S    
C9    C71   1.555693 S    
C46   C47   1.424090 A    
Ba1   O16   2.890643 S    
C17   C25   1.427236 A    
C63   H42   1.079761 S    
O5    C6    1.403240 S    
C2    H4    1.114484 S    
C33   H29   1.076376 S    
C15   H22   1.103857 S    
C82   H77   1.110162 S    
C19   H31   1.085885 S    
P2    O10   1.809610 S    
C55   C58   1.453421 A    
C4    H6    1.110346 S    
P5    C53   1.925898 S    
C39   O26   1.221940 D    
O1    Ba1   2.763891 S    
O7    Ba1   2.898284 S    
C1    H2    1.110818 S    
C71   C72   1.535899 S    
C70   H46   1.104289 S    
P2    O20   1.610008 S    
C52   H36   1.075992 S    
C80   H72   1.080642 S    
C51   H34   1.083723 S    
C74   H56   1.109253 S    
C79   C80   1.525000 S    
P4    O13   1.518744 S    
C74   H55   1.110052 S    
C3    Br7   1.939505 S    
C77   H69   1.089559 S    
C72   H51   1.106773 S    
C34   H28   1.083607 S    
C72   H50   1.110717 S    
C1    H15   1.109237 S    
C28   H37   1.079761 S    
C56   H39   1.060919 S    
C58   C59   1.403158 A    
C65   C67   1.422193 A    
C35   C36   1.407321 A    
C49   H32   1.083524 S    
C76   H61   1.110959 S    
C54   C62   1.426035 A    
Ba2   O20   2.890041 S    
C79   H74   1.111794 S    
C2    H5    1.106931 S    
C82   H75   1.104305 S    
P8    C20   1.891202 S    
P2    Ba1   3.473552 S    
P1    O5    1.763758 S    
N2    C39   1.389113 Am   
C11   C73   1.535273 S    
C18   O27   1.219170 D    
C24   C25   1.411225 A    
O6    P6    1.752928 S    
C70   H47   1.106707 S    
C8    Br4   1.938617 S    
C26   H26   1.083472 S    
C45   C48   1.419108 A    
O16   P7    1.828670 S    
O11   C2    1.403936 S    
C24   C46   1.435128 A    
C15   C16   1.551599 S    
C76   H60   1.111116 S    
C16   C81   1.545141 S    
C43   H35   1.084225 S    
C30   C33   1.416238 A    
C21   C22   1.342991 D    
C19   C20   1.508702 S    
C14   C79   1.506291 S    
C78   H65   1.105244 S    
P1    O2    1.518742 S    
C9    H12   1.101188 S    
C14   H21   1.078740 S    
C69   H49   1.097805 S    
C26   C48   1.399935 A    
C17   O25   1.221493 D    
C50   H33   1.076014 S    
C64   H41   1.079756 S    
C38   O28   1.222467 D    
P5    O17   1.756579 S    
O8    Ba1   2.860866 S    
C79   H73   1.095354 S    
P3    O8    1.740168 S    
Ba1   O13   2.765141 S    
C15   H23   1.110563 S    
C34   C35   1.402284 A    
C2    C3    1.535845 S    
C13   H19   1.102883 S    
C30   C32   1.424913 A    
C84   H80   1.103107 S    
C81   H79   1.098759 S    
C53   C68   1.415949 A    
C10   H14   1.110901 S    
C49   C52   1.386730 A    
C85   C86   1.521003 S    
C5    Br1   1.912643 S    
C1    H3    1.105231 S    
C83   C84   1.525871 S    
C50   C51   1.390475 A    
C75   H64   1.109236 S    
C71   H54   1.112418 S    
C27   C49   1.400037 A    
C37   C51   1.398375 A    
C73   H59   1.105187 S    
C16   C83   1.549025 S    
P2    O7    1.564007 D    
C36   C37   1.410564 A    
C12   H17   1.112718 S    
P4    C21   1.856560 S    
C55   C56   1.402172 A    
C15   O24   1.406527 S    
P7    O21   1.584790 D    
O10   C8    1.435990 S    
P3    C67   1.868658 S    
C53   C54   1.435568 A    
C18   C27   1.407162 A    
H1    C10   1.112796 S    
C48   H30   1.076384 S    
O3    Ba1   2.819137 S    
C75   C76   1.526236 S    
Ba2   O21   2.898611 S    
O17   Ba2   2.861312 S    
P7    C60   1.926379 S    
C71   H53   1.111658 S    
O13   Ba2   3.020996 S    
C11   C12   1.560283 S    
C83   H84   1.103776 S    
C7    H11   1.109460 S    
C40   H27   1.085894 S    
C47   C52   1.413297 A    
P4    Ba2   3.409983 S    
C1    C10   1.521746 S    
C35   C39   1.418296 A    
O6    C10   1.403816 S    
C64   C65   1.407906 A    
C74   H57   1.102831 S    
Ba1   O20   2.998167 S    
P4    O15   1.718723 S    
C56   C57   1.406833 A    
C86   H86   1.110783 S    
C42   C43   1.330837 D    
C5    Br2   1.926181 S    
C37   C38   1.415373 A    
O3    P6    1.749693 S    
P8    O23   1.545953 D    
C14   H20   1.106504 S    
O19   C13   1.416633 S    
O2    Ba1   3.020201 S    
C86   H85   1.109205 S    
C6    C7    1.523044 S    
C20   C28   1.521589 S    
C61   C62   1.429000 A    
C3    H18   1.110779 S    
C7    H10   1.109839 S    
C7    H9    1.105359 S    
C22   H25   1.085610 S    
C54   C57   1.403042 A    
C60   C61   1.430612 A    
C59   H43   1.082207 S    
C38   N2    1.384290 Am   
C84   H81   1.109086 S    
O14   Ba2   2.818600 S    
C77   H68   1.106671 S    
C81   H78   1.105092 S    
P8    O24   1.755070 S    
C4    H7    1.111303 S    
P5    O18   1.548209 D    
C85   H89   1.107236 S    
C21   C28   1.328117 D    
C75   H63   1.107603 S    
C80   H70   1.104487 S    
C70   H45   1.111488 S    
C77   C78   1.537553 S    
C72   H52   1.109299 S    
C22   C23   1.516108 S    
P2    C58   1.928307 S    
P3    O9    1.539619 D    
C40   C41   1.518005 S    
P1    Ba1   3.409448 S    
N1    C23   1.471818 S    
C13   C77   1.540153 S    
C5    C69   1.574738 S    
C40   C44   1.357115 D    
C55   C66   1.432211 A    
C69   C70   1.539606 S    
C45   C46   1.420662 A    
P5    O19   1.764845 S    
C31   C47   1.427629 A    
O16   Ba2   2.997281 S    
P1    C42   1.840657 S    
O12   Ba2   2.764293 S    
C80   H71   1.105336 S    
