data_mof_unit_34413.cif
_audit_creation_date              2012-12-11T15:53:33-0500
_audit_creation_method            fapswitch 2.2
_symmetry_space_group_name_H-M    P1
_symmetry_Int_Tables_number       1
_space_group_crystal_system       triclinic
_cell_length_a                    6.927616
_cell_length_b                    14.557623
_cell_length_c                    15.972085
_cell_angle_alpha                 90.426923
_cell_angle_beta                  90.241268
_cell_angle_gamma                 90.164036
_cell_volume                      1610.7129918

loop_
_atom_site_label
_atom_site_type_symbol
_atom_type_description
_atom_site_fract_x
_atom_site_fract_y
_atom_site_fract_z
_atom_type_partial_charge
O1    O     O_R   0.361600 0.167310 0.164620 -0.534880
O2    O     O_R   0.638400 0.832690 0.835380 -0.534880
O3    O     O_R   0.691080 0.157570 0.338750 -0.546979
O4    O     O_R   0.308920 0.842430 0.661250 -0.546979
O5    O     O_R   0.861410 0.336420 0.339360 -0.540577
O6    O     O_R   0.138590 0.663580 0.660640 -0.540577
C1    C     C_R   0.522092 0.135184 0.367478 0.679087
C2    C     C_R   0.477908 0.864816 0.632522 0.679087
O7    O     O_R   0.691320 0.156280 0.165240 -0.530940
O8    O     O_R   0.308680 0.843720 0.834760 -0.530940
O9    O     O_R   0.861640 0.335130 0.164600 -0.538430
O10   O     O_R   0.138360 0.664870 0.835400 -0.538430
C3    C     C_R   0.521479 0.135253 0.135057 0.705282
C4    C     C_R   0.478521 0.864747 0.864942 0.705282
O11   O     O_R   0.361370 0.168600 0.339370 -0.542783
O12   O     O_R   0.638630 0.831400 0.660630 -0.542783
O13   O     O_3   0.527990 0.310540 0.251980 -0.374272
O14   O     O_3   0.472010 0.689460 0.748020 -0.374272
V1    V     V_3+5 0.802830 0.240980 0.251990 1.432033
V2    V     V_3+5 0.197170 0.759020 0.748010 1.432033
O15   O     O_R   0.191360 0.346160 0.165220 -0.544153
O16   O     O_R   0.808640 0.653840 0.834780 -0.544153
C5    C     C_R   0.022210 0.368337 0.136119 0.722165
C6    C     C_R   0.977790 0.631663 0.863880 0.722166
O17   O     O_R   0.191130 0.347440 0.338740 -0.544931
O18   O     O_R   0.808870 0.652560 0.661260 -0.544930
C7    C     C_R   0.022611 0.369706 0.367679 0.668469
C8    C     C_R   0.977389 0.630294 0.632321 0.668469
V3    V     V_3+5 0.302840 0.262750 0.251990 1.422270
V4    V     V_3+5 0.697160 0.737250 0.748010 1.422270
O19   O     O_3   0.027820 0.193180 0.251990 -0.364563
O20   O     O_3   0.972180 0.806820 0.748010 -0.364563
C9    C     C_3   0.923172 0.419831 0.524206 -0.140329
C10   C     C_3   0.076828 0.580169 0.475794 -0.140329
C11   C     C_3   0.096866 0.468828 0.566928 -0.139822
C12   C     C_3   0.903134 0.531172 0.433072 -0.139822
H1    H     H_    0.176591 0.443411 0.622519 0.103406
H2    H     H_    0.823409 0.556589 0.377481 0.103406
H3    H     H_    0.859870 0.353276 0.543812 0.101952
H4    H     H_    0.140130 0.646724 0.456188 0.101952
C13   C     C_3   0.987608 0.560632 0.562062 -0.005363
C14   C     C_3   0.012392 0.439368 0.437937 -0.005363
C15   C     C_3   0.813769 0.512414 0.520108 -0.116030
C16   C     C_3   0.186231 0.487586 0.479892 -0.116030
H5    H     H_    0.660117 0.522848 0.537054 0.106577
H6    H     H_    0.339883 0.477152 0.462946 0.106577
C17   C     C_R   0.820458 0.525342 0.967353 -0.151682
C18   C     C_R   0.179542 0.474658 0.032647 -0.151682
H7    H     H_    0.679583 0.543843 0.943319 0.114969
H8    H     H_    0.320417 0.456157 0.056681 0.114969
C19   C     C_R   0.831397 0.462314 0.033071 -0.143193
C20   C     C_R   0.168603 0.537686 0.966929 -0.143193
H9    H     H_    0.698439 0.434058 0.057438 0.117246
H10   H     H_    0.301561 0.565942 0.942562 0.117246
C21   C     C_R   0.011093 0.436092 0.066705 -0.045346
C22   C     C_R   0.988907 0.563908 0.933295 -0.045346
C23   C     C_R   0.679516 0.025959 0.468032 -0.160743
C24   C     C_R   0.320484 0.974041 0.531968 -0.160743
H11   H     H_    0.820274 0.044838 0.444370 0.115950
H12   H     H_    0.179726 0.955161 0.555630 0.115950
C25   C     C_R   0.668547 0.960818 0.531816 -0.153357
C26   C     C_R   0.331453 0.039182 0.468183 -0.153357
H13   H     H_    0.801399 0.931470 0.555334 0.117679
H14   H     H_    0.198601 0.068530 0.444666 0.117679
C27   C     C_R   0.488884 0.934001 0.564668 -0.044024
C28   C     C_R   0.511115 0.065998 0.435331 -0.044024
C29   C     C_R   0.662278 0.006401 0.051937 -0.175037
C30   C     C_R   0.337722 0.993599 0.948063 -0.175037
H15   H     H_    0.788135 0.009824 0.092496 0.135825
H16   H     H_    0.211865 0.990176 0.907504 0.135825
C31   C     C_R   0.655906 0.939849 0.988216 -0.035589
C32   C     C_R   0.344094 0.060151 0.011784 -0.035589
C33   C     C_R   0.491984 0.933007 0.934793 -0.099182
C34   C     C_R   0.508016 0.066993 0.065207 -0.099183
C35   C     C_1   0.818261 0.878113 0.981795 0.292294
N1    N     N_1   0.948662 0.828860 0.976997 -0.362998
C36   C     C_1   0.181739 0.121886 0.018205 0.292294
N2    N     N_1   0.051338 0.171140 0.023003 -0.362998

loop_
_geom_bond_atom_site_label_1
_geom_bond_atom_site_label_2
_ccdc_geom_bond_type
C24   C26   A    
C18   C21   A    
C31   C35   S    
O13   V3    S    
C12   C14   S    
C23   C28   A    
O4    C2    A    
V1    O19   S    
C17   H7    S    
C36   N2    T    
O9    V1    S    
C9    H3    S    
C10   H4    S    
C9    C14   S    
C11   H1    S    
O3    C1    A    
C23   H11   S    
O12   V4    S    
C8    C13   S    
O14   V2    S    
O9    C5    A    
C25   H13   S    
O7    C3    A    
C26   H14   S    
C9    C11   S    
O5    C7    A    
O7    V1    S    
O6    C8    A    
O8    V2    S    
O3    V1    S    
O14   V4    S    
C29   C31   A    
C20   H10   S    
C18   H8    S    
C2    C27   S    
C2    O12   A    
C13   C15   S    
C10   C13   S    
C14   C16   S    
O2    C4    A    
C16   H6    S    
O11   V3    S    
O17   V3    S    
C26   C28   A    
C9    C15   S    
C4    C33   S    
C10   C16   S    
C32   C34   A    
O8    C4    A    
C31   C33   A    
C17   C19   A    
C19   C21   A    
C30   C33   A    
O15   V3    S    
C29   H15   S    
C35   N1    T    
C32   C36   S    
C24   C27   A    
C30   C32   A    
O10   V2    S    
O1    V3    S    
C29   C34   A    
C23   C25   A    
C11   C16   S    
C15   H5    S    
O18   V4    S    
O15   C5    A    
O16   C6    A    
C6    C22   S    
V2    O20   S    
O16   V4    S    
C5    C21   S    
O5    V1    S    
O17   C7    A    
O6    V2    S    
O10   C6    A    
O18   C8    A    
O2    V4    S    
C12   H2    S    
V3    O19   S    
C1    C28   S    
V4    O20   S    
C7    C14   S    
C1    O11   A    
O13   V1    S    
C10   C12   S    
C11   C13   S    
O4    V2    S    
C25   C27   A    
C18   C20   A    
O1    C3    A    
C3    C34   S    
C30   H16   S    
C12   C15   S    
C19   H9    S    
C24   H12   S    
C20   C22   A    
C17   C22   A    
