data_mof_unit_67497.cif
_audit_creation_date              2013-03-05T15:41:00-0500
_audit_creation_method            fapswitch 2.2
_symmetry_space_group_name_H-M    P1
_symmetry_Int_Tables_number       1
_space_group_crystal_system       triclinic
_cell_length_a                    11.492149
_cell_length_b                    9.060645
_cell_length_c                    8.217383
_cell_angle_alpha                 104.050512
_cell_angle_beta                  97.823535
_cell_angle_gamma                 98.495148
_cell_volume                      807.641965246

loop_
_atom_site_label
_atom_site_type_symbol
_atom_site_description
_atom_site_fract_x
_atom_site_fract_y
_atom_site_fract_z
_atom_type_partial_charge
O1    O     O_R   0.509140 0.286130 0.619770 -0.522145
O2    O     O_R   0.485380 0.256770 0.308360 -0.474859
C1    C     C_R   0.495337 0.203221 0.454995 0.830444
O3    O     O_R   0.329570 0.514650 0.655700 -0.514642
O4    O     O_R   0.305810 0.485300 0.344290 -0.485563
C2    C     C_R   0.262260 0.501106 0.498696 0.887938
Cu1   Cu    Cu3+1 0.514070 0.517380 0.684380 1.167631
Cu2   Cu    Cu3+1 0.485930 0.482620 0.315620 1.226428
O5    O     O_R   0.514620 0.743230 0.691640 -0.493841
O6    O     O_R   0.490860 0.713870 0.380230 -0.554654
O7    O     O_R   0.694190 0.514700 0.655710 -0.562888
O8    O     O_R   0.670430 0.485350 0.344300 -0.478039
C3    C     C_R   0.504837 0.796703 0.545212 0.845130
C4    C     C_R   0.738707 0.499943 0.505697 0.930825
C5    C     C_3   0.087533 0.458110 0.676908 0.053163
C6    C     C_3   0.940543 0.435677 0.674577 -0.437361
C7    C     C_3   0.096453 0.681028 0.516416 -0.320638
C8    C     C_3   0.037127 0.374383 0.330542 -0.341777
C9    C     C_3   0.123344 0.502699 0.501993 -0.289812
C10   C     C_3   0.880690 0.501598 0.520282 -0.321972
C11   C     C_3   0.957297 0.685565 0.555336 0.058267
C12   C     C_3   0.895824 0.377162 0.345350 0.401223
C13   C     C_2   0.487277 0.033614 0.433582 0.112188
C14   C     C_2   0.515254 0.966417 0.567766 0.029268
N1    N     N_2   0.464720 0.456420 0.038520 -0.014818
N2    N     N_2   0.535280 0.543580 0.961480 -0.229705
C15   C     C_2   0.165358 0.584594 0.833814 0.908230
O9    O     O_2   0.140881 0.710116 0.888502 -0.586613
O10   O     O_R   0.269428 0.558163 0.922961 -0.634968
H1    H     H_    0.314966 0.651379 0.016729 0.383836
N3    N     N_R   0.836256 0.426480 0.203774 0.135957
O11   O     O_R   0.748951 0.331627 0.091429 -0.185427
O12   O     O_R   0.860950 0.568644 0.198725 -0.332760
C16   C     C_2   0.127311 0.732768 0.360112 0.887779
O13   O     O_2   0.231630 0.746715 0.339703 -0.574307
O14   O     O_R   0.047551 0.779297 0.248462 -0.600534
H2    H     H_    0.088991 0.836844 0.174625 0.407019
N4    N     N_R   0.899199 0.782275 0.461329 0.204582
O15   O     O_R   0.786992 0.784301 0.463619 -0.309004
O16   O     O_R   0.961895 0.916950 0.472784 -0.202237
N5    N     N_R   0.450988 0.943535 0.259641 0.133823
O17   O     O_R   0.527209 0.955592 0.159081 -0.269737
O18   O     O_R   0.339137 0.920308 0.191069 -0.341015
N6    N     N_R   0.569248 0.057502 0.737720 0.167015
O19   O     O_R   0.499669 0.097020 0.844840 -0.245867
O20   O     O_R   0.674554 0.039438 0.801351 -0.251225
N7    N     N_R   0.388903 0.320794 0.942066 0.349092
O21   O     O_R   0.337247 0.228444 0.020643 -0.207738
O22   O     O_R   0.354377 0.293361 0.779987 -0.234483
C17   C     C_2   0.611630 0.680761 0.059339 1.078539
O23   O     O_2   0.643479 0.701151 0.209010 -0.495286
O24   O     O_R   0.658465 0.789070 0.980190 -0.674809
H3    H     H_    0.713498 0.881876 0.064758 0.396173
N8    N     N_R   0.127717 0.314511 0.699361 0.183687
O25   O     O_R   0.142382 0.290157 0.849360 -0.178063
O26   O     O_R   0.113503 0.191576 0.576018 -0.260143
C18   C     C_2   0.878699 0.265057 0.656940 1.089336
O27   O     O_2   0.928367 0.171756 0.709866 -0.388190
O28   O     O_R   0.755344 0.222452 0.606070 -0.707046
H4    H     H_    0.731176 0.106016 0.561256 0.367377
C19   C     C_2   0.900648 0.508286 0.841941 0.928345
O29   O     O_2   0.954381 0.623293 0.947282 -0.552297
O30   O     O_R   0.793231 0.443007 0.874937 -0.596179
H5    H     H_    0.752211 0.524072 0.937125 0.370735
C20   C     C_2   0.191584 0.817246 0.643072 0.916334
O31   O     O_2   0.181702 0.951796 0.654180 -0.406818
O32   O     O_R   0.298157 0.793864 0.726164 -0.747334
H6    H     H_    0.340567 0.887363 0.821520 0.412060
C21   C     C_2   0.947320 0.787648 0.733713 0.990608
O33   O     O_2   0.024618 0.897607 0.816433 -0.416301
O34   O     O_R   0.835496 0.782608 0.781884 -0.699718
H7    H     H_    0.836896 0.873418 0.882390 0.405765
C22   C     C_2   0.049687 0.399718 0.158960 0.888460
O35   O     O_2   0.979203 0.321163 0.031571 -0.464285
O36   O     O_R   0.148292 0.484396 0.134597 -0.666504
H8    H     H_    0.118634 0.563999 0.087510 0.352923
C23   C     C_2   0.080889 0.215485 0.278521 1.054932
O37   O     O_2   0.019526 0.104087 0.168198 -0.452017
O38   O     O_R   0.200585 0.206349 0.325683 -0.724993
H9    H     H_    0.216457 0.098553 0.282549 0.377086
N9    N     N_R   0.825289 0.218217 0.324538 0.102639
O39   O     O_R   0.872383 0.101179 0.342601 -0.296356
O40   O     O_R   0.709012 0.191907 0.293194 -0.289869

loop_
_geom_bond_atom_site_label_1
_geom_bond_atom_site_label_2
_geom_bond_distance
_ccdc_geom_bond_type
C15   O10   1.398451 S    
C22   O36   1.338772 S    
C22   O35   1.222933 D    
C1    C13   1.491089 S    
N9    O39   1.289800 A    
Cu1   Cu2   2.936982 S    
N7    O22   1.288149 A    
C23   O37   1.228525 D    
N6    O19   1.290588 A    
C5    C9    1.671058 S    
C2    C9    1.602484 S    
Cu1   N2    2.206808 S    
O14   H2    1.012776 S    
C8    C9    1.674111 S    
N2    C17   1.400652 S    
O4    C2    1.409509 A    
O7    C4    1.382408 A    
C18   O28   1.389977 S    
C5    C6    1.668248 S    
C19   O30   1.378580 S    
C16   O13   1.225398 D    
N5    O17   1.294090 A    
C21   O34   1.392909 S    
O5    C3    1.399120 A    
C11   N4    1.473591 S    
N3    O11   1.305898 A    
C20   O32   1.389368 S    
C17   O24   1.387417 S    
C13   C14   1.406121 D    
N3    O12   1.289413 A    
N1    N7    1.385708 S    
Cu2   O8    2.097012 S    
O28   H4    1.011285 S    
O1    Cu1   2.022834 S    
Cu2   N1    2.206808 S    
N5    O18   1.295910 A    
C21   O33   1.220275 D    
O3    Cu1   2.097014 S    
N9    O40   1.300441 A    
N6    O20   1.300975 A    
C23   O38   1.397610 S    
N8    O26   1.283626 A    
C12   N3    1.465521 S    
O32   H6    1.010413 S    
C5    N8    1.486952 S    
C4    C10   1.617305 S    
O3    C2    1.378879 A    
N1    N2    1.369411 D    
C7    C11   1.677409 S    
O30   H5    1.004241 S    
C3    C14   1.488107 S    
C11   C21   1.560768 S    
O1    C1    1.354725 A    
Cu1   O7    2.117946 S    
O36   H8    0.978939 S    
C12   N9    1.502706 S    
O10   H1    1.012207 S    
C5    C15   1.562525 S    
N7    O21   1.299770 A    
C6    C10   1.639850 S    
C17   O23   1.194947 D    
O8    C4    1.411745 A    
C8    C22   1.504754 S    
C14   N6    1.438645 S    
C6    C19   1.534893 S    
O24   H3    1.014634 S    
Cu1   O5    2.031731 S    
N8    O25   1.297258 A    
C8    C12   1.648271 S    
O2    Cu2   2.031732 S    
C10   C12   1.645249 S    
O6    C3    1.355767 A    
O4    Cu2   2.117946 S    
C7    C20   1.571487 S    
C13   N5    1.433102 S    
O2    C1    1.401124 A    
O34   H7    1.010879 S    
N4    O16   1.297302 A    
C18   O27   1.217815 D    
N4    O15   1.294954 A    
C8    C23   1.575458 S    
C7    C9    1.668771 S    
C16   O14   1.390210 S    
C6    C18   1.566709 S    
C19   O29   1.201192 D    
O38   H9    1.007472 S    
C10   C11   1.703150 S    
Cu2   O6    2.022834 S    
C20   O31   1.223586 D    
C7    C16   1.537040 S    
C15   O9    1.206365 D    
