data_mof_unit_53936.cif
_audit_creation_date              2013-03-05T16:47:42-0500
_audit_creation_method            fapswitch 2.2
_symmetry_space_group_name_H-M    P1
_symmetry_Int_Tables_number       1
_space_group_crystal_system       triclinic
_cell_length_a                    10.955088
_cell_length_b                    12.999213
_cell_length_c                    11.701739
_cell_angle_alpha                 99.788669
_cell_angle_beta                  94.090768
_cell_angle_gamma                 91.93001
_cell_volume                      1636.19185122

loop_
_atom_site_label
_atom_site_type_symbol
_atom_site_description
_atom_site_fract_x
_atom_site_fract_y
_atom_site_fract_z
_atom_type_partial_charge
O1    O     O_R   0.506570 0.354460 0.582000 -0.591041
O2    O     O_R   0.493430 0.645540 0.418000 -0.591027
O3    O     O_R   0.490940 0.341410 0.386200 -0.543462
O4    O     O_R   0.509060 0.658590 0.613800 -0.543465
C1    C     C_R   0.497372 0.299438 0.478717 0.867939
C2    C     C_R   0.502636 0.700562 0.521283 0.867947
O5    O     O_R   0.327460 0.506540 0.597900 -0.596952
O6    O     O_R   0.672540 0.493460 0.402100 -0.596962
O7    O     O_R   0.311830 0.493480 0.402100 -0.547012
O8    O     O_R   0.688170 0.506520 0.597900 -0.547013
C3    C     C_R   0.262243 0.499542 0.499792 0.830594
C4    C     C_R   0.737756 0.500455 0.500207 0.830588
Cu1   Cu    Cu3+1 0.509250 0.507730 0.615930 1.036717
Cu2   Cu    Cu3+1 0.490750 0.492270 0.384070 1.036712
H1    H     H_    0.267024 0.662924 0.049774 0.191559
H2    H     H_    0.732780 0.336822 0.949984 0.191538
C5    C     C_R   0.234970 0.701697 0.232319 0.393642
C6    C     C_R   0.764970 0.298138 0.767467 0.393736
C7    C     C_R   0.179896 0.666715 0.324626 -0.195070
C8    C     C_R   0.820104 0.333170 0.675224 -0.195193
H3    H     H_    0.187749 0.714685 0.410350 0.158102
H4    H     H_    0.812302 0.285230 0.589483 0.158066
C9    C     C_R   0.115542 0.569266 0.307413 0.032489
C10   C     C_R   0.884433 0.430633 0.692519 0.032488
C11   C     C_R   0.103435 0.507551 0.194953 0.035435
C12   C     C_R   0.896468 0.492303 0.805003 0.035411
C13   C     C_R   0.159363 0.542046 0.103591 -0.250417
C14   C     C_R   0.840478 0.457756 0.896304 -0.250455
H5    H     H_    0.151517 0.494869 0.017379 0.170200
H6    H     H_    0.848266 0.504899 0.982534 0.170180
C15   C     C_R   0.225276 0.637880 0.122181 -0.177890
C16   C     C_R   0.774578 0.361912 0.877627 -0.177804
C17   C     C_R   0.930582 0.535966 0.409727 -0.076158
C18   C     C_R   0.069413 0.464021 0.590266 -0.076141
C19   C     C_R   0.871782 0.500642 0.500782 -0.102420
C20   C     C_R   0.128215 0.499347 0.499211 -0.102421
C21   C     C_R   0.942010 0.465973 0.592492 -0.032279
C22   C     C_R   0.057984 0.533997 0.407489 -0.032307
C23   C     C_R   0.496599 0.813171 0.532846 -0.112517
C24   C     C_R   0.503419 0.186831 0.467159 -0.112619
C25   C     C_R   0.611912 0.033240 0.397830 -0.026872
C26   C     C_R   0.388114 0.966765 0.602179 -0.026903
C27   C     C_R   0.590191 0.137566 0.397996 -0.197889
C28   C     C_R   0.409832 0.862438 0.602012 -0.197781
C29   C     C_R   0.433709 0.130974 0.534611 0.338828
C30   C     C_R   0.566312 0.869029 0.465395 0.338869
C31   C     C_R   0.455040 0.024760 0.534765 0.055891
C32   C     C_R   0.544985 0.975244 0.465244 0.055939
H7    H     H_    0.354641 0.818625 0.652153 0.172594
H8    H     H_    0.645381 0.181380 0.347857 0.172589
H9    H     H_    0.683474 0.999831 0.346406 0.208537
H10   H     H_    0.316554 0.000175 0.653606 0.208539
N1    N     N_R   0.523180 0.519350 0.790130 -0.253103
N2    N     N_R   0.476820 0.480650 0.209870 -0.253115
C33   C     C_R   0.422079 0.377901 0.017928 -0.292701
C34   C     C_R   0.577919 0.622101 0.982071 -0.292623
C35   C     C_R   0.423076 0.391519 0.139862 0.501169
C36   C     C_R   0.576924 0.608482 0.860138 0.501151
C37   C     C_R   0.526618 0.557133 0.158164 0.011296
C38   C     C_R   0.473377 0.442869 0.841836 0.011285
C39   C     C_R   0.526217 0.545395 0.035412 -0.023648
C40   C     C_R   0.473781 0.454607 0.964588 -0.023681
H11   H     H_    0.432118 0.373193 0.787804 0.216216
H12   H     H_    0.567873 0.626812 0.212195 0.216200
H13   H     H_    0.379900 0.307262 0.965199 0.223712
H14   H     H_    0.620095 0.692741 0.034800 0.223706
N3    N     N_R   0.631445 0.691588 0.812387 0.137207
O9    O     O_R   0.601280 0.787153 0.847331 -0.305262
O10   O     O_R   0.727930 0.676080 0.754575 -0.326375
N4    N     N_R   0.368547 0.308414 0.187611 0.137206
O11   O     O_R   0.398675 0.212845 0.152640 -0.305287
O12   O     O_R   0.272067 0.323933 0.245430 -0.326396
N5    N     N_R   0.298919 0.802169 0.249953 0.125938
O13   O     O_R   0.370984 0.826054 0.173689 -0.308585
O14   O     O_R   0.280619 0.872602 0.339475 -0.359744
N6    N     N_R   0.701052 0.197651 0.749747 0.125778
O15   O     O_R   0.628698 0.173811 0.825804 -0.308689
O16   O     O_R   0.719698 0.127155 0.660397 -0.359564
C41   C     C_1   0.033352 0.409146 0.171320 0.300405
N7    N     N_1   0.977008 0.330381 0.152327 -0.213799
C42   C     C_1   0.966535 0.590715 0.828723 0.300349
N8    N     N_1   0.022867 0.669485 0.847789 -0.213753
C43   C     C_1   0.862675 0.578696 0.318610 0.360317
N9    N     N_1   0.810616 0.612551 0.244910 -0.238331
C44   C     C_1   0.137319 0.421282 0.681376 0.360313
N10   N     N_1   0.189375 0.387416 0.755069 -0.238326
N11   N     N_R   0.660440 0.818251 0.400600 0.101062
O17   O     O_R   0.746648 0.773448 0.453596 -0.343963
O18   O     O_R   0.656511 0.811651 0.288200 -0.354296
N12   N     N_R   0.339575 0.181749 0.599399 0.101074
O19   O     O_R   0.343501 0.188357 0.711800 -0.354223
O20   O     O_R   0.253361 0.226540 0.546396 -0.343979

loop_
_geom_bond_atom_site_label_1
_geom_bond_atom_site_label_2
_geom_bond_distance
_ccdc_geom_bond_type
C28   H7    1.084077 S    
N11   O17   1.300762 A    
C13   H5    1.083945 S    
C18   C21   1.398816 A    
N5    O14   1.300784 A    
N5    O13   1.301659 A    
C42   N8    1.157246 T    
C44   N10   1.156921 T    
O5    C3    1.296069 A    
C37   H12   1.077666 S    
C6    C16   1.404074 A    
C38   H11   1.077661 S    
O1    C1    1.290835 A    
C3    C20   1.467739 S    
C19   C21   1.420103 A    
C10   C12   1.414886 A    
C33   C40   1.388773 A    
C38   C40   1.418130 A    
O4    Cu1   1.965523 S    
C17   C19   1.416146 A    
C24   C27   1.394017 A    
C43   N9    1.156933 T    
O6    Cu2   1.986906 S    
N4    O11   1.301454 A    
C35   N4    1.430203 S    
C18   C20   1.416158 A    
Cu1   Cu2   2.678829 S    
C5    N5    1.437107 S    
C25   C27   1.384450 A    
O2    C2    1.290840 A    
C26   C28   1.384447 A    
C33   H13   1.084199 S    
N1    C38   1.366480 A    
Cu1   N1    2.012642 S    
N2    C37   1.366486 A    
C29   C31   1.408353 A    
C24   C29   1.406044 A    
C30   C32   1.408356 A    
C37   C39   1.418130 A    
C13   C15   1.394815 A    
N3    O9    1.301469 A    
C8    C10   1.405378 A    
C14   C16   1.394821 A    
N6    O15   1.301655 A    
O4    C2    1.291217 A    
N3    O10   1.298292 A    
C18   C44   1.454248 S    
C7    C9    1.405384 A    
O7    Cu2   1.986614 S    
C17   C43   1.454253 S    
N12   O20   1.300774 A    
C31   C32   1.423408 A    
O6    C4    1.296055 A    
C10   C21   1.499198 S    
C4    C19   1.467727 S    
C29   N12   1.435664 S    
O7    C3    1.291889 A    
O3    Cu2   1.965522 S    
O8    C4    1.291896 A    
C23   C30   1.406052 A    
Cu2   N2    2.012640 S    
C8    H4    1.083459 S    
C12   C42   1.444130 S    
C33   C35   1.406799 A    
C5    C15   1.404098 A    
H2    C16   1.082633 S    
C30   N11   1.435667 S    
C2    C23   1.451175 S    
C6    N6    1.437073 S    
C7    H3    1.083459 S    
C11   C41   1.444137 S    
N6    O16   1.300750 A    
O3    C1    1.291218 A    
O8    Cu1   1.986614 S    
N1    C36   1.386614 A    
C27   H8    1.084074 S    
H1    C15   1.082635 S    
C23   C28   1.394016 A    
C11   C13   1.399068 A    
C9    C22   1.499210 S    
C12   C14   1.399078 A    
C17   C22   1.398815 A    
C14   H6    1.083942 S    
N12   O19   1.300943 A    
C34   H14   1.084201 S    
C20   C22   1.420117 A    
C5    C7    1.406782 A    
C25   C32   1.405608 A    
C34   C36   1.406797 A    
C6    C8    1.406755 A    
C26   C31   1.405603 A    
C9    C11   1.414890 A    
C39   C40   1.401238 A    
O2    Cu2   1.963041 S    
C41   N7    1.157250 T    
C36   N3    1.430200 S    
O5    Cu1   1.986906 S    
O1    Cu1   1.963040 S    
C1    C24   1.451168 S    
N11   O18   1.300947 A    
C34   C39   1.388775 A    
N4    O12   1.298294 A    
C25   H9    1.080141 S    
C26   H10   1.080139 S    
N2    C35   1.386612 A    
