data_mof_unit_23121.cif
_audit_creation_date              2012-12-11T17:39:35-0500
_audit_creation_method            fapswitch 2.2
_symmetry_space_group_name_H-M    P1
_symmetry_Int_Tables_number       1
_space_group_crystal_system       triclinic
_cell_length_a                    15.119863
_cell_length_b                    14.943033
_cell_length_c                    14.965281
_cell_angle_alpha                 108.469945
_cell_angle_beta                  110.213421
_cell_angle_gamma                 110.049771
_cell_volume                      2591.99359914

loop_
_atom_site_label
_atom_site_type_symbol
_atom_type_description
_atom_site_fract_x
_atom_site_fract_y
_atom_site_fract_z
_atom_type_partial_charge
C1    C     C_R   0.909640 0.974370 0.721843 -0.124375
C2    C     C_R   0.910238 0.705047 0.512154 -0.134443
C3    C     C_R   0.751545 0.779503 0.187302 -0.124736
C4    C     C_R   0.090859 0.315954 0.556385 -0.131062
C5    C     C_R   0.259891 0.945328 0.537296 -0.124551
C6    C     C_R   0.725772 0.676903 0.177221 0.127998
C7    C     C_R   0.290057 0.968084 0.466234 0.046669
C8    C     C_R   0.001449 0.704878 0.577652 0.069248
C9    C     C_R   0.995592 0.062217 0.194412 0.067642
C10   C     C_R   0.482673 0.601897 0.281119 -0.100845
C11   C     C_R   0.474967 0.695745 0.299474 -0.149364
C12   C     C_R   0.997793 0.325773 0.536706 0.051934
C13   C     C_R   0.445638 0.736814 0.376025 0.116723
C14   C     C_R   0.418183 0.678421 0.429043 -0.158769
C15   C     C_R   0.423018 0.582624 0.407963 -0.123592
C16   C     C_R   0.302001 0.208307 0.799311 -0.153483
C17   C     C_R   0.456350 0.545014 0.334916 -0.082127
C18   C     C_R   0.365782 0.854830 0.414993 -0.248671
C19   C     C_R   0.374081 0.957401 0.450533 0.080322
C20   C     C_R   0.465809 0.051004 0.476603 0.007443
C21   C     C_R   0.546408 0.038936 0.462762 -0.249213
C22   C     C_R   0.540638 0.937998 0.430481 0.070094
C23   C     C_R   0.364232 0.302419 0.801811 0.138399
C24   C     C_R   0.450444 0.843891 0.405998 0.024511
C25   C     C_R   0.466584 0.220505 0.479861 -0.185323
C26   C     C_R   0.500753 0.331288 0.537815 -0.115264
C27   C     C_R   0.561855 0.387940 0.652166 -0.105980
C28   C     C_R   0.699218 0.998935 0.406361 -0.172750
C29   C     C_R   0.587811 0.333510 0.708623 -0.095037
C30   C     C_R   0.551632 0.222200 0.651050 -0.132616
C31   C     C_R   0.490976 0.164944 0.536206 0.128020
C32   C     C_R   0.694341 0.227878 0.225057 -0.120381
C33   C     C_R   0.790889 0.311021 0.323217 -0.147028
C34   C     C_R   0.639335 0.942496 0.440551 0.057559
C35   C     C_R   0.793671 0.337186 0.423333 0.106917
C36   C     C_R   0.698077 0.280962 0.423782 -0.181774
C37   C     C_R   0.602615 0.195656 0.325337 -0.147854
C38   C     C_R   0.600671 0.169278 0.226243 -0.097090
C39   C     C_R   0.898900 0.527628 0.558551 -0.227416
C40   C     C_R   0.301139 0.300465 0.708412 -0.125306
C41   C     C_R   0.999427 0.624080 0.614947 0.048915
C42   C     C_R   0.095292 0.625921 0.678339 0.033119
C43   C     C_R   0.090243 0.525904 0.658845 -0.245453
C44   C     C_R   0.993201 0.426828 0.575151 0.068760
C45   C     C_R   0.751673 0.686852 0.279216 -0.159659
C46   C     C_R   0.895071 0.428507 0.526164 0.021841
C47   C     C_R   0.289576 0.746262 0.737070 -0.214351
C48   C     C_R   0.377717 0.852270 0.787486 -0.191681
C49   C     C_R   0.381705 0.942409 0.860633 -0.003151
C50   C     C_R   0.298897 0.923626 0.887130 -0.210724
C51   C     C_R   0.209397 0.817923 0.834768 -0.162088
C52   C     C_R   0.698847 0.909421 0.500318 -0.123854
C53   C     C_R   0.201821 0.729311 0.755731 0.133475
C54   C     C_2   0.533758 0.472325 0.882304 -0.150139
C55   C     C_2   0.480232 0.378469 0.880045 -0.173319
C56   C     C_R   0.251938 0.032287 0.439049 -0.105467
C57   C     C_2   0.635472 0.567595 0.979459 -0.127335
C58   C     C_2   0.671733 0.573654 0.077593 -0.180766
C59   C     C_R   0.399601 0.280330 0.123716 -0.071114
C60   C     C_R   0.296488 0.218359 0.107126 -0.201096
C61   C     C_R   0.209063 0.231291 0.052503 0.110710
C62   C     C_R   0.226994 0.308333 0.016339 -0.139530
C63   C     C_R   0.330386 0.369909 0.032900 -0.103128
C64   C     C_R   0.908091 0.221051 0.469923 -0.127709
C65   C     C_R   0.416341 0.355510 0.086161 -0.117265
C66   C     C_R   0.091666 0.161798 0.122621 -0.237264
C67   C     C_R   0.091123 0.792764 0.597021 -0.144043
C68   C     C_R   0.991801 0.093493 0.109202 0.058776
C69   C     C_R   0.894122 0.048532 0.009386 0.023765
C70   C     C_R   0.901843 0.057187 0.922602 -0.220681
C71   C     C_R   0.003024 0.098335 0.928452 0.049010
C72   C     C_R   0.099309 0.163772 0.033018 0.036392
C73   C     C_R   0.730381 0.865229 0.923743 -0.161134
C74   C     C_R   0.628215 0.799432 0.907110 -0.147563
C75   C     C_R   0.578901 0.847558 0.952824 -0.112244
C76   C     C_R   0.092480 0.061872 0.812919 -0.137833
C77   C     C_R   0.629133 0.961614 0.010699 -0.088470
C78   C     C_R   0.907905 0.002444 0.200952 -0.151931
C79   C     C_R   0.729439 0.028013 0.024055 -0.109354
C80   C     C_R   0.782732 0.979886 0.984783 0.096875
C81   C     C_R   0.002951 0.051231 0.825362 0.056187
C82   C     C_2   0.469016 0.055898 0.905375 0.925119
C83   C     C_R   0.089073 0.094144 0.289169 -0.137071
H1    H     H_    0.825223 0.943109 0.699414 0.094391
H2    H     H_    0.510417 0.574453 0.226035 0.114346
H3    H     H_    0.495179 0.738199 0.256428 0.115642
H4    H     H_    0.175474 0.380969 0.605616 0.090563
H5    H     H_    0.396069 0.708571 0.488954 0.110175
H6    H     H_    0.402929 0.538694 0.449852 0.102515
H7    H     H_    0.294439 0.784475 0.396448 0.131996
H8    H     H_    0.619591 0.111713 0.487643 0.139360
H9    H     H_    0.420726 0.178088 0.391308 0.096840
H10   H     H_    0.481114 0.373532 0.494033 0.102621
H11   H     H_    0.589755 0.474143 0.696978 0.098225
H12   H     H_    0.261119 0.063992 0.385421 0.098166
H13   H     H_    0.637079 0.377743 0.797044 0.132391
H14   H     H_    0.573426 0.181291 0.695708 0.137313
H15   H     H_    0.526220 0.103819 0.150425 0.131487
H16   H     H_    0.331841 0.176706 0.851242 0.148204
H17   H     H_    0.692065 0.209178 0.148112 0.125041
H18   H     H_    0.863219 0.355642 0.321401 0.116416
H19   H     H_    0.698441 0.301597 0.500166 0.132517
H20   H     H_    0.529957 0.149345 0.325219 0.120550
H21   H     H_    0.823173 0.525881 0.518418 0.124816
H22   H     H_    0.164237 0.526258 0.703112 0.123777
H23   H     H_    0.176170 0.825149 0.649569 0.132112
H24   H     H_    0.285095 0.679282 0.675970 0.122856
H25   H     H_    0.440740 0.864079 0.766096 0.167354
H26   H     H_    0.300164 0.991213 0.943844 0.158840
H27   H     H_    0.671086 0.025236 0.348093 0.115137
H28   H     H_    0.142432 0.806386 0.850093 0.122691
H29   H     H_    0.495004 0.487459 0.817402 0.116669
H30   H     H_    0.518226 0.359166 0.941133 0.128010
H31   H     H_    0.665278 0.641212 0.973467 0.121397
H32   H     H_    0.647285 0.501703 0.086639 0.117805
H33   H     H_    0.496481 0.403807 0.099971 0.093304
H34   H     H_    0.824064 0.977888 0.155272 0.124722
H35   H     H_    0.466589 0.270192 0.165803 0.141545
H36   H     H_    0.284391 0.159205 0.135396 0.112169
H37   H     H_    0.160853 0.319795 0.974631 0.117519
H38   H     H_    0.344026 0.428892 0.004580 0.120372
H39   H     H_    0.329102 0.351404 0.675254 0.089259
H40   H     H_    0.166120 0.208518 0.201397 0.120925
H41   H     H_    0.826436 0.019028 0.846550 0.131875
H42   H     H_    0.769762 0.827104 0.891207 0.116264
H43   H     H_    0.588055 0.711166 0.860285 0.103621
H44   H     H_    0.501181 0.796484 0.942460 0.123269
H45   H     H_    0.172676 0.153164 0.319748 0.085492
H46   H     H_    0.590495 0.998271 0.045767 0.101752
H47   H     H_    0.768652 0.116237 0.070053 0.111751
H48   H     H_    0.671091 0.854748 0.530171 0.105514
H49   H     H_    0.824175 0.194533 0.444593 0.124556
H50   H     H_    0.177864 0.108646 0.873887 0.130947
H51   H     H_    0.741944 0.622700 0.300371 0.102194
H52   H     H_    0.536240 0.217671 0.004011 0.311056
H53   H     H_    0.827012 0.658025 0.491943 0.088262
H54   H     H_    0.740982 0.801103 0.123689 0.107539
H55   H     H_    0.281113 0.901228 0.577821 0.107347
H56   H     H_    0.462371 0.472250 0.320613 0.110489
N1    N     N_R   0.941940 0.944580 0.650780 -0.041942
N2    N     N_R   0.204460 0.150250 0.707090 -0.045386
N3    N     N_R   0.794270 0.003240 0.446420 -0.038118
N4    N     N_R   0.204920 0.207570 0.650770 -0.043626
N5    N     N_R   0.793810 0.945920 0.502740 -0.039994
N6    N     N_R   0.943620 0.152590 0.446420 -0.042370
N7    N     N_R   0.055110 0.000900 0.707100 -0.041631
N8    N     N_R   0.795080 0.792430 0.349230 -0.039156
N9    N     N_R   0.206190 0.054080 0.497260 -0.040546
N10   N     N_R   0.056380 0.847410 0.553580 -0.043022
N11   N     N_R   0.944890 0.999100 0.292900 -0.041501
N12   N     N_R   0.058060 0.055420 0.349220 -0.039683
N13   N     N_R   0.943200 0.791100 0.497260 -0.039061
N14   N     N_R   0.795540 0.849750 0.292910 -0.044600
N15   N     N_R   0.205730 0.996760 0.553580 -0.041838
N16   N     N_R   0.056800 0.208900 0.502740 -0.040117
Ni1   Ni    Ni4+2 0.869690 0.869690 0.500000 0.212319
Ni2   Ni    Ni4+2 0.130310 0.130310 0.500000 0.215072
Ni3   Ni    Ni4+2 0.129250 0.998840 0.629170 0.220406
Ni4   Ni    Ni4+2 0.870750 0.001160 0.370830 0.212736
O1    O     O_2   0.536527 0.072528 0.876216 -0.659439
O2    O     O_R   0.473649 0.144507 0.980121 -0.852427

loop_
_geom_bond_atom_site_label_1
_geom_bond_atom_site_label_2
_ccdc_geom_bond_type
C25   C31   A    
C56   H12   S    
C66   C68   A    
C63   C65   A    
C10   H2    S    
N5    Ni1   S    
C6    C45   A    
C64   N6    A    
N16   Ni2   S    
C41   C42   A    
C6    C58   S    
C35   C36   A    
N3    Ni4   S    
C38   H15   S    
C3    C6    A    
C54   C57   S    
N9    Ni2   S    
C5    H55   S    
C39   C41   A    
C4    H4    S    
C48   H25   S    
C1    H1    S    
C30   H14   S    
C45   H51   S    
C37   C38   A    
C33   H18   S    
N12   Ni2   S    
C36   C37   A    
N15   Ni3   S    
N2    N4    A    
C42   C53   S    
C30   C31   A    
C12   C64   A    
C73   H42   S    
C67   N10   A    
C11   H3    S    
C1    C81   A    
C5    N15   A    
C3    N14   A    
C27   C29   A    
C60   H36   S    
C36   H19   S    
C18   C19   A    
C43   H22   S    
C66   C72   A    
C64   H49   S    
C68   C69   A    
C70   C71   A    
C3    H54   S    
C32   C38   A    
C4    C12   A    
C29   C30   A    
N10   Ni3   S    
C83   H45   S    
C62   H37   S    
C47   C53   A    
C26   H10   S    
C28   C34   A    
C59   C60   A    
C13   C14   A    
H52   O2    S    
C61   C62   A    
N9    N15   A    
C7    C56   A    
C63   H38   S    
C44   C46   A    
N4    Ni2   S    
C83   N12   A    
C77   C79   A    
C73   C74   A    
C2    N13   A    
C22   C34   S    
C74   C75   A    
C18   H7    S    
N13   Ni1   S    
C39   H21   S    
C78   H34   S    
C8    C41   S    
N11   Ni4   S    
N10   N13   A    
N1    N7    A    
C5    C7    A    
C55   H30   S    
C28   H27   S    
C25   C26   A    
C79   H47   S    
C50   H26   S    
C2    H53   S    
C32   H17   S    
C13   C24   S    
C60   C61   A    
C51   C53   A    
C49   C82   S    
C56   N9    A    
C43   C44   A    
C62   C63   A    
C15   H6    S    
C82   O1    D    
C47   C48   A    
C50   C51   A    
C26   C27   A    
C54   H29   S    
C17   H56   S    
C77   H46   S    
N8    Ni1   S    
C75   C77   A    
C1    N1    A    
C9    C83   A    
C39   C46   A    
C61   C72   S    
C48   C49   A    
N1    Ni1   S    
C16   C23   A    
C7    C19   S    
C52   N5    A    
C58   H32   S    
C65   H33   S    
C18   C24   A    
C28   N3    A    
C42   C43   A    
N3    N5    A    
N14   Ni4   S    
C78   N11   A    
C37   H20   S    
C21   H8    S    
C15   C17   A    
C54   C55   D    
C25   H9    S    
C51   H28   S    
C66   H40   S    
C45   N8    A    
C52   H48   S    
C34   C52   A    
C16   H16   S    
C2    C8    A    
C69   C80   S    
C76   C81   A    
C29   H13   S    
C76   H50   S    
C67   H23   S    
C23   C55   S    
C57   H31   S    
N7    Ni3   S    
C82   O2    S    
C59   H35   S    
C40   H39   S    
C47   H24   S    
N11   N12   A    
C32   C33   A    
C19   C20   A    
C16   N2    A    
C9    C68   S    
C14   H5    S    
C71   C72   A    
C12   C44   S    
C59   C65   A    
C11   C13   A    
C57   C58   D    
C74   H43   S    
N6    Ni4   S    
C33   C35   A    
C73   C80   A    
C22   C24   A    
C9    C78   A    
C69   C70   A    
N8    N14   A    
C10   C11   A    
C76   N7    A    
C79   C80   A    
N6    N16   A    
C70   H41   S    
N2    Ni3   S    
C4    N16   A    
C20   C21   A    
C8    C67   A    
C49   C50   A    
C40   N4    A    
C14   C15   A    
C27   H11   S    
C10   C17   A    
C21   C22   A    
C35   C46   S    
C20   C31   S    
C23   C40   A    
C71   C81   S    
C75   H44   S    
