data_mof_unit_55210.cif
_audit_creation_date              2012-12-11T14:44:31-0500
_audit_creation_method            fapswitch 2.2
_symmetry_space_group_name_H-M    P1
_symmetry_Int_Tables_number       1
_space_group_crystal_system       triclinic
_cell_length_a                    24.821129
_cell_length_b                    16.89616
_cell_length_c                    15.532847
_cell_angle_alpha                 89.803158
_cell_angle_beta                  50.378587
_cell_angle_gamma                 89.877688
_cell_volume                      5017.69002962

loop_
_atom_site_label
_atom_site_type_symbol
_atom_type_description
_atom_site_fract_x
_atom_site_fract_y
_atom_site_fract_z
_atom_type_partial_charge
C1    C     C_R   0.355941 0.149091 0.747943 -0.057042
C2    C     C_3   0.723362 0.742705 0.582795 0.350472
C3    C     C_3   0.753837 0.077416 0.708005 -0.262864
C4    C     C_3   0.342096 0.352275 0.388897 -0.120018
C5    C     C_3   0.667694 0.522463 0.495133 -0.123527
C6    C     C_3   0.839890 0.302666 0.250785 -0.224666
C7    C     C_3   0.402601 0.541231 0.372703 -0.213437
C8    C     C_3   0.341848 0.230532 0.207969 -0.206100
C9    C     C_3   0.548996 0.652401 0.699604 -0.181369
C10   C     C_3   0.666463 0.304500 0.468660 -0.184204
C11   C     C_3   0.447012 0.703107 0.226618 -0.201858
C12   C     C_3   0.897401 0.789290 0.295764 -0.186449
C13   C     C_3   0.740204 0.230585 0.602792 0.405341
C14   C     C_3   0.041625 0.181474 0.746579 -0.217899
C15   C     C_3   0.169438 0.702464 0.794783 -0.198817
C16   C     C_3   0.925567 0.145307 0.476032 -0.254903
C17   C     C_3   0.229697 0.069725 0.310179 -0.216535
C18   C     C_3   0.665569 0.798255 0.758244 -0.148939
C19   C     C_3   0.633385 0.240771 0.781971 -0.155963
C20   C     C_3   0.258982 0.843796 0.356871 -0.143310
C21   C     C_3   0.783519 0.624251 0.247303 -0.184398
C22   C     C_3   0.210186 0.332230 0.683092 -0.166929
C23   C     C_3   0.297324 0.559017 0.649770 -0.200006
C24   C     C_3   0.255438 0.736170 0.453730 0.395839
C25   C     C_3   0.921059 0.129727 0.231185 -0.124937
C26   C     C_3   0.197724 0.990410 0.055087 -0.204559
C27   C     C_3   0.754098 0.188636 0.937962 -0.259482
C28   C     C_3   0.792311 0.987032 0.938898 -0.234833
C29   C     C_3   0.260902 0.184625 0.067893 -0.252258
C30   C     C_3   0.708867 0.487048 0.059322 -0.231996
C31   C     C_3   0.277924 0.688339 0.964191 -0.240458
C32   C     C_3   0.281147 0.473485 0.914136 -0.238789
C33   C     C_3   0.742938 0.687991 0.062743 -0.221130
C34   C     C_3   0.727018 0.687474 0.417127 0.365853
C35   C     C_3   0.233128 0.232942 0.561013 0.391248
C36   C     C_3   0.303031 0.662908 0.546232 0.362857
C37   C     C_3   0.814606 0.167655 0.398030 0.353083
C38   C     C_2   0.636351 0.266024 0.162057 -0.398913
C39   C     C_2   0.302078 0.875046 0.994391 -0.364770
C40   C     C_2   0.364502 0.265492 0.835574 -0.392282
C41   C     C_R   0.666591 0.892729 0.195782 -0.135164
C42   C     C_2   0.694908 0.859745 0.011871 -0.368753
C43   C     C_2   0.139430 0.765577 0.157603 -0.384036
C44   C     C_2   0.805018 0.358288 0.987900 -0.374502
C45   C     C_2   0.862740 0.764928 0.840084 -0.381708
C46   C     C_2   0.189394 0.337746 0.024292 -0.369242
C47   C     C_2   0.705162 0.275907 0.080951 0.526180
C48   C     C_2   0.233345 0.863867 0.049457 0.447819
C49   C     C_2   0.296953 0.268016 0.925734 0.516738
C50   C     C_2   0.764277 0.855480 0.955434 0.460876
C51   C     C_2   0.207874 0.783481 0.093095 0.521251
C52   C     C_R   0.645640 0.147844 0.248279 -0.059956
C53   C     C_2   0.735605 0.355078 0.044325 0.449036
C54   C     C_2   0.793859 0.775882 0.919458 0.520089
C55   C     C_2   0.259092 0.342864 0.962155 0.461036
C56   C     C_R   0.616857 0.101588 0.591887 -0.085362
C57   C     C_R   0.411696 0.853879 0.405409 -0.162092
C58   C     C_R   0.385023 0.104585 0.406089 -0.174649
C59   C     C_R   0.584473 0.850496 0.593809 -0.134477
C60   C     C_R   0.115349 0.602463 0.593936 -0.172664
C61   C     C_R   0.911266 0.351957 0.408263 -0.051996
C62   C     C_R   0.888308 0.615277 0.406245 -0.165920
C63   C     C_R   0.332597 0.895671 0.805684 -0.149267
C64   C     C_R   0.086246 0.351798 0.594391 -0.167774
C65   C     C_R   0.691063 0.098885 0.406857 -0.177615
C66   C     C_R   0.337239 0.852730 0.592298 -0.024290
C67   C     C_R   0.309721 0.102381 0.591334 -0.049147
C68   C     C_R   0.658947 0.850644 0.407671 -0.003304
C69   C     C_R   0.190669 0.600146 0.408894 -0.043882
C70   C     C_R   0.835643 0.354356 0.594859 -0.079411
C71   C     C_R   0.813112 0.614101 0.592549 -0.061172
C72   C     C_R   0.160256 0.351117 0.408096 -0.014276
C73   C     C_R   0.556175 0.144962 0.246683 -0.166055
C74   C     C_R   0.853396 0.646959 0.754209 -0.056407
C75   C     C_R   0.420787 0.900463 0.807735 -0.155836
C76   C     C_R   0.445154 0.145583 0.750206 -0.150103
C77   C     C_R   0.577859 0.896448 0.194699 -0.172898
C78   C     C_R   0.058248 0.644247 0.243094 -0.180402
C79   C     C_R   0.922148 0.395898 0.805302 -0.179348
C80   C     C_R   0.943408 0.644274 0.754344 -0.167436
C81   C     C_R   0.075771 0.390692 0.198626 -0.192496
C82   C     C_R   0.390091 0.191069 0.776443 0.186311
C83   C     C_R   0.648099 0.880161 0.130084 0.188261
C84   C     C_R   0.612584 0.189472 0.217180 0.178243
C85   C     C_R   0.165304 0.388149 0.198271 -0.114613
C86   C     C_R   0.349967 0.887144 0.873483 0.177778
C87   C     C_R   0.886309 0.688274 0.785536 0.176122
C88   C     C_R   0.144949 0.370248 0.136225 0.194791
C89   C     C_R   0.115207 0.688542 0.213170 0.158645
C90   C     C_R   0.851985 0.379205 0.869724 0.199291
C91   C     C_R   0.685306 0.111989 0.498933 0.286913
C92   C     C_R   0.361264 0.810017 0.497814 0.234666
C93   C     C_R   0.317041 0.118472 0.497660 0.262668
C94   C     C_R   0.633020 0.805584 0.501230 0.198516
C95   C     C_R   0.183680 0.614064 0.502570 0.270265
C96   C     C_R   0.145949 0.647438 0.248650 -0.035311
C97   C     C_R   0.858791 0.310205 0.502823 0.165270
C98   C     C_R   0.823704 0.639504 0.498881 0.262351
C99   C     C_R   0.134770 0.306635 0.502125 0.220485
C100  C     C_3   0.277962 0.191913 0.392906 0.361044
C101  C     C_3   0.661550 0.702272 0.599843 0.378930
C102  C     C_3   0.723983 0.241589 0.523690 0.400821
C103  C     C_3   0.332589 0.717294 0.392014 0.375629
C104  C     C_3   0.788666 0.727941 0.400441 0.384118
C105  C     C_3   0.160271 0.205644 0.606879 0.386086
C106  C     C_3   0.225489 0.681662 0.607452 0.356191
C107  C     C_R   0.833507 0.392211 0.804033 -0.150323
C108  C     C_3   0.832018 0.157719 0.477095 0.365281
C109  C     C_3   0.740569 0.792463 0.484964 0.351184
C110  C     C_3   0.190867 0.126725 0.542827 0.377090
C111  C     C_3   0.243820 0.764956 0.557269 0.341143
C112  C     C_3   0.753967 0.141641 0.576283 0.388111
C113  C     C_3   0.248475 0.269489 0.457652 0.346628
C114  C     C_3   0.710151 0.637066 0.515428 0.373773
C115  C     C_3   0.800901 0.257104 0.424185 0.376429
C116  C     C_3   0.313266 0.632921 0.441816 0.376253
C117  C     C_3   0.678057 0.752423 0.501980 -0.384176
C118  C     C_3   0.204855 0.164634 0.438427 0.355127
C119  C     C_3   0.264405 0.154429 0.496481 -0.374373
C120  C     C_3   0.322090 0.747773 0.496067 -0.408667
C121  C     C_3   0.736643 0.152135 0.497922 -0.416554
C122  C     C_3   0.174369 0.243997 0.503210 -0.411460
C123  C     C_3   0.772234 0.677463 0.497910 -0.388796
C124  C     C_3   0.818426 0.247665 0.503616 -0.413506
C125  C     C_3   0.235403 0.651819 0.503796 -0.373993
C126  C     C_3   0.776390 0.909297 0.514880 -0.073803
C127  C     C_3   0.115955 0.023743 0.581408 -0.175263
C128  C     C_3   0.140916 0.836572 0.654643 -0.126609
H1    H     H_    0.310782 0.167264 0.756938 0.121675
H2    H     H_    0.439490 0.841556 0.318478 0.153092
H3    H     H_    0.254914 0.571507 0.739658 0.154095
H4    H     H_    0.335118 0.519042 0.643703 0.131504
H5    H     H_    0.935712 0.075988 0.253380 0.183714
H6    H     H_    0.941716 0.183733 0.242373 0.109891
H7    H     H_    0.946773 0.125638 0.141144 0.137349
H8    H     H_    0.250639 0.016042 0.990812 0.177401
H9    H     H_    0.181435 0.996906 0.140151 0.114752
H10   H     H_    0.160519 0.025010 0.053058 0.180026
H11   H     H_    0.763651 0.239994 0.884630 0.141275
H12   H     H_    0.706016 0.156724 0.966660 0.151628
H13   H     H_    0.406863 0.101973 0.319829 0.162971
H14   H     H_    0.799235 0.148265 0.884065 0.144050
H15   H     H_    0.738576 0.010026 0.004582 0.170331
H16   H     H_    0.805113 0.987512 0.855874 0.108693
H17   H     H_    0.829179 0.027846 0.933855 0.181669
H18   H     H_    0.238807 0.235440 0.126790 0.137068
H19   H     H_    0.314761 0.171056 0.035860 0.137990
H20   H     H_    0.227552 0.132717 0.116350 0.166958
H21   H     H_    0.695860 0.487373 0.142489 0.112627
H22   H     H_    0.672498 0.528415 0.063555 0.182415
H23   H     H_    0.762853 0.509418 0.993549 0.167529
H24   H     H_    0.557086 0.835960 0.680534 0.136712
H25   H     H_    0.293399 0.731618 0.897685 0.132841
H26   H     H_    0.235777 0.649203 0.982476 0.138393
H27   H     H_    0.324557 0.651566 0.930702 0.167434
H28   H     H_    0.227678 0.498295 0.976379 0.155651
H29   H     H_    0.290418 0.456316 0.836385 0.108729
H30   H     H_    0.319412 0.520486 0.890484 0.161500
H31   H     H_    0.734374 0.738837 0.115718 0.147761
H32   H     H_    0.790155 0.654316 0.034801 0.139370
H33   H     H_    0.696795 0.648907 0.116758 0.155822
H34   H     H_    0.326084 0.846403 0.025368 0.160091
H35   H     H_    0.093014 0.601064 0.680530 0.158007
H36   H     H_    0.599902 0.315251 0.195817 0.148880
H37   H     H_    0.671441 0.821770 0.987292 0.143942
H38   H     H_    0.395454 0.318810 0.795114 0.152206
H39   H     H_    0.828117 0.319488 0.012636 0.139832
H40   H     H_    0.101398 0.808366 0.173130 0.156329
H41   H     H_    0.166545 0.289104 0.011535 0.153375
H42   H     H_    0.899740 0.813495 0.807298 0.148838
H43   H     H_    0.939539 0.335332 0.322102 0.117018
H44   H     H_    0.908420 0.614471 0.320727 0.144957
H45   H     H_    0.058710 0.338280 0.681217 0.150922
H46   H     H_    0.738137 0.097424 0.320438 0.164803
H47   H     H_    0.295726 0.836797 0.678550 0.100744
H48   H     H_    0.261521 0.100384 0.676893 0.127781
H49   H     H_    0.718786 0.894591 0.169000 0.155405
H50   H     H_    0.701605 0.835584 0.321694 0.117026
H51   H     H_    0.238815 0.598452 0.323279 0.128674
H52   H     H_    0.795466 0.339983 0.681770 0.153921
H53   H     H_    0.764530 0.613677 0.677750 0.135757
H54   H     H_    0.201800 0.335157 0.322192 0.086882
H55   H     H_    0.518991 0.161086 0.235202 0.117676
H56   H     H_    0.449421 0.908242 0.838010 0.101410
H57   H     H_    0.482216 0.161173 0.762073 0.107901
H58   H     H_    0.548948 0.902084 0.164589 0.101559
H59   H     H_    0.022283 0.660244 0.229054 0.111823
H60   H     H_    0.690422 0.165922 0.240274 0.108174
H61   H     H_    0.950976 0.401351 0.835537 0.103528
H62   H     H_    0.980816 0.660286 0.765276 0.113455
H63   H     H_    0.046275 0.393120 0.169318 0.106782
H64   H     H_    0.801162 0.966893 0.473768 0.192194
H65   H     H_    0.816325 0.872930 0.508056 0.117453
H66   H     H_    0.731375 0.921682 0.603540 0.178316
H67   H     H_    0.088004 0.071688 0.574774 0.135209
H68   H     H_    0.075626 0.989238 0.657546 0.124565
H69   H     H_    0.140969 0.983438 0.509001 0.142632
H70   H     H_    0.110860 0.881922 0.721040 0.156520
H71   H     H_    0.280744 0.898806 0.831343 0.159391
H72   H     H_    0.113193 0.779247 0.691699 0.132358
H73   H     H_    0.140315 0.853197 0.586229 0.159167
H74   H     H_    0.756707 0.137158 0.734838 0.151471
H75   H     H_    0.806264 0.049307 0.653452 0.180401
H76   H     H_    0.719960 0.040389 0.784368 0.149465
H77   H     H_    0.373580 0.396960 0.321825 0.164944
H78   H     H_    0.373357 0.296682 0.357519 0.131893
H79   H     H_    0.334388 0.372822 0.463759 0.154574
H80   H     H_    0.630978 0.563432 0.499231 0.114660
H81   H     H_    0.636803 0.470002 0.546531 0.157242
H82   H     H_    0.807948 0.664867 0.764079 0.134186
H83   H     H_    0.708615 0.502302 0.407958 0.141524
H84   H     H_    0.838018 0.356922 0.212354 0.141208
H85   H     H_    0.802202 0.259888 0.260948 0.143566
H86   H     H_    0.893977 0.279336 0.192132 0.159161
H87   H     H_    0.427957 0.591807 0.380041 0.146493
H88   H     H_    0.442655 0.513993 0.289689 0.135230
H89   H     H_    0.387595 0.496567 0.436866 0.144538
H90   H     H_    0.358870 0.291051 0.208181 0.174101
H91   H     H_    0.380810 0.206825 0.122167 0.139540
H92   H     H_    0.290800 0.233132 0.225907 0.142067
H93   H     H_    0.217945 0.388095 0.169969 0.134705
H94   H     H_    0.553203 0.670162 0.626481 0.118420
H95   H     H_    0.494678 0.665479 0.775583 0.157002
H96   H     H_    0.557062 0.587783 0.699191 0.170299
H97   H     H_    0.681459 0.254350 0.411600 0.113799
H98   H     H_    0.613623 0.323877 0.501872 0.138770
H99   H     H_    0.702325 0.355158 0.422172 0.171602
H100  H     H_    0.464134 0.703367 0.277538 0.115757
H101  H     H_    0.487789 0.734956 0.147785 0.151685
H102  H     H_    0.444080 0.642325 0.203202 0.187267
H103  H     H_    0.895375 0.779761 0.368645 0.119983
H104  H     H_    0.188827 0.665545 0.245635 0.158220
H105  H     H_    0.952466 0.780266 0.219474 0.145159
H106  H     H_    0.883223 0.851097 0.293362 0.188360
H107  H     H_    0.037420 0.189317 0.679886 0.119563
H108  H     H_    0.994835 0.209795 0.823042 0.155337
H109  H     H_    0.040027 0.117993 0.766327 0.176053
H110  H     H_    0.144613 0.761071 0.810293 0.170059
H111  H     H_    0.137865 0.670180 0.875616 0.144358
H112  H     H_    0.222699 0.710381 0.768012 0.147427
H113  H     H_    0.891894 0.168806 0.562831 0.129896
H114  H     H_    0.958486 0.192771 0.413887 0.151087
H115  H     H_    0.781301 0.394189 0.830917 0.161306
H116  H     H_    0.961364 0.101153 0.468859 0.168824
H117  H     H_    0.249499 0.035518 0.346415 0.145453
H118  H     H_    0.274628 0.091517 0.225998 0.159521
H119  H     H_    0.199925 0.028136 0.299315 0.130818
H120  H     H_    0.631592 0.749062 0.815330 0.188576
H121  H     H_    0.637843 0.835035 0.737601 0.131784
H122  H     H_    0.676231 0.836665 0.803652 0.127486
H123  H     H_    0.627494 0.175571 0.783675 0.145175
H124  H     H_    0.603353 0.270402 0.760617 0.185436
H125  H     H_    0.609744 0.259135 0.868059 0.145675
H126  H     H_    0.595673 0.101706 0.678020 0.100147
H127  H     H_    0.307863 0.834401 0.270022 0.185636
H128  H     H_    0.269776 0.879487 0.404528 0.159183
H129  H     H_    0.223376 0.879057 0.351733 0.113164
H130  H     H_    0.807169 0.587160 0.275059 0.145704
H131  H     H_    0.822013 0.668462 0.184451 0.188055
H132  H     H_    0.770974 0.584378 0.205641 0.118067
H133  H     H_    0.159655 0.313161 0.762978 0.184257
H134  H     H_    0.200891 0.370820 0.635444 0.155588
H135  H     H_    0.237405 0.368672 0.704289 0.121071
H136  H     H_    0.275463 0.526366 0.615901 0.150235
N1    N     N_R   0.389620 0.081040 0.705440 -0.058427
N2    N     N_R   0.417680 0.920160 0.443370 -0.053582
N3    N     N_R   0.417680 0.079840 0.443370 -0.056964
N4    N     N_R   0.582320 0.920160 0.556630 -0.048621
N5    N     N_R   0.082320 0.579840 0.556630 -0.055282
N6    N     N_R   0.917680 0.420160 0.443370 -0.050439
N7    N     N_R   0.917680 0.579840 0.443370 -0.053063
N8    N     N_R   0.082320 0.420160 0.556630 -0.051524
N9    N     N_R   0.627920 0.078930 0.443400 -0.062002
N10   N     N_R   0.372080 0.921070 0.556600 -0.057900
N11   N     N_R   0.372080 0.078930 0.556600 -0.068377
N12   N     N_R   0.610380 0.918960 0.294560 -0.058750
N13   N     N_R   0.627920 0.921070 0.443400 -0.050510
N14   N     N_R   0.127920 0.578930 0.443400 -0.069486
N15   N     N_R   0.872080 0.421070 0.556600 -0.055480
N16   N     N_R   0.872080 0.578930 0.556600 -0.067419
N17   N     N_R   0.127920 0.421070 0.443400 -0.056442
N18   N     N_R   0.555090 0.077730 0.294590 -0.045627
N19   N     N_R   0.444910 0.922270 0.705410 -0.045487
N20   N     N_R   0.444910 0.077730 0.705410 -0.049217
N21   N     N_R   0.555090 0.922270 0.294590 -0.041610
N22   N     N_R   0.055090 0.577730 0.294590 -0.042489
N23   N     N_R   0.610380 0.081040 0.294560 -0.055646
N24   N     N_R   0.944910 0.422270 0.705410 -0.042498
N25   N     N_R   0.944910 0.577730 0.705410 -0.044433
N26   N     N_R   0.055090 0.422270 0.294590 -0.046950
N27   N     N_R   0.389620 0.918960 0.705440 -0.055793
N28   N     N_R   0.889620 0.581040 0.705440 -0.059643
N29   N     N_R   0.110380 0.418960 0.294560 -0.059548
N30   N     N_R   0.110380 0.581040 0.294560 -0.063122
N31   N     N_R   0.889620 0.418960 0.705440 -0.059059
N32   N     N_R   0.582320 0.079840 0.556630 -0.058531
Ni1   Ni    Ni4+2 0.382970 1.000000 0.629840 0.221166
Ni2   Ni    Ni4+2 0.617030 1.000000 0.370160 0.227068
Ni3   Ni    Ni4+2 0.882970 0.500000 0.629840 0.225632
Ni4   Ni    Ni4+2 0.117030 0.500000 0.370160 0.225306
Ni5   Ni    Ni4+2 0.514540 1.000000 0.629840 0.205484
Ni6   Ni    Ni4+2 0.485460 1.000000 0.370160 0.203649
Ni7   Ni    Ni4+2 0.014540 0.500000 0.629840 0.202754
Ni8   Ni    Ni4+2 0.985460 0.500000 0.370160 0.213969
O1    O     O_3   0.753070 0.874614 0.461619 -0.616820
O2    O     O_3   0.595152 0.694038 0.706540 -0.614254
O3    O     O_3   0.663426 0.283642 0.559442 -0.599285
O4    O     O_3   0.383080 0.742662 0.279886 -0.613389
O5    O     O_3   0.855006 0.735724 0.293388 -0.619318
O6    O     O_3   0.101604 0.217344 0.720484 -0.610156
O7    O     O_3   0.169014 0.658502 0.718067 -0.626935
O8    O     O_3   0.886043 0.107562 0.452090 -0.614039
O9    O     O_3   0.185386 0.133347 0.377532 -0.613692
O10   O     O_3   0.729642 0.768034 0.662776 -0.630998
O11   O     O_3   0.703899 0.265073 0.709492 -0.614700
O12   O     O_3   0.166222 0.050440 0.590015 -0.583164
O13   O     O_3   0.226547 0.770619 0.407985 -0.612957
O14   O     O_3   0.721611 0.662752 0.336107 -0.622340
O15   O     O_3   0.252210 0.265817 0.621835 -0.616635
O16   O     O_3   0.332335 0.629820 0.591824 -0.610549
O17   O     O_3   0.848068 0.131690 0.292999 -0.621627
O18   O     O_3   0.195209 0.910659 0.031350 -0.650616
O19   O     O_3   0.749300 0.210663 0.030293 -0.634219
O20   O     O_3   0.800628 0.911050 0.966764 -0.637954
O21   O     O_3   0.260243 0.198407 0.978976 -0.638638
O22   O     O_3   0.699848 0.411367 0.032304 -0.634658
O23   O     O_3   0.209998 0.835761 0.616200 -0.601336
O24   O     O_3   0.256910 0.725313 0.062699 -0.635957
O25   O     O_3   0.291962 0.409875 0.960609 -0.628693
O26   O     O_3   0.748803 0.711334 0.969677 -0.643424
O27   O     O_3   0.724809 0.078840 0.654237 -0.616684
O28   O     O_3   0.276911 0.345381 0.413482 -0.603603
O29   O     O_3   0.699123 0.554918 0.537017 -0.576972
O30   O     O_3   0.823549 0.323594 0.352789 -0.598554
O31   O     O_3   0.343849 0.561614 0.381855 -0.590868
O32   O     O_3   0.340640 0.180871 0.282389 -0.628128

loop_
_geom_bond_atom_site_label_1
_geom_bond_atom_site_label_2
_ccdc_geom_bond_type
C73   N18   A    
C105  C110  S    
N26   N29   A    
C45   H42   S    
C110  C118  S    
C52   N23   A    
C104  C123  S    
C2    C123  S    
C102  O3    S    
N3    N11   A    
C28   H17   S    
C43   C89   S    
C45   C87   S    
C90   C107  A    
C13   C112  S    
C1    H1    S    
C94   C117  S    
C19   H124  S    
C51   O24   S    
C15   H111  S    
C60   H35   S    
C52   C84   A    
N9    Ni2   S    
C79   C90   A    
C44   C53   D    
N14   Ni4   S    
C113  C122  S    
C11   H100  S    
C46   C55   D    
C2    O10   S    
C28   H16   S    
C25   H5    S    
C81   N26   A    
C32   H30   S    
C47   C53   S    
N19   Ni5   S    
C93   C119  S    
C3    H76   S    
C107  H115  S    
C98   C123  S    
C108  C124  S    
N12   N21   A    
C78   C89   A    
C36   C106  S    
C55   O25   S    
C33   O26   S    
C37   C108  S    
C29   H18   S    
C13   C124  S    
C30   H21   S    
N31   Ni3   S    
C48   O18   S    
C1    C82   A    
C43   H40   S    
C50   O20   S    
N4    N13   A    
C17   O9    S    
N9    N32   A    
N6    N15   A    
C33   H33   S    
C127  H67   S    
C14   H109  S    
C75   C86   A    
C67   H48   S    
C126  H64   S    
C37   C121  S    
C118  O9    S    
C61   N6    A    
C20   H127  S    
C65   C91   A    
C76   N20   A    
C42   C83   S    
C77   N21   A    
N4    Ni5   S    
C69   C95   A    
N23   Ni2   S    
C97   C124  S    
C89   C96   A    
C103  C116  S    
C58   H13   S    
C6    H85   S    
C22   H134  S    
C30   O22   S    
C35   C113  S    
C25   H7    S    
C27   H11   S    
C81   C88   A    
C26   H8    S    
N18   Ni6   S    
C60   C95   A    
C25   O17   S    
C79   H61   S    
C3    H74   S    
C108  O8    S    
N28   Ni3   S    
C106  O7    S    
N11   Ni1   S    
C16   H114  S    
C2    C109  S    
C57   C92   A    
C56   H126  S    
C71   H53   S    
C126  H65   S    
C114  O29   S    
C26   H9    S    
C70   H52   S    
C29   H20   S    
C106  C125  S    
C41   H49   S    
C73   H55   S    
C40   C49   D    
C109  O1    S    
N15   Ni3   S    
N22   N30   A    
C118  C122  S    
C9    H95   S    
C81   H63   S    
C64   N8    A    
C32   H28   S    
C9    H94   S    
C19   H125  S    
C64   C99   A    
C9    O2    S    
C58   N3    A    
N2    Ni6   S    
C61   H43   S    
C60   N5    A    
C102  C121  S    
C7    H88   S    
C33   H32   S    
C20   H129  S    
C56   N32   A    
N18   N23   A    
C11   H101  S    
C77   H58   S    
C36   C120  S    
C75   H56   S    
N17   Ni4   S    
C14   H107  S    
C106  C111  S    
C12   H105  S    
N20   Ni5   S    
C65   N9    A    
C40   C82   S    
C57   H2    S    
C126  O1    S    
N10   Ni1   S    
C76   C82   A    
C8    O32   S    
C21   H131  S    
C66   C92   A    
C49   C55   S    
C68   C94   A    
C24   O13   S    
C35   C105  S    
C17   H117  S    
C85   N29   A    
C128  O23   S    
C23   H3    S    
C100  C119  S    
C39   H34   S    
C42   C50   D    
C13   O11   S    
C114  C123  S    
C16   H116  S    
C57   N2    A    
C116  C125  S    
C10   H99   S    
N24   Ni7   S    
C116  O31   S    
C36   C116  S    
C31   H26   S    
C12   H103  S    
C32   H29   S    
C85   C88   A    
C38   C84   S    
C18   O10   S    
C110  C119  S    
N12   Ni2   S    
C5    H81   S    
C24   C103  S    
N29   Ni4   S    
C92   C120  S    
C112  C121  S    
C8    H91   S    
C9    H96   S    
C19   H123  S    
N6    Ni8   S    
C10   O3    S    
C47   O19   S    
C105  C122  S    
C128  H70   S    
N13   Ni2   S    
C103  O4    S    
C91   C121  S    
C32   O25   S    
C67   C93   A    
C78   H59   S    
C52   H60   S    
C13   C102  S    
C85   H93   S    
C78   N22   A    
C76   H57   S    
C72   C99   A    
C65   H46   S    
C3    H75   S    
C103  C120  S    
C109  C117  S    
C4    H77   S    
C59   H24   S    
C50   C54   S    
N22   Ni8   S    
C31   O24   S    
C14   O6    S    
C58   C93   A    
C107  N31   A    
C30   H22   S    
C17   H119  S    
C18   H121  S    
C20   O13   S    
N25   N28   A    
C102  C115  S    
C112  O27   S    
C56   C91   A    
C10   H97   S    
C59   C94   A    
C70   C97   A    
C62   N7    A    
C100  O32   S    
C101  C114  S    
N7    Ni8   S    
C127  H69   S    
C20   H128  S    
C5    H83   S    
C4    O28   S    
C113  O28   S    
N5    Ni7   S    
C35   O15   S    
C68   N13   A    
N19   N27   A    
C36   O16   S    
C15   H112  S    
C70   N15   A    
C108  C112  S    
C44   H39   S    
C128  H72   S    
C126  H66   S    
C6    H86   S    
C22   H135  S    
C28   H15   S    
C74   N28   A    
C25   H6    S    
C99   C122  S    
N7    N16   A    
C28   O20   S    
C63   C86   A    
N25   Ni7   S    
C66   H47   S    
C66   N10   A    
C100  C118  S    
C4    H79   S    
N8    N17   A    
C115  C124  S    
C54   O26   S    
C61   C97   A    
C12   O5    S    
C26   H10   S    
C29   H19   S    
C31   H27   S    
C37   C115  S    
C3    O27   S    
N1    Ni1   S    
C101  C117  S    
C49   O21   S    
C127  H68   S    
C69   H51   S    
C5    H80   S    
C43   C51   D    
C23   H136  S    
N2    N10   A    
C68   H50   S    
C29   O21   S    
C67   N11   A    
C21   H130  S    
C96   N30   A    
C8    H90   S    
C26   O18   S    
C18   H120  S    
N16   Ni3   S    
N3    Ni6   S    
C39   C86   S    
C19   O11   S    
C64   H45   S    
C69   N14   A    
C7    H87   S    
C33   H31   S    
N1    N20   A    
C39   C48   D    
C16   O8    S    
C35   C119  S    
C14   H108  S    
C12   H106  S    
C15   H110  S    
C21   O14   S    
C59   N4    A    
C74   H82   S    
C23   O16   S    
C80   C87   A    
C104  C109  S    
C80   N25   A    
C6    H84   S    
C77   C83   A    
C22   H133  S    
C5    O29   S    
C41   C83   A    
C75   N19   A    
C27   H14   S    
C7    O31   S    
N24   N31   A    
C62   C98   A    
C48   C51   S    
C23   H4    S    
C73   C84   A    
C40   H38   S    
C16   H113  S    
C34   C117  S    
C38   H36   S    
C127  O12   S    
C63   N27   A    
C110  O12   S    
C24   C111  S    
N8    Ni7   S    
C31   H25   S    
C46   C88   S    
N32   Ni5   S    
C71   C98   A    
C27   O19   S    
C101  O2    S    
C2    C101  S    
C34   C104  S    
C111  C120  S    
N30   Ni4   S    
C8    H92   S    
C105  O6    S    
C95   C125  S    
C104  O5    S    
C1    N1    A    
C38   C47   D    
C41   N12   A    
C45   C54   D    
C11   H102  S    
C24   C125  S    
C74   C87   A    
C6    O30   S    
C34   O14   S    
C44   C90   S    
C115  O30   S    
C79   N24   A    
C11   O4    S    
C22   O15   S    
C80   H62   S    
C100  C113  S    
C37   O17   S    
C42   H37   S    
C21   H132  S    
C4    H78   S    
C72   N17   A    
C34   C114  S    
C62   H44   S    
C71   N16   A    
C46   H41   S    
N21   Ni6   S    
C72   H54   S    
C30   H23   S    
C17   H118  S    
C18   H122  S    
C53   O22   S    
C63   H71   S    
N5    N14   A    
C128  H73   S    
C96   H104  S    
N27   Ni1   S    
C7    H89   S    
C27   H12   S    
N26   Ni8   S    
C10   H98   S    
C111  O23   S    
C15   O7    S    
