data_mof_unit_21787.cif
_audit_creation_date              2012-12-10T20:48:45-0500
_audit_creation_method            fapswitch 2.2
_symmetry_space_group_name_H-M    P1
_symmetry_Int_Tables_number       1
_space_group_crystal_system       triclinic
_cell_length_a                    15.794401
_cell_length_b                    8.932222
_cell_length_c                    8.109651
_cell_angle_alpha                 89.981039
_cell_angle_beta                  89.943481
_cell_angle_gamma                 89.998209
_cell_volume                      1144.10161284

loop_
_atom_site_label
_atom_site_type_symbol
_atom_type_description
_atom_site_fract_x
_atom_site_fract_y
_atom_site_fract_z
_atom_type_partial_charge
C1    C     C_R   0.500001 0.217989 0.500017 0.931120
C2    C     C_1   0.825635 0.496552 0.499522 -0.036568
C3    C     C_1   0.174357 0.499294 0.501986 -0.037280
C4    C     C_R   0.337917 0.500052 0.500105 0.901041
C5    C     C_R   0.662083 0.499919 0.499916 0.898515
C6    C     C_1   0.499998 0.934793 0.499975 -0.177507
C7    C     C_1   0.499999 0.065181 0.500024 -0.179147
C8    C     C_R   0.499998 0.781986 0.499983 0.935643
C9    C     C_3   0.048574 0.512239 0.684976 -0.203732
C10   C     C_3   0.050566 0.345687 0.430717 -0.239813
C11   C     C_3   0.949495 0.523161 0.680511 -0.246342
C12   C     C_3   0.951510 0.338586 0.442157 -0.201565
C13   C     C_1   0.750613 0.498278 0.499692 -0.138539
C14   C     C_1   0.249383 0.499729 0.500629 -0.139177
C15   C     C_3   0.082853 0.498231 0.503736 0.226377
C16   C     C_3   0.917137 0.494960 0.500004 0.229953
C17   C     C_3   0.951528 0.618344 0.382566 -0.337987
C18   C     C_3   0.048342 0.630776 0.399505 -0.336147
H1    H     H_    0.064271 0.739308 0.458633 0.228910
H2    H     H_    0.078050 0.633966 0.275276 0.193727
H3    H     H_    0.921743 0.728570 0.408431 0.198311
H4    H     H_    0.935572 0.591749 0.252460 0.223394
H5    H     H_    0.924951 0.430352 0.759147 0.128484
H6    H     H_    0.935609 0.257371 0.541833 0.102665
H7    H     H_    0.064779 0.405375 0.748501 0.126755
H8    H     H_    0.075402 0.254341 0.510953 0.101038
N1    N     N_1   0.500000 0.500030 0.073640 -0.024137
N2    N     N_1   0.500000 0.500030 0.926360 -0.024174
O1    O     O_R   0.500000 0.285340 0.636850 -0.614974
O2    O     O_R   0.500000 0.285340 0.363150 -0.614928
O3    O     O_R   0.377140 0.500000 0.636930 -0.606678
O4    O     O_R   0.377140 0.500000 0.363070 -0.618846
O5    O     O_R   0.622860 0.500000 0.636930 -0.619641
O6    O     O_R   0.622860 0.500000 0.363070 -0.602189
O7    O     O_R   0.500000 0.714650 0.636900 -0.612879
O8    O     O_R   0.500000 0.714650 0.363100 -0.616175
Zn1   Zn    Zn3+2 0.500000 0.499990 0.682780 1.010247
Zn2   Zn    Zn3+2 0.500000 0.499990 0.317220 1.010218
C19   C     C_2   0.086773 0.312877 0.260420 0.391562
H9    H     H_    0.133908 0.225371 0.246476 0.071541
O9    O     O_2   0.064992 0.384161 0.139179 -0.599108
C20   C     C_2   0.089885 0.631850 0.792059 0.514606
H10   H     H_    0.077224 0.631945 0.923612 0.088155
O10   O     O_2   0.136243 0.728198 0.734913 -0.571965
C21   C     C_2   0.909925 0.271839 0.289481 0.496387
H11   H     H_    0.921616 0.155125 0.260030 0.053675
O11   O     O_2   0.864428 0.345286 0.198579 -0.572486
C22   C     C_2   0.913043 0.664954 0.756818 0.392208
H12   H     H_    0.867473 0.655751 0.856575 0.086287
O12   O     O_2   0.933213 0.789099 0.707443 -0.568838

loop_
_geom_bond_atom_site_label_1
_geom_bond_atom_site_label_2
_ccdc_geom_bond_type
C15   C18   S    
C6    C7    T    
O4    Zn2   S    
C2    C16   S    
C11   C16   S    
C12   H6    S    
C5    C13   S    
C17   H4    S    
C5    O6    A    
C10   H8    S    
O8    Zn2   S    
C17   C18   S    
C11   C22   S    
C9    H7    S    
C19   O9    D    
C1    C7    S    
C21   H11   S    
C9    C11   S    
C9    C20   S    
C4    O4    A    
C3    C14   T    
C20   O10   D    
N2    Zn1   S    
C10   C12   S    
C22   O12   D    
C22   H12   S    
O7    Zn1   S    
C18   H2    S    
C10   C15   S    
C21   O11   D    
C4    C14   S    
O5    Zn1   S    
C4    O3    A    
C16   C17   S    
C20   H10   S    
C1    O1    A    
N1    Zn2   S    
O1    Zn1   S    
C12   C16   S    
C19   H9    S    
C3    C15   S    
O2    Zn2   S    
C18   H1    S    
C8    O8    A    
C11   H5    S    
N1    N2    T    
C2    C13   T    
C1    O2    A    
C6    C8    S    
O6    Zn2   S    
C10   C19   S    
C17   H3    S    
O3    Zn1   S    
C9    C15   S    
C12   C21   S    
C8    O7    A    
C5    O5    A    
