data_mof_unit_38672.cif
_audit_creation_date              2012-12-11T15:28:41-0500
_audit_creation_method            fapswitch 2.2
_symmetry_space_group_name_H-M    P1
_symmetry_Int_Tables_number       1
_space_group_crystal_system       triclinic
_cell_length_a                    6.960531
_cell_length_b                    19.59405
_cell_length_c                    23.393586
_cell_angle_alpha                 96.090276
_cell_angle_beta                  91.240143
_cell_angle_gamma                 88.603891
_cell_volume                      3171.00186215

loop_
_atom_site_label
_atom_site_type_symbol
_atom_type_description
_atom_site_fract_x
_atom_site_fract_y
_atom_site_fract_z
_atom_type_partial_charge
O1    O     O_R   0.617180 0.809390 0.808140 -0.521674
O2    O     O_R   0.382820 0.190610 0.191860 -0.521675
O3    O     O_R   0.293300 0.672410 0.795490 -0.535370
O4    O     O_R   0.706700 0.327590 0.204510 -0.535364
O5    O     O_R   0.117220 0.690610 0.691850 -0.521891
O6    O     O_R   0.882780 0.309390 0.308150 -0.521893
C1    C     C_R   0.465031 0.647876 0.805320 0.696101
C2    C     C_R   0.534970 0.352124 0.194679 0.696099
O7    O     O_R   0.287840 0.807750 0.814460 -0.525063
O8    O     O_R   0.712160 0.192250 0.185540 -0.525062
O9    O     O_R   0.111720 0.826910 0.710960 -0.532614
O10   O     O_R   0.888280 0.173090 0.289040 -0.532614
C3    C     C_R   0.456522 0.830743 0.833175 0.716248
C4    C     C_R   0.543477 0.169257 0.166825 0.716241
O11   O     O_R   0.622680 0.673080 0.789040 -0.532578
O12   O     O_R   0.377320 0.326920 0.210960 -0.532577
O13   O     O_3   0.448820 0.756130 0.716020 -0.359190
O14   O     O_3   0.551180 0.243870 0.283980 -0.359191
V1    V     V_3+5 0.176220 0.748860 0.756300 1.416260
V2    V     V_3+5 0.823780 0.251140 0.243700 1.416268
O15   O     O_R   0.781670 0.827580 0.704500 -0.534877
O16   O     O_R   0.218330 0.172420 0.295500 -0.534878
C5    C     C_R   0.947714 0.851821 0.694108 0.696036
C6    C     C_R   0.052286 0.148179 0.305892 0.696034
O17   O     O_R   0.787130 0.692240 0.685530 -0.525542
O18   O     O_R   0.212870 0.307760 0.314470 -0.525540
C7    C     C_R   0.956087 0.669236 0.666795 0.715364
C8    C     C_R   0.043913 0.330764 0.333205 0.715371
V3    V     V_3+5 0.675510 0.751130 0.743690 1.417579
V4    V     V_3+5 0.324490 0.248870 0.256310 1.417584
O19   O     O_3   0.952780 0.743870 0.783980 -0.358325
O20   O     O_3   0.047220 0.256130 0.216020 -0.358325
C9    C     C_1   0.966592 0.617174 0.614739 -0.218976
C10   C     C_1   0.033408 0.382826 0.385261 -0.218974
C11   C     C_1   0.978162 0.573660 0.571923 -0.002614
C12   C     C_1   0.021838 0.426340 0.428077 -0.002614
C13   C     C_1   0.993411 0.521859 0.521316 -0.004152
C14   C     C_1   0.006589 0.478141 0.478684 -0.004152
C15   C     C_R   0.945789 0.913971 0.663442 -0.046682
C16   C     C_R   0.054210 0.086029 0.336558 -0.046681
C17   C     C_R   0.859219 0.034183 0.663013 -0.161329
C18   C     C_R   0.140779 0.965817 0.336987 -0.161330
C19   C     C_R   0.877815 0.975781 0.691859 -0.165383
C20   C     C_R   0.122184 0.024219 0.308141 -0.165383
C21   C     C_R   0.994779 0.910899 0.605112 -0.215113
C22   C     C_R   0.005221 0.089101 0.394888 -0.215112
C23   C     C_R   0.973284 0.969735 0.574118 0.086825
C24   C     C_R   0.026716 0.030265 0.425881 0.086825
C25   C     C_R   0.904561 0.031677 0.604663 0.138941
C26   C     C_R   0.095437 0.968322 0.395337 0.138941
C27   C     C_R   0.014311 0.969282 0.514048 0.057678
C28   C     C_R   0.985688 0.030718 0.485952 0.057678
C29   C     C_R   0.917678 0.090543 0.518907 -0.186806
C30   C     C_R   0.082321 0.909457 0.481093 -0.186806
C31   C     C_R   0.878661 0.090832 0.576861 -0.200891
C32   C     C_R   0.121337 0.909168 0.423139 -0.200892
H1    H     H_    0.826016 0.138125 0.600203 0.123485
H2    H     H_    0.173981 0.861875 0.399797 0.123485
H3    H     H_    0.956481 0.138346 0.414876 0.095497
H4    H     H_    0.043519 0.861654 0.585124 0.095498
H5    H     H_    0.162557 0.021348 0.263456 0.107940
H6    H     H_    0.837442 0.978652 0.736544 0.107940
H7    H     H_    0.805991 0.081413 0.686272 0.114147
H8    H     H_    0.194006 0.918586 0.313727 0.114147
H9    H     H_    0.892131 0.138487 0.501147 0.123901
H10   H     H_    0.107867 0.861513 0.498853 0.123901
C33   C     C_R   0.485741 0.585519 0.835263 -0.045421
C34   C     C_R   0.514282 0.414479 0.164734 -0.045388
C35   C     C_R   0.593228 0.467302 0.832860 -0.159779
C36   C     C_R   0.407110 0.532732 0.167156 -0.159759
C37   C     C_R   0.554852 0.525348 0.804928 -0.174315
C38   C     C_R   0.445443 0.474680 0.195085 -0.174344
C39   C     C_R   0.455342 0.587417 0.894502 -0.200294
C40   C     C_R   0.544491 0.412560 0.105485 -0.200262
C41   C     C_R   0.497619 0.529135 0.924912 0.061246
C42   C     C_R   0.502367 0.470860 0.075085 0.061252
C43   C     C_R   0.567866 0.468127 0.892675 0.122776
C44   C     C_R   0.432306 0.531889 0.107332 0.122767
C45   C     C_R   0.475704 0.529899 0.986032 0.009911
C46   C     C_R   0.524284 0.470098 0.013965 0.009910
C47   C     C_R   0.592796 0.411150 0.979970 -0.172993
C48   C     C_R   0.407301 0.588859 0.020033 -0.172986
C49   C     C_R   0.614210 0.409315 0.920620 0.142155
C50   C     C_R   0.386001 0.590706 0.079389 0.142162
H11   H     H_    0.594625 0.364010 0.084661 0.093922
H12   H     H_    0.404923 0.635936 0.915310 0.093969
H13   H     H_    0.419396 0.476560 0.240743 0.108198
H14   H     H_    0.581059 0.523487 0.759281 0.108214
H15   H     H_    0.646502 0.422141 0.806909 0.128916
H16   H     H_    0.354020 0.577914 0.193117 0.128912
H17   H     H_    0.632541 0.364878 0.998528 0.125205
H18   H     H_    0.367656 0.635145 0.001480 0.125192
C51   C     C_1   0.467264 0.882808 0.885235 -0.217913
C52   C     C_1   0.532736 0.117192 0.114765 -0.217913
C53   C     C_1   0.478691 0.926326 0.928060 -0.001517
C54   C     C_1   0.521308 0.073674 0.071940 -0.001517
C55   C     C_1   0.493583 0.978137 0.978678 -0.002860
C56   C     C_1   0.506417 0.021863 0.021322 -0.002860
C57   C     C_3   0.689035 0.343492 0.888072 -0.803519
H19   H     H_    0.717315 0.302331 0.916553 0.210002
H20   H     H_    0.581549 0.324069 0.854897 0.207841
H21   H     H_    0.826360 0.352978 0.867267 0.211446
C58   C     C_3   0.311353 0.656550 0.111947 -0.803527
H22   H     H_    0.283061 0.697710 0.083465 0.210003
H23   H     H_    0.174068 0.647098 0.132787 0.211444
H24   H     H_    0.418950 0.675955 0.145093 0.207841

loop_
_geom_bond_atom_site_label_1
_geom_bond_atom_site_label_2
_ccdc_geom_bond_type
C21   H4    S    
C22   H3    S    
C36   C44   A    
C39   C41   A    
C35   C43   A    
O4    C2    A    
V1    O19   S    
C55   C56   T    
C23   C25   A    
C7    C9    S    
C16   C22   A    
O9    V1    S    
C40   C42   A    
C11   C13   S    
C42   C44   A    
O5    V1    S    
O3    C1    A    
C9    C11   T    
C43   C49   A    
C34   C40   A    
C48   H18   S    
C21   C23   A    
C35   C37   A    
O7    C3    A    
C6    C16   S    
O5    C7    A    
O7    V1    S    
O6    C8    A    
O8    V2    S    
C54   C56   S    
O3    V1    S    
C33   C39   A    
C29   H9    S    
O14   V2    S    
C15   C21   A    
C24   C26   A    
C8    C10   S    
C51   C53   T    
C49   C57   S    
C17   C19   A    
C36   H16   S    
C18   C20   A    
C35   H15   S    
C17   C25   A    
C47   C49   A    
O11   V3    S    
C30   C32   A    
C29   C31   A    
O17   V3    S    
C22   C24   A    
C27   C28   A    
O8    C4    A    
C15   C19   A    
C1    O11   A    
C25   C31   A    
O15   V3    S    
C26   C32   A    
C45   C46   A    
C3    C51   S    
O4    V2    S    
C13   C14   T    
C57   H19   S    
C16   C20   A    
C34   C38   A    
O10   V2    S    
O1    V3    S    
C58   H23   S    
C52   C54   T    
C41   C43   A    
C18   C26   A    
O14   V4    S    
C57   H20   S    
C2    C34   S    
C48   C50   A    
C31   H1    S    
O16   C6    A    
O1    C3    A    
C17   H7    S    
O12   V4    S    
C12   C14   S    
C18   H8    S    
C38   H13   S    
C28   C29   A    
V2    O20   S    
O16   V4    S    
C42   C46   A    
C46   C47   A    
C45   C48   A    
C23   C27   A    
C53   C55   S    
O18   V4    S    
C30   H10   S    
C20   H5    S    
O17   C7    A    
O6    V2    S    
O10   C6    A    
O18   C8    A    
O2    V4    S    
C27   C30   A    
O15   C5    A    
V3    O19   S    
O13   V3    S    
V4    O20   S    
C5    C15   S    
O9    C5    A    
O13   V1    S    
C10   C12   T    
C32   H2    S    
C58   H24   S    
C33   C37   A    
C40   H11   S    
O2    C4    A    
C39   H12   S    
C1    C33   S    
C37   H14   S    
C47   H17   S    
C44   C50   A    
C24   C28   A    
C57   H21   S    
C2    O12   A    
C58   H22   S    
C50   C58   S    
C36   C38   A    
C41   C45   A    
C4    C52   S    
C19   H6    S    
