data_mof_unit_26418.cif
_audit_creation_date              2013-03-05T16:23:15-0500
_audit_creation_method            fapswitch 2.2
_symmetry_space_group_name_H-M    P1
_symmetry_Int_Tables_number       1
_space_group_crystal_system       triclinic
_cell_length_a                    27.376964
_cell_length_b                    10.678523
_cell_length_c                    9.921389
_cell_angle_alpha                 89.330703
_cell_angle_beta                  90.986046
_cell_angle_gamma                 89.875834
_cell_volume                      2899.8383116

loop_
_atom_site_label
_atom_site_type_symbol
_atom_site_description
_atom_site_fract_x
_atom_site_fract_y
_atom_site_fract_z
_atom_type_partial_charge
O1    O     O_R   0.500000 0.313960 0.616610 -0.607919
O2    O     O_R   0.500000 0.686040 0.383390 -0.588275
O3    O     O_R   0.500020 0.313950 0.383350 -0.592096
O4    O     O_R   0.499980 0.686050 0.616650 -0.583954
C1    C     C_R   0.499788 0.257597 0.500863 0.994734
C2    C     C_R   0.501726 0.741817 0.499207 0.970918
O5    O     O_R   0.428750 0.500030 0.616610 -0.602645
O6    O     O_R   0.571250 0.499970 0.383390 -0.630031
O7    O     O_R   0.428770 0.500020 0.383360 -0.610632
O8    O     O_R   0.571230 0.499980 0.616640 -0.559452
C3    C     C_R   0.405900 0.502072 0.498455 0.926928
C4    C     C_R   0.593696 0.500762 0.500402 0.967481
Zn1   Zn    Zn3+2 0.499990 0.500010 0.655740 1.044564
Zn2   Zn    Zn3+2 0.500010 0.499990 0.344260 1.028110
C5    C     C_R   0.173317 0.381769 0.437891 0.549302
C6    C     C_R   0.825250 0.626268 0.446491 0.544712
O9    O     O_2   0.197228 0.275581 0.472391 -0.491589
O10   O     O_2   0.803951 0.724854 0.505265 -0.500593
N1    N     N_R   0.198983 0.491213 0.431582 -0.360662
N2    N     N_R   0.798450 0.519767 0.425782 -0.354984
C7    C     C_R   0.177637 0.602037 0.394262 0.544310
C8    C     C_R   0.818823 0.414758 0.372372 0.540664
C9    C     C_R   0.270444 0.532794 0.575985 -0.119780
C10   C     C_R   0.728108 0.425079 0.540034 -0.117216
C11   C     C_R   0.321262 0.541251 0.594531 -0.080455
C12   C     C_R   0.677499 0.414267 0.556623 -0.117730
C13   C     C_R   0.330828 0.455969 0.369384 -0.160044
C14   C     C_R   0.666611 0.603399 0.418326 -0.201538
C15   C     C_R   0.280688 0.449877 0.352400 -0.075624
C16   C     C_R   0.716365 0.608471 0.396721 -0.063323
C17   C     C_R   0.250501 0.488538 0.455105 0.273961
C18   C     C_R   0.747423 0.519299 0.456850 0.255817
C19   C     C_R   0.100109 0.495890 0.370612 -0.083693
C20   C     C_R   0.896823 0.519794 0.364452 -0.083497
C21   C     C_R   0.122747 0.380723 0.407909 -0.103491
C22   C     C_R   0.874774 0.631379 0.409925 -0.098681
C23   C     C_R   0.093672 0.271063 0.415432 0.250777
C24   C     C_R   0.903581 0.741291 0.420392 0.247907
C25   C     C_R   0.127823 0.606722 0.362857 -0.034739
C26   C     C_R   0.868680 0.411097 0.345788 -0.029180
C27   C     C_R   0.352086 0.500518 0.489901 -0.116691
C28   C     C_R   0.646756 0.506942 0.496969 -0.081074
H1    H     H_    0.353006 0.425628 0.286588 0.212378
H2    H     H_    0.643161 0.673084 0.369857 0.179041
H3    H     H_    0.265141 0.417026 0.258148 0.167210
H4    H     H_    0.730697 0.680381 0.330568 0.176167
C29   C     C_R   0.970413 0.398999 0.317483 0.005621
C30   C     C_R   0.026256 0.619134 0.324579 0.008025
C31   C     C_R   0.975422 0.625906 0.347219 0.040348
C32   C     C_R   0.021392 0.390777 0.343415 0.037654
C33   C     C_R   0.947436 0.515350 0.341150 0.076016
C34   C     C_R   0.049364 0.501589 0.344482 0.075806
C35   C     C_R   0.941006 0.295438 0.279481 -0.079087
C36   C     C_R   0.055380 0.725014 0.293766 -0.081857
C37   C     C_R   0.890498 0.302003 0.297354 -0.151543
C38   C     C_R   0.105738 0.718797 0.318805 -0.150852
O11   O     O_2   0.790789 0.314028 0.344928 -0.525329
O12   O     O_2   0.204830 0.707172 0.386818 -0.510969
C39   C     C_R   0.044002 0.277545 0.382798 -0.175044
C40   C     C_R   0.952944 0.737036 0.388919 -0.176688
H5    H     H_    0.752630 0.356065 0.585144 0.196375
H6    H     H_    0.246065 0.565532 0.653050 0.172073
H7    H     H_    0.868111 0.221814 0.271839 0.232547
H8    H     H_    0.127938 0.800850 0.299862 0.233362
H9    H     H_    0.022600 0.193650 0.396959 0.169426
H10   H     H_    0.974212 0.820792 0.405303 0.167543
C41   C     C_3   0.501943 0.036376 0.628842 0.194806
C42   C     C_3   0.503549 0.961519 0.371953 0.221747
C43   C     C_3   0.543015 0.958947 0.565425 -0.129015
C44   C     C_3   0.462319 0.038171 0.435001 -0.116728
C45   C     C_3   0.504352 0.876898 0.497528 -0.140080
C46   C     C_3   0.500490 0.121598 0.503009 -0.144764
C47   C     C_3   0.463080 0.952436 0.560744 -0.233464
C48   C     C_3   0.542249 0.046110 0.440527 -0.239572
H11   H     H_    0.430603 0.911614 0.610281 0.227314
H12   H     H_    0.574761 0.087526 0.391742 0.226591
C49   C     C_3   0.499321 0.388441 0.049517 -0.042645
C50   C     C_3   0.500487 0.611594 0.951012 -0.026884
C51   C     C_3   0.537433 0.442128 0.955262 -0.033326
C52   C     C_3   0.462394 0.557945 0.045602 -0.040156
N3    N     N_3   0.499960 0.500030 0.863290 -0.152630
N4    N     N_3   0.500040 0.499970 0.136710 -0.155846
C53   C     C_3   0.461264 0.445362 0.950210 -0.145052
C54   C     C_3   0.538385 0.554602 0.050144 -0.135232
H13   H     H_    0.428736 0.398828 0.905091 0.205116
H14   H     H_    0.570893 0.601097 0.095512 0.192697
I1    I     I_    0.493021 0.096997 0.828120 -0.214442
I2    I     I_    0.518913 0.904923 0.174010 -0.205030
C55   C     C_2   0.584806 0.388829 0.910210 0.983305
O13   O     O_2   0.592263 0.276173 0.917562 -0.565061
O14   O     O_R   0.621874 0.470682 0.871390 -0.775728
H15   H     H_    0.654419 0.427021 0.860985 0.351019
C56   C     C_2   0.417816 0.619968 0.099639 0.967638
O15   O     O_2   0.377436 0.577847 0.072538 -0.595188
O16   O     O_R   0.422473 0.724299 0.182017 -0.742657
H16   H     H_    0.389777 0.755900 0.214058 0.378233
C57   C     C_2   0.494706 0.260703 0.107031 1.029800
O17   O     O_2   0.530817 0.205803 0.151286 -0.578237
O18   O     O_R   0.448812 0.204075 0.106117 -0.776578
H17   H     H_    0.450353 0.112417 0.131603 0.366188
C58   C     C_2   0.507045 0.739219 0.895200 1.024807
O19   O     O_2   0.471607 0.801763 0.860263 -0.619125
O20   O     O_R   0.554299 0.787250 0.888335 -0.754911
H18   H     H_    0.554769 0.879842 0.867500 0.368533
I3    I     I_    0.117764 0.089530 0.480654 -0.144441
I4    I     I_    0.878694 0.922324 0.478099 -0.142593
C59   C     C_2   0.657978 0.301331 0.626260 0.958532
O21   O     O_2   0.684470 0.238577 0.701283 -0.545462
O22   O     O_R   0.609511 0.265294 0.605020 -0.819062
H19   H     H_    0.598616 0.197765 0.669722 0.395269
C60   C     C_2   0.339715 0.601381 0.718906 0.952405
O23   O     O_2   0.320328 0.578209 0.826441 -0.561355
O24   O     O_R   0.377017 0.690204 0.712574 -0.779692
H20   H     H_    0.384563 0.728056 0.803701 0.378742
C61   C     C_2   0.960706 0.187799 0.203726 0.923583
O25   O     O_2   0.940752 0.085594 0.209876 -0.609382
O26   O     O_R   0.001151 0.204702 0.121240 -0.762397
H21   H     H_    0.010491 0.125744 0.072146 0.367147
C62   C     C_2   0.035573 0.834422 0.216386 0.924130
O27   O     O_2   0.055509 0.936504 0.223960 -0.609252
O28   O     O_R   0.995128 0.819075 0.130110 -0.761360
H22   H     H_    0.986036 0.898631 0.078943 0.369768
C63   C     C_2   0.589927 0.909327 0.626603 0.951867
O29   O     O_2   0.618396 0.980051 0.683010 -0.560557
O30   O     O_R   0.601165 0.782121 0.617910 -0.801010
H23   H     H_    0.633513 0.759921 0.663499 0.376301
C64   C     C_2   0.414382 0.073804 0.370935 0.960503
O31   O     O_2   0.388994 0.993051 0.318917 -0.583215
O32   O     O_R   0.398309 0.197769 0.373156 -0.799925
H24   H     H_    0.365080 0.208135 0.327844 0.357192

loop_
_geom_bond_atom_site_label_1
_geom_bond_atom_site_label_2
_geom_bond_distance
_ccdc_geom_bond_type
C44   C64   1.494863 S    
C58   O19   1.219698 D    
C13   C15   1.381882 A    
C47   H11   1.110782 S    
C35   C37   1.398821 A    
O16   H16   1.013486 S    
N1    C17   1.425784 S    
C8    O11   1.350343 S    
C64   O32   1.394613 S    
C57   O17   1.220791 D    
C63   O29   1.220010 D    
C19   C34   1.409895 A    
C5    N1    1.366327 A    
C20   C33   1.409486 A    
C10   H5    1.083483 S    
C31   C40   1.405432 A    
C48   H12   1.110684 S    
O1    C1    1.302676 A    
C32   C39   1.405446 A    
C21   C23   1.419318 A    
C54   H14   1.111078 S    
O32   H24   1.013041 S    
C1    C46   1.452263 S    
C51   C54   1.534620 S    
C50   C52   1.523230 S    
C63   O30   1.396100 S    
C43   C63   1.503770 S    
C42   C48   1.547599 S    
C61   O25   1.222901 D    
Zn1   N3    2.059200 S    
C41   C46   1.536212 S    
C14   C28   1.401240 A    
O4    Zn1   2.019680 S    
C43   C45   1.528107 S    
C4    C28   1.455223 S    
C57   O18   1.395504 S    
C9    H6    1.084004 S    
C60   O23   1.222736 D    
C61   O26   1.398893 S    
C37   H7    1.083948 S    
C32   C34   1.410905 A    
C59   O21   1.223425 D    
C38   H8    1.083902 S    
C49   C57   1.478931 S    
C41   C47   1.544497 S    
C55   O14   1.396980 S    
C6    N2    1.370336 A    
C29   C35   1.420004 A    
C49   C51   1.521663 S    
C40   H10   1.080633 S    
C58   O20   1.395132 S    
C36   C62   1.486730 S    
C50   C58   1.477511 S    
C59   O22   1.395556 S    
O2    C2    1.300613 A    
C52   C53   1.538757 S    
C5    C21   1.411129 A    
N3    C53   1.493014 S    
O5    C3    1.319122 A    
C29   C32   1.417172 A    
C62   O28   1.398937 S    
C2    C45   1.444324 S    
C36   C38   1.397918 A    
C46   C48   1.540509 S    
C11   C27   1.420584 A    
O14   H15   1.012112 S    
C51   N3    1.489716 S    
C29   C33   1.415281 A    
C31   C33   1.410112 A    
C14   H2    1.084470 S    
C15   H3    1.083176 S    
C41   C43   1.541527 S    
C9    C17   1.396996 A    
C24   I4    2.136049 S    
C30   C36   1.418372 A    
O7    Zn2   1.995074 S    
C10   C18   1.403924 A    
C23   I3    2.135889 S    
C50   C54   1.536992 S    
C13   C27   1.408990 A    
C25   C38   1.401593 A    
C7    C25   1.394318 A    
C30   C34   1.414640 A    
O6    C4    1.304276 A    
C26   C37   1.401704 A    
C8    C26   1.395169 A    
C44   C47   1.538612 S    
C43   C48   1.540898 S    
C60   O24   1.396960 S    
C56   O15   1.221257 D    
C19   C25   1.409286 A    
O7    C3    1.312082 A    
O28   H22   1.012945 S    
C23   C39   1.393776 A    
O3    Zn2   2.019682 S    
O8    C4    1.316259 A    
C24   C40   1.393001 A    
O4    C2    1.304005 A    
C30   C31   1.415322 A    
C53   H13   1.110740 S    
N2    C8    1.367709 A    
N4    C54   1.483900 S    
O30   H23   1.013842 S    
C42   I2    2.110453 S    
C20   C26   1.406840 A    
O1    Zn1   2.028762 S    
Zn2   N4    2.059201 S    
C64   O31   1.222154 D    
C12   C28   1.415476 A    
C45   C47   1.533925 S    
O24   H20   1.012890 S    
N2    C18   1.435747 S    
C5    O9    1.345907 S    
O6    Zn2   1.982037 S    
N1    C7    1.363251 A    
C16   H4    1.082940 S    
C6    O10   1.346006 S    
C10   C12   1.402919 A    
O3    C1    1.305888 A    
O8    Zn1   1.995078 S    
C12   C59   1.487741 S    
C62   O27   1.222657 D    
C41   I1    2.105604 S    
O18   H17   1.008650 S    
C14   C16   1.383590 A    
C55   O13   1.220896 D    
C7    O12   1.350433 S    
C15   C17   1.388912 A    
O26   H21   1.013154 S    
C6    C22   1.410526 A    
C16   C18   1.396905 A    
C50   N3    1.483519 S    
C56   O16   1.394198 S    
C49   N4    1.480116 S    
C42   C45   1.530331 S    
C22   C24   1.419277 A    
C19   C21   1.418329 A    
C52   N4    1.488165 S    
C3    C27   1.474388 S    
C20   C22   1.416527 A    
C9    C11   1.403436 A    
O2    Zn2   2.028760 S    
C51   C55   1.492814 S    
C11   C60   1.479405 S    
C13   H1    1.082095 S    
O5    Zn1   1.982032 S    
C42   C44   1.538692 S    
O20   H18   1.007916 S    
C49   C53   1.540664 S    
C44   C46   1.527992 S    
C52   C56   1.497591 S    
O22   H19   1.008844 S    
C39   H9    1.080652 S    
C35   C61   1.486079 S    
