data_mof_unit_39924.cif
_audit_creation_date              2012-12-10T18:13:35-0500
_audit_creation_method            fapswitch 2.2
_symmetry_space_group_name_H-M    P1
_symmetry_Int_Tables_number       1
_space_group_crystal_system       triclinic
_cell_length_a                    12.636523
_cell_length_b                    13.236826
_cell_length_c                    16.500421
_cell_angle_alpha                 89.917509
_cell_angle_beta                  97.825591
_cell_angle_gamma                 97.533037
_cell_volume                      2710.30326802

loop_
_atom_site_label
_atom_site_type_symbol
_atom_type_description
_atom_site_fract_x
_atom_site_fract_y
_atom_site_fract_z
_atom_type_partial_charge
C1    C     C_R   0.558731 0.690693 0.518267 0.930477
C2    C     C_R   0.476837 0.488270 0.737804 -0.146003
C3    C     C_R   0.268084 0.058507 0.502159 -0.180988
C4    C     C_R   0.509528 0.487021 0.348662 0.889443
C5    C     C_R   0.403016 0.200535 0.485063 -0.046256
C6    C     C_R   0.701677 0.842689 0.562433 0.438777
C7    C     C_R   0.729276 0.947461 0.556265 -0.201008
C8    C     C_R   0.651097 0.010333 0.534715 -0.255352
C9    C     C_R   0.540501 0.971229 0.525511 0.086534
C10   C     C_R   0.511420 0.866504 0.538153 0.020621
C11   C     C_R   0.457812 0.033904 0.508452 0.102217
C12   C     C_R   0.583144 0.401795 0.233010 -0.187747
C13   C     C_R   0.349148 0.995112 0.514778 0.159574
C14   C     C_R   0.323583 0.894927 0.536992 -0.248334
C15   C     C_R   0.403444 0.832382 0.549797 -0.118538
C16   C     C_R   0.440131 0.309135 0.488840 0.851716
C17   C     C_R   0.480662 0.135214 0.487148 -0.253127
C18   C     C_R   0.295257 0.161673 0.488531 -0.178339
C19   C     C_R   0.591859 0.799817 0.542097 -0.223334
C20   C     C_R   0.876054 0.308596 0.559795 -0.284259
C21   C     C_R   0.216921 0.639536 0.415173 -0.002107
C22   C     C_R   0.116751 0.668825 0.390267 -0.270332
C23   C     C_R   0.498204 0.376708 0.853645 -0.090806
C24   C     C_R   0.024442 0.611202 0.411340 0.039659
C25   C     C_R   0.033726 0.523919 0.461678 -0.029514
C26   C     C_R   0.138761 0.494165 0.483118 0.195634
C27   C     C_R   0.945839 0.465540 0.494112 -0.025351
C28   C     C_R   0.487511 0.503725 0.651555 0.961925
C29   C     C_R   0.957705 0.366843 0.524550 0.182317
C30   C     C_R   0.055313 0.331123 0.529194 -0.301386
C31   C     C_R   0.146501 0.399722 0.524781 -0.041956
C32   C     C_R   0.849078 0.502299 0.503520 0.054294
C33   C     C_R   0.784590 0.350735 0.568993 0.031483
C34   C     C_R   0.511725 0.399996 0.773469 -0.237010
C35   C     C_R   0.497433 0.439632 0.265969 -0.162401
C36   C     C_R   0.392117 0.417891 0.224424 -0.232662
C37   C     C_R   0.371828 0.367634 0.149314 -0.047152
C38   C     C_R   0.457787 0.339602 0.112706 -0.004586
C39   C     C_R   0.562742 0.349559 0.156572 0.435779
C40   C     C_1   0.923757 0.639046 0.371276 0.208525
C41   C     C_1   0.231040 0.375820 0.585994 0.309717
C42   C     C_1   0.692104 0.417906 0.275486 0.366575
C43   C     C_1   0.262572 0.352532 0.107380 0.215428
C44   C     C_R   0.428282 0.554505 0.783908 0.454115
C45   C     C_R   0.414626 0.529898 0.864319 -0.220706
C46   C     C_R   0.449101 0.441598 0.899268 0.105025
C47   C     C_2   0.445583 0.336809 0.023269 -0.113914
C48   C     C_2   0.443676 0.426654 0.986317 -0.175569
H1    H     H_    0.324113 0.440803 0.249978 0.188266
H2    H     H_    0.719404 0.306361 0.594590 0.136005
H3    H     H_    0.548716 0.348175 0.738754 0.170647
H4    H     H_    0.062967 0.256279 0.555188 0.150381
H5    H     H_    0.884546 0.232840 0.582721 0.146740
H6    H     H_    0.829927 0.574594 0.482035 0.184006
H7    H     H_    0.287525 0.683587 0.396587 0.160389
H8    H     H_    0.111198 0.735216 0.352110 0.164994
H9    H     H_    0.441662 0.494460 0.023157 0.166087
H10   H     H_    0.528978 0.309748 0.880083 0.169573
H11   H     H_    0.444227 0.266002 0.990047 0.199619
H12   H     H_    0.379099 0.580795 0.900883 0.189341
H13   H     H_    0.952392 0.880316 0.642582 0.361004
H14   H     H_    0.501846 0.806606 0.721194 0.390172
H15   H     H_    0.683027 0.201244 0.013820 0.393603
H16   H     H_    0.232974 0.210901 0.483399 0.158598
H17   H     H_    0.241897 0.865006 0.545710 0.180402
H18   H     H_    0.184857 0.029325 0.506598 0.145949
H19   H     H_    0.559723 0.166160 0.474392 0.159875
H20   H     H_    0.680165 0.090405 0.532496 0.150973
H21   H     H_    0.812615 0.981647 0.569000 0.165766
H22   H     H_    0.379001 0.758276 0.572779 0.255433
N1    N     N_R   0.774070 0.445420 0.541180 -0.104953
N2    N     N_R   0.226730 0.554050 0.459240 -0.128212
N3    N     N_1   0.843717 0.662351 0.338677 -0.169916
N4    N     N_1   0.292476 0.348702 0.637234 -0.226595
N5    N     N_1   0.779388 0.429736 0.309219 -0.171789
N6    N     N_1   0.175184 0.340481 0.073809 -0.143252
O1    O     O_R   0.631480 0.627510 0.519670 -0.547949
O2    O     O_2   0.866649 0.744889 0.538342 -0.367570
O3    O     O_3   0.893572 0.851012 0.673059 -0.510568
O4    O     O_2   0.297869 0.654672 0.681395 -0.295985
O5    O     O_2   0.367294 0.736420 0.814333 -0.289138
O6    O     O_3   0.500494 0.733604 0.707408 -0.594760
O7    O     O_2   0.727272 0.392143 0.070414 -0.281274
O8    O     O_2   0.748032 0.264085 0.176723 -0.276347
O9    O     O_3   0.621542 0.210687 0.043129 -0.569483
O10   O     O_R   0.455770 0.662400 0.493360 -0.643891
O11   O     O_R   0.598240 0.480510 0.398910 -0.619851
O12   O     O_R   0.422540 0.515400 0.372600 -0.619448
O13   O     O_R   0.544230 0.337600 0.506640 -0.641957
O14   O     O_R   0.368520 0.372490 0.480330 -0.634467
O15   O     O_R   0.577460 0.484600 0.627400 -0.594019
O16   O     O_R   0.401760 0.519490 0.601090 -0.579703
O17   O     O_2   0.765905 0.681731 0.649649 -0.212559
S1    S     S_3+6 0.807186 0.774888 0.605390 0.049597
S2    S     S_3+6 0.394063 0.672546 0.746495 0.016207
S3    S     S_3+6 0.669537 0.304657 0.112091 0.029373
Zn1   Zn    Zn3+2 0.617320 0.476700 0.517570 1.009876
Zn2   Zn    Zn3+2 0.382680 0.523300 0.482430 0.969713

loop_
_geom_bond_atom_site_label_1
_geom_bond_atom_site_label_2
_ccdc_geom_bond_type
C23   H10   S    
C45   H12   S    
C16   O14   A    
O17   S1    D    
C27   C29   A    
C1    O1    A    
C35   C36   A    
O16   Zn2   S    
C7    C8    A    
C4    O11   A    
N2    Zn2   S    
C45   C46   A    
C6    C19   A    
N1    Zn1   S    
C42   N5    T    
C37   C38   A    
C36   C37   A    
O2    S1    D    
C10   C15   A    
C30   C31   A    
O5    S2    D    
O9    S3    S    
C5    C17   A    
C43   N6    T    
C26   N2    A    
C40   N3    T    
C3    C18   A    
O8    S3    D    
C5    C16   S    
C12   C42   S    
C41   N4    T    
C2    C44   A    
C8    C9    A    
C6    S1    S    
O1    Zn1   S    
C9    C10   A    
C3    C13   A    
C2    C34   A    
H14   O6    S    
C4    C35   S    
C16   O13   A    
C23   C46   A    
C21   C22   A    
H15   O9    S    
C32   H6    S    
C32   N1    A    
C20   C29   A    
C46   C48   S    
C1    C19   S    
C17   H19   S    
C21   N2    A    
C48   H9    S    
C24   C25   A    
O3    S1    S    
C21   H7    S    
C22   H8    S    
C5    C18   A    
C33   H2    S    
O13   Zn1   S    
C12   C35   A    
C37   C43   S    
C29   C30   A    
C47   C48   D    
C10   C19   A    
C23   C34   A    
C34   H3    S    
C28   O16   A    
O15   Zn1   S    
O4    S2    D    
C9    C11   A    
C38   C47   S    
C20   C33   A    
C8    H20   S    
C22   C24   A    
C3    H18   S    
C44   C45   A    
C1    O10   A    
C15   H22   S    
C30   H4    S    
C11   C17   A    
O6    S2    S    
C31   C41   S    
C27   C32   A    
C20   H5    S    
C7    H21   S    
C6    C7    A    
C4    O12   A    
C25   C27   A    
C12   C39   A    
C25   C26   A    
C44   S2    S    
C11   C13   A    
C18   H16   S    
C38   C39   A    
H13   O3    S    
O7    S3    D    
C24   C40   S    
C14   H17   S    
C28   O15   A    
O10   Zn2   S    
C39   S3    S    
C33   N1    A    
C47   H11   S    
C26   C31   A    
C14   C15   A    
C2    C28   S    
C13   C14   A    
O14   Zn2   S    
O12   Zn2   S    
C36   H1    S    
O11   Zn1   S    
