data_mof_unit_54254.cif
_audit_creation_date              2013-03-05T16:21:59-0500
_audit_creation_method            fapswitch 2.2
_symmetry_space_group_name_H-M    P1
_symmetry_Int_Tables_number       1
_space_group_crystal_system       triclinic
_cell_length_a                    23.091025
_cell_length_b                    30.516601
_cell_length_c                    8.88425
_cell_angle_alpha                 89.676908
_cell_angle_beta                  95.689226
_cell_angle_gamma                 89.998442
_cell_volume                      6229.43473413

loop_
_atom_site_label
_atom_site_type_symbol
_atom_site_description
_atom_site_fract_x
_atom_site_fract_y
_atom_site_fract_z
_atom_type_partial_charge
P1    P     P_3+3 0.880180 0.450420 0.058010 0.603090
P2    P     P_3+3 0.880180 0.549580 0.558010 0.597932
P3    P     P_3+3 0.380180 0.950420 0.058010 0.602344
P4    P     P_3+3 0.380180 0.049580 0.558010 0.595386
O1    O     O_2   0.885810 0.435270 0.885040 -0.281820
O2    O     O_2   0.885810 0.564730 0.385040 -0.258265
O3    O     O_2   0.385810 0.935270 0.885040 -0.285210
O4    O     O_2   0.385810 0.064730 0.385040 -0.261857
O5    O     O_3   0.933490 0.477290 0.133000 -0.319232
O6    O     O_3   0.933490 0.522710 0.633000 -0.337975
O7    O     O_3   0.433490 0.977290 0.133000 -0.317265
O8    O     O_3   0.433490 0.022710 0.633000 -0.337659
O9    O     O_3   0.980190 0.395350 0.639000 -0.296281
O10   O     O_3   0.980190 0.604650 0.139000 -0.301292
O11   O     O_3   0.480190 0.895350 0.639000 -0.296037
O12   O     O_3   0.480190 0.104650 0.139000 -0.301339
O13   O     O_2   0.881983 0.365325 0.698489 -0.200407
O14   O     O_2   0.883602 0.632095 0.210834 -0.184204
O15   O     O_2   0.382532 0.865543 0.703281 -0.200774
O16   O     O_2   0.383606 0.131355 0.213187 -0.186606
O17   O     O_3   0.815043 0.482150 0.043888 -0.552154
O18   O     O_3   0.816899 0.516797 0.544849 -0.599761
O19   O     O_3   0.315071 0.982116 0.044042 -0.552334
O20   O     O_3   0.316926 0.016750 0.545277 -0.601562
O21   O     O_3   0.951025 0.301827 0.689507 -0.507110
O22   O     O_3   0.951377 0.696939 0.191866 -0.507671
O23   O     O_3   0.451823 0.802246 0.688403 -0.503264
O24   O     O_3   0.451075 0.196297 0.190899 -0.502622
C1    C     C_3   0.011181 0.236020 0.711759 0.088178
C2    C     C_3   0.011706 0.762756 0.202979 0.093360
C3    C     C_3   0.511475 0.736218 0.700850 0.082600
C4    C     C_3   0.508879 0.263106 0.193659 0.088753
H1    H     H_    0.029427 0.246116 0.826087 0.160021
H2    H     H_    0.031176 0.753547 0.317518 0.156348
H3    H     H_    0.532119 0.745267 0.814132 0.149306
H4    H     H_    0.531156 0.254935 0.306352 0.146054
P5    P     P_3+3 0.119600 0.450040 0.631910 0.647175
P6    P     P_3+3 0.119600 0.549960 0.131910 0.645188
P7    P     P_3+3 0.619600 0.950040 0.631910 0.637195
P8    P     P_3+3 0.619600 0.049960 0.131910 0.634422
P9    P     P_3+3 0.071916 0.355327 0.084901 0.644406
P10   P     P_3+3 0.072588 0.644317 0.581265 0.643251
P11   P     P_3+3 0.573699 0.856216 0.081236 0.640169
P12   P     P_3+3 0.573410 0.143846 0.578797 0.641427
O25   O     O_2   0.113920 0.434910 0.804950 -0.278187
O26   O     O_2   0.113920 0.565090 0.304950 -0.275984
O27   O     O_2   0.613920 0.934910 0.804950 -0.279907
O28   O     O_2   0.613920 0.065090 0.304950 -0.278719
O29   O     O_3   0.019410 0.395290 0.051170 -0.347302
O30   O     O_3   0.019410 0.604710 0.551170 -0.337166
O31   O     O_3   0.519410 0.895290 0.051170 -0.348295
O32   O     O_3   0.519410 0.104710 0.551170 -0.341515
O33   O     O_2   0.110566 0.363191 0.955601 -0.217801
O34   O     O_2   0.112644 0.635748 0.455478 -0.225068
O35   O     O_2   0.613957 0.865285 0.955887 -0.225828
O36   O     O_2   0.613568 0.134701 0.453597 -0.226724
O37   O     O_3   0.191794 0.472433 0.656328 -0.518355
O38   O     O_3   0.190793 0.528090 0.169308 -0.517187
O39   O     O_3   0.691410 0.970896 0.660738 -0.570002
O40   O     O_3   0.691462 0.028999 0.160285 -0.569835
O41   O     O_3   0.039291 0.304713 0.033546 -0.482508
O42   O     O_3   0.039954 0.694725 0.525366 -0.488070
O43   O     O_3   0.542894 0.805155 0.027658 -0.486340
O44   O     O_3   0.541809 0.194576 0.522434 -0.490520
C5    C     C_3   0.986029 0.299913 0.095683 0.610437
C6    C     C_3   0.988573 0.700903 0.595504 0.609646
C7    C     C_3   0.490774 0.798620 0.094319 0.609950
C8    C     C_3   0.491369 0.201856 0.595622 0.613866
H5    H     H_    0.988404 0.311523 0.213792 0.060906
H6    H     H_    0.993374 0.689932 0.714707 0.073318
H7    H     H_    0.493856 0.810197 0.212287 0.072813
H8    H     H_    0.496475 0.190419 0.714103 0.079471
C9    C     C_3   0.966614 0.252018 0.088661 0.151412
C10   C     C_3   0.970851 0.749137 0.587350 0.148621
C11   C     C_3   0.474112 0.750181 0.089668 0.148595
C12   C     C_3   0.476209 0.250583 0.591240 0.145925
H9    H     H_    0.953176 0.242828 0.971075 0.175363
H10   H     H_    0.958814 0.758819 0.469377 0.174482
H11   H     H_    0.463855 0.739725 0.972460 0.171582
H12   H     H_    0.467936 0.261908 0.474174 0.170553
C13   C     C_3   0.204174 0.483208 0.181114 0.928375
C14   C     C_3   0.201408 0.517187 0.684993 0.900275
C15   C     C_3   0.702529 0.984670 0.190537 0.901182
C16   C     C_3   0.702491 0.015116 0.690603 0.899746
C17   C     C_3   0.271003 0.476714 0.157469 0.461038
C18   C     C_3   0.265392 0.531509 0.664462 0.451254
C19   C     C_3   0.767059 0.973719 0.164932 0.439051
C20   C     C_3   0.767194 0.025915 0.666320 0.437955
H13   H     H_    0.294029 0.461268 0.259962 0.123923
H14   H     H_    0.270214 0.565737 0.702883 0.131682
H15   H     H_    0.767052 0.960077 0.049730 0.131640
H16   H     H_    0.767522 0.040030 0.551338 0.132826
Ba1   Ba    Ba6+2 0.999920 0.467660 0.844980 1.844801
Ba2   Ba    Ba6+2 0.999920 0.532340 0.344980 1.831994
Ba3   Ba    Ba6+2 0.499920 0.967660 0.844980 1.841355
Ba4   Ba    Ba6+2 0.499920 0.032340 0.344980 1.831005
C21   C     C_3   0.812588 0.516564 0.936800 0.428614
C22   C     C_3   0.815864 0.485246 0.430567 0.461338
C23   C     C_3   0.312532 0.016034 0.935246 0.430272
C24   C     C_3   0.315655 0.985357 0.430449 0.461874
H17   H     H_    0.835101 0.507876 0.836539 0.031869
H18   H     H_    0.817050 0.500643 0.317716 0.122327
H19   H     H_    0.334357 0.006754 0.834489 0.036953
H20   H     H_    0.316962 0.000855 0.317803 0.122685
C25   C     C_3   0.748203 0.529526 0.882514 0.655234
C26   C     C_3   0.758868 0.458510 0.433719 0.535748
C27   C     C_3   0.248181 0.029457 0.882036 0.656212
C28   C     C_3   0.258511 0.958722 0.433084 0.537808
H21   H     H_    0.748158 0.561907 0.824649 0.021891
H22   H     H_    0.753878 0.448826 0.550428 0.187263
H23   H     H_    0.248524 0.061799 0.824002 0.019070
H24   H     H_    0.253245 0.949094 0.549727 0.187219
H25   H     H_    0.943251 0.402271 0.318114 0.169153
H26   H     H_    0.933971 0.589216 0.838723 0.151285
H27   H     H_    0.443864 0.902512 0.317834 0.169486
H28   H     H_    0.435746 0.089419 0.835738 0.153224
O45   O     O_3   0.066460 0.522600 0.056690 -0.352738
O46   O     O_3   0.066460 0.477400 0.556690 -0.338702
O47   O     O_3   0.566460 0.022600 0.056690 -0.345097
O48   O     O_3   0.566460 0.977400 0.556690 -0.331014
P13   P     P_3+3 0.928414 0.646670 0.103049 0.684924
P14   P     P_3+3 0.929502 0.352147 0.596775 0.673961
P15   P     P_3+3 0.427836 0.145945 0.103856 0.688342
P16   P     P_3+3 0.429095 0.852628 0.598327 0.678769
C29   C     C_3   0.990595 0.276324 0.615314 0.890118
C30   C     C_3   0.990489 0.721774 0.112736 0.883499
C31   C     C_3   0.490705 0.777413 0.609923 0.894202
C32   C     C_3   0.488830 0.221165 0.108030 0.887649
H29   H     H_    0.046942 0.219500 0.658868 0.138481
H30   H     H_    0.046756 0.778865 0.145512 0.143419
H31   H     H_    0.545541 0.719476 0.642114 0.141952
H32   H     H_    0.541452 0.280328 0.130561 0.148918
H33   H     H_    0.927196 0.247486 0.148784 0.135421
H34   H     H_    0.931027 0.754424 0.645002 0.149252
H35   H     H_    0.433462 0.744799 0.143829 0.149981
H36   H     H_    0.434994 0.256509 0.642023 0.160908
C33   C     C_R   0.747951 0.288947 0.007904 0.024506
C34   C     C_R   0.746169 0.709728 0.515523 0.021348
C35   C     C_R   0.247777 0.789757 0.009375 0.025180
C36   C     C_R   0.245285 0.208538 0.519558 0.021498
C37   C     C_R   0.742102 0.330006 0.933003 -0.149167
C38   C     C_R   0.739419 0.668623 0.442572 -0.139243
C39   C     C_R   0.241900 0.830766 0.934289 -0.147505
C40   C     C_R   0.238302 0.167450 0.446584 -0.139657
C41   C     C_R   0.699123 0.333064 0.805718 0.564900
C42   C     C_R   0.696106 0.666110 0.316488 0.557320
C43   C     C_R   0.198142 0.834038 0.808959 0.565486
C44   C     C_R   0.193468 0.164556 0.324468 0.556342
C45   C     C_R   0.174288 0.796207 0.742594 -0.087809
C46   C     C_R   0.170497 0.202585 0.255754 -0.100890
C47   C     C_R   0.676112 0.295080 0.737987 -0.077401
C48   C     C_R   0.674445 0.704350 0.245700 -0.091895
C49   C     C_R   0.183860 0.755132 0.810578 -0.082248
C50   C     C_R   0.181679 0.243754 0.320513 -0.077493
C51   C     C_R   0.685038 0.254111 0.807098 -0.074264
C52   C     C_R   0.684187 0.745309 0.312956 -0.069378
C53   C     C_R   0.215333 0.752533 0.952210 0.002919
C54   C     C_R   0.213515 0.246190 0.461537 -0.001527
C55   C     C_R   0.715753 0.251677 0.949745 0.001950
C56   C     C_R   0.714707 0.747416 0.455754 -0.002302
C57   C     C_R   0.161386 0.717156 0.739068 0.471495
C58   C     C_R   0.159984 0.281892 0.247131 0.467513
C59   C     C_R   0.662885 0.215977 0.735611 0.469285
C60   C     C_R   0.662720 0.783715 0.240116 0.471349
C61   C     C_R   0.152864 0.678346 0.825980 -0.106032
C62   C     C_R   0.152395 0.321031 0.331890 -0.099658
C63   C     C_R   0.653521 0.177456 0.823018 -0.111660
C64   C     C_R   0.653696 0.822332 0.326206 -0.108924
C65   C     C_R   0.179478 0.676606 0.978202 0.022739
C66   C     C_R   0.178732 0.322508 0.484836 0.028823
C67   C     C_R   0.679879 0.175709 0.974973 0.032328
C68   C     C_R   0.679788 0.823795 0.478273 0.032088
C69   C     C_R   0.214289 0.713027 0.035436 0.041875
C70   C     C_R   0.213014 0.285744 0.543779 0.041369
C71   C     C_R   0.714779 0.212053 0.032176 0.044198
C72   C     C_R   0.714165 0.787075 0.536799 0.041718
C73   C     C_R   0.116251 0.642909 0.771780 0.291088
C74   C     C_R   0.116231 0.356788 0.275483 0.306695
C75   C     C_R   0.616696 0.142175 0.769155 0.280900
C76   C     C_R   0.617128 0.857865 0.271268 0.290222
C77   C     C_R   0.105911 0.607527 0.870914 -0.296724
C78   C     C_R   0.105591 0.391977 0.373954 -0.296920
C79   C     C_R   0.605836 0.106891 0.868483 -0.282214
C80   C     C_R   0.606067 0.893021 0.369891 -0.289799
C81   C     C_R   0.131424 0.604485 0.022582 0.280897
C82   C     C_R   0.130794 0.394910 0.526090 0.280302
C83   C     C_R   0.631338 0.103894 0.020064 0.285324
C84   C     C_R   0.631495 0.895920 0.521515 0.282831
C85   C     C_R   0.171629 0.639215 0.073675 0.010933
C86   C     C_R   0.170754 0.359783 0.579519 0.010217
C87   C     C_R   0.672424 0.138043 0.069449 0.027615
C88   C     C_R   0.672510 0.861500 0.571640 0.029103
C89   C     C_R   0.782722 0.285714 0.145580 0.044625
C90   C     C_R   0.780715 0.712541 0.653396 0.043669
C91   C     C_R   0.282442 0.786713 0.147066 0.046937
C92   C     C_R   0.279869 0.211090 0.656929 0.046755
C93   C     C_R   0.819039 0.321468 0.199718 0.017855
C94   C     C_R   0.816223 0.676256 0.709012 0.009105
C95   C     C_R   0.318935 0.822390 0.200362 0.025227
C96   C     C_R   0.315675 0.174850 0.710737 0.011588
C97   C     C_R   0.822231 0.360995 0.111961 -0.063115
C98   C     C_R   0.818946 0.636749 0.622169 -0.104256
C99   C     C_R   0.322669 0.861484 0.111499 -0.066679
C100  C     C_R   0.319080 0.135952 0.622354 -0.109593
C101  C     C_R   0.778616 0.365719 0.987386 0.398478
C102  C     C_R   0.775176 0.632318 0.498064 0.353338
C103  C     C_R   0.278895 0.866301 0.987324 0.399968
C104  C     C_R   0.274965 0.131425 0.499334 0.356909
H37   H     H_    0.145698 0.799565 0.639067 0.239403
H38   H     H_    0.141039 0.199329 0.153936 0.238624
H39   H     H_    0.648530 0.298208 0.632622 0.235337
H40   H     H_    0.646794 0.701441 0.140550 0.232793
H41   H     H_    0.076634 0.581697 0.828837 0.148086
H42   H     H_    0.076614 0.417976 0.330506 0.146798
H43   H     H_    0.576303 0.081191 0.826660 0.146892
H44   H     H_    0.576483 0.918745 0.327326 0.150247
C105  C     C_R   0.203323 0.638867 0.218541 0.014960
C106  C     C_R   0.201593 0.359392 0.726278 0.006849
C107  C     C_R   0.706532 0.136316 0.210411 -0.013015
C108  C     C_R   0.706685 0.862922 0.712336 -0.012438
C109  C     C_R   0.240420 0.673919 0.271339 -0.046837
C110  C     C_R   0.238172 0.323943 0.782151 -0.036862
C111  C     C_R   0.743364 0.171527 0.262598 -0.040692
C112  C     C_R   0.743274 0.827432 0.765411 -0.038263
C113  C     C_R   0.245033 0.711442 0.179662 0.052578
C114  C     C_R   0.243338 0.286810 0.689017 0.048071
C115  C     C_R   0.746259 0.209961 0.174861 0.064162
C116  C     C_R   0.745602 0.788872 0.679356 0.061082
C117  C     C_R   0.780222 0.246664 0.231274 0.000986
C118  C     C_R   0.779048 0.751813 0.737184 0.001328
C119  C     C_R   0.279065 0.748241 0.234830 0.006726
C120  C     C_R   0.276985 0.249535 0.744079 0.011434
C121  C     C_R   0.272448 0.673411 0.415967 0.402691
C122  C     C_R   0.269189 0.323202 0.930177 0.389966
C123  C     C_R   0.776954 0.169701 0.403362 0.370518
C124  C     C_R   0.777282 0.829175 0.905360 0.367007
C125  C     C_R   0.807313 0.206400 0.461681 -0.082681
C126  C     C_R   0.807468 0.792327 0.964705 -0.085368
C127  C     C_R   0.303273 0.710184 0.470380 -0.106123
C128  C     C_R   0.300942 0.286202 0.980203 -0.114382
C129  C     C_R   0.807734 0.245542 0.379015 -0.072054
C130  C     C_R   0.807020 0.752937 0.884327 -0.061632
C131  C     C_R   0.305320 0.748136 0.383782 -0.068835
C132  C     C_R   0.303232 0.248975 0.892607 -0.060804
C133  C     C_R   0.847587 0.319010 0.348516 -0.101462
C134  C     C_R   0.845512 0.678794 0.856590 -0.125143
C135  C     C_R   0.346709 0.820531 0.349958 -0.092735
C136  C     C_R   0.344109 0.176522 0.858942 -0.116328
C137  C     C_R   0.832322 0.284191 0.443803 0.374799
C138  C     C_R   0.831434 0.714165 0.950604 0.358369
C139  C     C_R   0.330100 0.786799 0.446770 0.372864
C140  C     C_R   0.328051 0.210167 0.955740 0.354514
C141  C     C_R   0.890158 0.351098 0.397308 0.202192
C142  C     C_R   0.887757 0.646371 0.905627 0.261100
C143  C     C_R   0.389798 0.852112 0.398438 0.204264
C144  C     C_R   0.387529 0.145094 0.906237 0.260105
C145  C     C_R   0.904069 0.383491 0.291702 -0.351470
C146  C     C_R   0.899223 0.612009 0.804479 -0.375147
C147  C     C_R   0.404528 0.883876 0.291660 -0.340398
C148  C     C_R   0.400198 0.111672 0.803161 -0.367376
C149  C     C_R   0.866965 0.394028 0.159049 0.248874
C150  C     C_R   0.864051 0.603762 0.667101 0.175126
C151  C     C_R   0.367530 0.894240 0.158543 0.244538
C152  C     C_R   0.364642 0.103432 0.666428 0.175127
H45   H     H_    0.197831 0.611935 0.292893 0.221958
H46   H     H_    0.195665 0.386197 0.798944 0.228492
H47   H     H_    0.704480 0.107667 0.281233 0.192164
H48   H     H_    0.704869 0.891603 0.782060 0.192714
H49   H     H_    0.831330 0.203359 0.571811 0.233128
H50   H     H_    0.831906 0.795521 0.073955 0.234231
H51   H     H_    0.326010 0.708306 0.582411 0.231407
H52   H     H_    0.323332 0.286646 0.092371 0.238944
N1    N     N_R   0.041138 0.302324 0.589801 0.178443
O49   O     O_R   0.077139 0.314061 0.704104 -0.386716
O50   O     O_R   0.041086 0.323185 0.462925 -0.533153
N2    N     N_R   0.040820 0.695401 0.088270 0.179820
O51   O     O_R   0.078083 0.684969 0.202071 -0.383397
O52   O     O_R   0.039704 0.673164 0.964776 -0.530926
N3    N     N_R   0.541284 0.803612 0.585194 0.177703
O53   O     O_R   0.577948 0.814451 0.699440 -0.383194
O54   O     O_R   0.540710 0.825539 0.460350 -0.535103
N4    N     N_R   0.539955 0.195469 0.084128 0.180091
O55   O     O_R   0.578241 0.186536 0.197457 -0.380856
O56   O     O_R   0.539088 0.172335 0.962666 -0.532178
Cl1   Cl    Cl    0.308712 0.527777 0.138290 -0.335212
Cl2   Cl    Cl    0.320873 0.503815 0.782356 -0.311855
Cl3   Cl    Cl    0.801301 0.933378 0.293490 -0.350218
Cl4   Cl    Cl    0.801465 0.065508 0.796066 -0.351936
N5    N     N_R   0.284391 0.448717 0.033696 0.263797
O57   O     O_R   0.247448 0.442681 0.916555 -0.343076
O58   O     O_R   0.338391 0.437362 0.025895 -0.191610
N6    N     N_R   0.280030 0.529352 0.509131 0.258418
O59   O     O_R   0.254171 0.555485 0.409091 -0.351896
O60   O     O_R   0.326661 0.508891 0.476672 -0.228878
N7    N     N_R   0.804209 0.012656 0.174173 0.274767
O61   O     O_R   0.845199 0.016151 0.084488 -0.182258
O62   O     O_R   0.805678 0.038134 0.291301 -0.299342
N8    N     N_R   0.804011 0.986769 0.675311 0.274608
O63   O     O_R   0.843479 0.982496 0.581713 -0.184932
O64   O     O_R   0.806151 0.961267 0.793454 -0.299820
N9    N     N_R   0.840668 0.554362 0.010370 0.166586
O65   O     O_R   0.894862 0.551827 0.062562 -0.360837
O66   O     O_R   0.810713 0.588845 0.039482 -0.369795
N10   N     N_R   0.865694 0.457362 0.465714 0.166069
O67   O     O_R   0.913535 0.467458 0.409227 -0.398428
O68   O     O_R   0.870050 0.439611 0.598133 -0.327160
N11   N     N_R   0.341525 0.053758 0.006303 0.163185
O69   O     O_R   0.396178 0.051216 0.054013 -0.367982
O70   O     O_R   0.311759 0.087673 0.041403 -0.367332
N12   N     N_R   0.365314 0.957314 0.465297 0.165287
O71   O     O_R   0.413319 0.967471 0.409692 -0.398886
O72   O     O_R   0.369327 0.939252 0.597213 -0.330034
Cl5   Cl    Cl    0.709891 0.495358 0.748366 -0.368844
Cl6   Cl    Cl    0.756726 0.408375 0.337423 -0.577839
Cl7   Cl    Cl    0.209046 0.995463 0.748608 -0.364500
Cl8   Cl    Cl    0.256477 0.908633 0.336606 -0.578427
Cl9   Cl    Cl    0.704215 0.534112 0.034474 -0.257128
Cl10  Cl    Cl    0.695785 0.487907 0.361259 -0.226717
Cl11  Cl    Cl    0.204544 0.034696 0.034478 -0.254909
Cl12  Cl    Cl    0.195491 0.988009 0.359609 -0.222850
Cl13  Cl    Cl    0.957638 0.255020 0.442263 -0.678679
Cl14  Cl    Cl    0.956561 0.741920 0.938115 -0.688999
Cl15  Cl    Cl    0.456135 0.757646 0.436378 -0.687395
Cl16  Cl    Cl    0.452935 0.239622 0.933419 -0.694509
N13   N     N_R   0.821004 0.294280 0.594997 0.248642
O73   O     O_R   0.785544 0.326325 0.613917 -0.361240
O74   O     O_R   0.838585 0.269220 0.709383 -0.355057
N14   N     N_R   0.822736 0.705237 0.105130 0.248457
O75   O     O_R   0.786569 0.674353 0.132440 -0.357908
O76   O     O_R   0.842788 0.730801 0.214797 -0.345856
N15   N     N_R   0.317401 0.798249 0.595745 0.243147
O77   O     O_R   0.282848 0.831203 0.610066 -0.356421
O78   O     O_R   0.335475 0.774862 0.714025 -0.356555
N16   N     N_R   0.317005 0.199054 0.107086 0.242241
O79   O     O_R   0.279521 0.168346 0.125911 -0.350682
O80   O     O_R   0.338709 0.221413 0.223543 -0.343712
Cl17  Cl    Cl    0.670513 0.381437 0.717188 -0.341589
Cl18  Cl    Cl    0.663638 0.618036 0.238908 -0.320850
Cl19  Cl    Cl    0.169263 0.882503 0.721555 -0.334302
Cl20  Cl    Cl    0.160666 0.116236 0.249394 -0.312624
Cl21  Cl    Cl    0.159131 0.719472 0.539252 -0.580765
Cl22  Cl    Cl    0.156581 0.278773 0.047406 -0.587939
Cl23  Cl    Cl    0.663393 0.217090 0.536484 -0.577868
Cl24  Cl    Cl    0.663864 0.782718 0.041287 -0.584271
N17   N     N_R   0.765568 0.407937 0.929516 0.247577
O81   O     O_R   0.724499 0.429744 0.986068 -0.233838
O82   O     O_R   0.780875 0.418147 0.797147 -0.322401
N18   N     N_R   0.759391 0.589735 0.448205 0.243675
O83   O     O_R   0.719579 0.569499 0.515389 -0.292232
O84   O     O_R   0.772091 0.576660 0.316612 -0.259871
N19   N     N_R   0.265750 0.908505 0.929663 0.246763
O85   O     O_R   0.224793 0.930261 0.986922 -0.235044
O86   O     O_R   0.280561 0.918633 0.796728 -0.322669
N20   N     N_R   0.259469 0.088897 0.449020 0.242856
O87   O     O_R   0.220173 0.068365 0.517150 -0.295354
O88   O     O_R   0.271319 0.076368 0.316087 -0.257565
N21   N     N_R   0.272457 0.637034 0.515912 0.238604
O89   O     O_R   0.227177 0.631264 0.589332 -0.403619
O90   O     O_R   0.322485 0.621727 0.573541 -0.291532
N22   N     N_R   0.265708 0.356825 0.040704 0.246413
O91   O     O_R   0.215099 0.369332 0.073811 -0.373741
O92   O     O_R   0.309387 0.362393 0.143387 -0.307363
N23   N     N_R   0.779003 0.131192 0.493174 0.232444
O93   O     O_R   0.738759 0.125501 0.583582 -0.364221
O94   O     O_R   0.828258 0.110475 0.517991 -0.248183
N24   N     N_R   0.779777 0.867757 0.993489 0.234040
O95   O     O_R   0.738489 0.874701 0.079573 -0.364534
O96   O     O_R   0.829359 0.887874 0.019684 -0.243537
Cl25  Cl    Cl    0.955234 0.195887 0.726622 -0.405854
Cl26  Cl    Cl    0.955858 0.803010 0.216218 -0.404656
Cl27  Cl    Cl    0.454459 0.697097 0.718183 -0.416582
Cl28  Cl    Cl    0.450571 0.300966 0.211782 -0.417148
Cl29  Cl    Cl    0.931849 0.329119 0.984053 -0.604209
Cl30  Cl    Cl    0.930776 0.672054 0.496343 -0.590910
Cl31  Cl    Cl    0.433451 0.826358 0.988324 -0.600648
Cl32  Cl    Cl    0.431466 0.174564 0.498877 -0.583098
Cl33  Cl    Cl    0.022616 0.215543 0.163133 -0.467728
Cl34  Cl    Cl    0.027547 0.784026 0.666332 -0.479240
Cl35  Cl    Cl    0.530486 0.716171 0.176741 -0.493335
Cl36  Cl    Cl    0.532738 0.282904 0.684702 -0.505679
Cl37  Cl    Cl    0.197645 0.466148 0.361597 -0.674045
Cl38  Cl    Cl    0.192649 0.527752 0.867740 -0.652597
Cl39  Cl    Cl    0.692898 0.976792 0.371667 -0.651627
Cl40  Cl    Cl    0.691790 0.022820 0.870808 -0.653212
Cl41  Cl    Cl    0.152182 0.449636 0.085936 -0.515446
Cl42  Cl    Cl    0.150179 0.551142 0.588993 -0.552593
Cl43  Cl    Cl    0.653403 0.948718 0.094137 -0.555860
Cl44  Cl    Cl    0.653873 0.051341 0.592751 -0.555283

loop_
_geom_bond_atom_site_label_1
_geom_bond_atom_site_label_2
_geom_bond_distance
_ccdc_geom_bond_type
C23   H19   1.108048 S    
N21   O89   1.297523 A    
C19   H15   1.107071 S    
C56   C72   1.412433 A    
C90   C118  1.416907 A    
C63   C75   1.427033 A    
P9    O41   1.761023 S    
C148  C152  1.420811 A    
C96   C136  1.413055 A    
C100  C152  1.469338 A    
O24   P15   1.782731 S    
P11   O43   1.761203 S    
C40   C44   1.426535 A    
P8    C83   1.950571 S    
C29   N1    1.446873 S    
N9    O65   1.292870 A    
P12   O44   1.760260 S    
N4    O55   1.300000 A    
C145  C149  1.421941 A    
C19   Cl3   1.802842 S    
C50   C54   1.390719 A    
C147  C151  1.422680 A    
C20   Cl4   1.802688 S    
Ba2   O45   3.130154 S    
P7    O48   1.574942 S    
C109  C113  1.411607 A    
C128  C132  1.384624 A    
O22   C30   1.415680 S    
C126  H50   1.078178 S    
C38   C42   1.428208 A    
O16   P15   1.541629 D    
C13   Cl37  1.703917 S    
P4    Ba4   3.542909 S    
C54   C70   1.415147 A    
C14   Cl38  1.688746 S    
C48   C52   1.397052 A    
C15   Cl39  1.662339 S    
O2    Ba2   2.869879 S    
P2    O18   1.765551 S    
C23   N11   1.447910 S    
C32   N4    1.450930 S    
C47   C51   1.395976 A    
P4    O8    1.569311 S    
C22   N10   1.439172 S    
C139  N15   1.428974 S    
C21   C25   1.566843 S    
O10   P13   1.759358 S    
C60   Cl24  1.769693 S    
C18   Cl2   1.782251 S    
C98   C150  1.473247 A    
P12   C75   1.877669 S    
P9    O29   1.723614 S    
C35   C91   1.396547 A    
C143  C147  1.417322 A    
C61   C65   1.429620 A    
N12   O72   1.287296 A    
P11   C76   1.877179 S    
O12   Ba4   2.866150 S    
C60   C64   1.434882 A    
C129  C137  1.409837 A    
O39   C16   1.395512 S    
C18   H14   1.102924 S    
C5    Cl29  1.757006 S    
C63   C67   1.425508 A    
Ba3   O47   2.858697 S    
C22   H18   1.107635 S    
C133  C141  1.426000 A    
C32   Cl16  1.773686 S    
C49   C57   1.399637 A    
C2    H30   1.111970 S    
C82   C86   1.460544 A    
C34   C56   1.431446 A    
O17   C21   1.410458 S    
C52   C56   1.390669 A    
C8    H8    1.102250 S    
P15   C144  1.904194 S    
C74   C78   1.425506 A    
C43   Cl19  1.766185 S    
C136  C140  1.415763 A    
C107  H47   1.078051 S    
N8    O63   1.300208 A    
P5    O25   1.620414 D    
P3    C151  1.963869 S    
C23   C27   1.567715 S    
P7    O27   1.620414 D    
C66   C70   1.438983 A    
P8    O28   1.625344 D    
C30   N2    1.448330 S    
C110  C122  1.433839 A    
O28   Ba4   2.869928 S    
C102  N18   1.411469 S    
O20   C24   1.401591 S    
C16   C20   1.565409 S    
C124  N24   1.415649 S    
C30   Cl14  1.773914 S    
C22   C26   1.551030 S    
N6    O60   1.302311 A    
C121  C127  1.391944 A    
H27   C147  1.078047 S    
P2    C150  1.975226 S    
C67   C71   1.436314 A    
C114  C120  1.433586 A    
C10   H34   1.108286 S    
C93   C133  1.419103 A    
N18   O83   1.298990 A    
C106  H46   1.062131 S    
C38   C102  1.437105 A    
C70   C114  1.406293 A    
P3    O7    1.573267 S    
C26   Cl10  1.774408 S    
C27   Cl7   1.760541 S    
O13   P14   1.543686 D    
P8    O47   1.578967 S    
C35   C53   1.428534 A    
P1    Ba1   3.539760 S    
C9    H9    1.097856 S    
P3    Ba3   3.539760 S    
C138  N14   1.431693 S    
C11   H11   1.094110 S    
C57   C61   1.434366 A    
C76   C80   1.427893 A    
O31   Ba3   2.868182 S    
O18   C22   1.401665 S    
C1    H1    1.105803 S    
C61   C73   1.428751 A    
C59   C63   1.433416 A    
N19   O85   1.301223 A    
C65   C85   1.440114 A    
C2    H2    1.105734 S    
O25   Ba1   2.871272 S    
P14   C141  1.910029 S    
N7    O62   1.300247 A    
C6    H6    1.103919 S    
C68   C88   1.441752 A    
C46   H38   1.081589 S    
C42   Cl18  1.760241 S    
C44   C46   1.388735 A    
C111  C115  1.409877 A    
C6    C10   1.527174 S    
C2    Cl26  1.793737 S    
N13   O74   1.300694 A    
C45   C49   1.396353 A    
C36   C54   1.429121 A    
P6    O45   1.578967 S    
C35   C39   1.414968 A    
C1    H29   1.111938 S    
C92   C120  1.414506 A    
C94   C98   1.439734 A    
O8    Ba3   2.848390 S    
O22   P13   1.785437 S    
C31   Cl15  1.773360 S    
P10   O42   1.760085 S    
P4    C152  1.960497 S    
P12   O32   1.727466 S    
N10   O68   1.287227 A    
C58   C62   1.435475 A    
C146  C150  1.421102 A    
Ba1   O45   2.858697 S    
P16   C143  1.912630 S    
N22   O91   1.291222 A    
N16   O80   1.300924 A    
C91   C95   1.430513 A    
C72   C116  1.397326 A    
C24   C28   1.551874 S    
C131  C139  1.405943 A    
O11   P16   1.772889 S    
O42   C6    1.406883 S    
C51   C55   1.391176 A    
C100  C104  1.425574 A    
P2    Ba2   3.542909 S    
C57   Cl21  1.771822 S    
N16   O79   1.297024 A    
O30   Ba2   2.884065 S    
C51   C59   1.401165 A    
O43   C7    1.406741 S    
C118  C130  1.400144 A    
O41   C5    1.404467 S    
C36   C92   1.393227 A    
O26   Ba2   2.869928 S    
C96   C100  1.433361 A    
P9    O33   1.540717 D    
N5    O57   1.292609 A    
P5    Ba1   3.543748 S    
C122  C128  1.392719 A    
P7    Ba3   3.543748 S    
P10   O30   1.725939 S    
P7    C84   1.958738 S    
P11   O35   1.543612 D    
C115  C117  1.431488 A    
C62   C66   1.433561 A    
C42   C48   1.391684 A    
C7    C11   1.527205 S    
C133  C137  1.420893 A    
C44   Cl20  1.761782 S    
C109  C121  1.417580 A    
C27   H23   1.111342 S    
C50   C58   1.398997 A    
C12   H12   1.092780 S    
N2    O52   1.291386 A    
N14   O75   1.297007 A    
C127  C131  1.390207 A    
O23   P16   1.783952 S    
C4    H4    1.106459 S    
C81   C85   1.453647 A    
C37   C41   1.431329 A    
C14   Cl42  1.729276 S    
N4    O56   1.291344 A    
C125  C129  1.399210 A    
C84   C88   1.452462 A    
O29   Ba1   2.868182 S    
C4    C32   1.540262 S    
Ba2   O46   2.846180 S    
C90   C94   1.433849 A    
C73   C77   1.424597 A    
C144  C148  1.424094 A    
N1    O50   1.291321 A    
O10   Ba2   2.866150 S    
C37   C101  1.434339 A    
P6    O26   1.625344 D    
C141  C145  1.417729 A    
C20   N8    1.463434 S    
N2    O51   1.299150 A    
N20   O87   1.298844 A    
C97   C101  1.427291 A    
O37   C14   1.404310 S    
C77   H41   1.082287 S    
C104  N20   1.409601 S    
O5    Ba2   2.860938 S    
C13   C17   1.590430 S    
C68   C72   1.437937 A    
C108  H48   1.078325 S    
O7    Ba4   2.860938 S    
C15   C19   1.565792 S    
Ba4   O47   3.130154 S    
C89   C117  1.414752 A    
C116  C118  1.433215 A    
P1    O17   1.782326 S    
N8    O64   1.300103 A    
P1    O1    1.624726 D    
C43   C45   1.388219 A    
C45   H37   1.082053 S    
P3    O3    1.624726 D    
O11   Ba3   2.882015 S    
P4    O20   1.765912 S    
O40   C15   1.396361 S    
C11   H35   1.108268 S    
C80   H44   1.082282 S    
C112  C116  1.410813 A    
C71   C115  1.398497 A    
C78   C82   1.420898 A    
O21   C29   1.414303 S    
N24   O95   1.298127 A    
C25   H21   1.111283 S    
P6    O38   1.774099 S    
O23   C31   1.413012 S    
C39   C103  1.433077 A    
C85   C105  1.416076 A    
C66   C86   1.441173 A    
N23   O93   1.298184 A    
C62   C74   1.431765 A    
C3    C31   1.540998 S    
N17   O82   1.297404 A    
C92   C96   1.432070 A    
C34   C90   1.396980 A    
C48   H40   1.082100 S    
N21   O90   1.301863 A    
C95   C99   1.434176 A    
H25   C145  1.077745 S    
P8    Ba4   3.540530 S    
C86   C106  1.422319 A    
N9    O66   1.300447 A    
C33   C55   1.429622 A    
N11   O69   1.293011 A    
C130  C138  1.410920 A    
P1    O5    1.573267 S    
C105  C109  1.422679 A    
C34   C38   1.416680 A    
O38   C13   1.405097 S    
C25   Cl5   1.759326 S    
N7    O61   1.300249 A    
C17   H13   1.110483 S    
C135  C139  1.414887 A    
C134  C142  1.425220 A    
O6    Ba1   2.848390 S    
P3    O19   1.781271 S    
C14   C18   1.568354 S    
C28   Cl8   1.755046 S    
C28   H24   1.093870 S    
O9    Ba1   2.882015 S    
C121  N21   1.417624 S    
C16   Cl40  1.661977 S    
N15   O77   1.298319 A    
C79   C83   1.417777 A    
C117  C129  1.400618 A    
P12   O36   1.543689 D    
P5    C82   1.961372 S    
P7    O39   1.771414 S    
N18   O84   1.298176 A    
C67   C87   1.439830 A    
C103  N19   1.405345 S    
C47   H39   1.082498 S    
C105  H45   1.066964 S    
C6    Cl30  1.762946 S    
C3    H3    1.106527 S    
C8    C12   1.527022 S    
O44   C8    1.407297 S    
C33   C37   1.415534 A    
N12   O71   1.294491 A    
C10   Cl34  1.779401 S    
C120  C132  1.396433 A    
C36   C40   1.416667 A    
N23   O94   1.300203 A    
N19   O86   1.297409 A    
Ba3   O48   3.127418 S    
C17   N5    1.453508 S    
C41   Cl17  1.765781 S    
C29   Cl13  1.773362 S    
C112  C124  1.404478 A    
N3    O53   1.299928 A    
C64   C76   1.428045 A    
P10   O34   1.543040 D    
N3    O54   1.291069 A    
P11   O31   1.730489 S    
C59   Cl23  1.770433 S    
C94   C134  1.416960 A    
C5    H5    1.105597 S    
C124  C126  1.395962 A    
C7    H7    1.103494 S    
C49   C53   1.391165 A    
N13   O73   1.297728 A    
O14   P13   1.541821 D    
C107  C111  1.421403 A    
C12   Cl36  1.777793 S    
C64   C68   1.424605 A    
C10   H10   1.096276 S    
C110  C114  1.418820 A    
C125  H49   1.079280 S    
C16   Cl44  1.741760 S    
O24   C32   1.413843 S    
C53   C69   1.412155 A    
C40   C104  1.435425 A    
C135  C143  1.422694 A    
O19   C23   1.409443 S    
C2    C30   1.542857 S    
C15   Cl43  1.744149 S    
Ba1   Ba2   4.850724 S    
C13   Cl41  1.736241 S    
Ba3   Ba4   4.850724 S    
O4    Ba4   2.869879 S    
P4    O4    1.619789 D    
N22   O92   1.302951 A    
C12   H36   1.108177 S    
C5    C9    1.528610 S    
P13   C142  1.905639 S    
C4    Cl28  1.794024 S    
C39   C43   1.430536 A    
C113  C119  1.431334 A    
C17   Cl1   1.800525 S    
N6    O59   1.291973 A    
O12   P15   1.751480 S    
C97   C149  1.475561 A    
C9    Cl33  1.780717 S    
C99   C151  1.471695 A    
C142  C146  1.426529 A    
P10   C73   1.882564 S    
C24   N12   1.438621 S    
C1    Cl25  1.793996 S    
C123  N23   1.414873 S    
C140  N16   1.432083 S    
C24   H20   1.107603 S    
P5    O46   1.574942 S    
C20   H16   1.107109 S    
C3    H31   1.111954 S    
C93   C97   1.438442 A    
O21   P14   1.785580 S    
C83   C87   1.449574 A    
H28   C148  1.081359 S    
C95   C135  1.418119 A    
C55   C71   1.411469 A    
C8    Cl32  1.765821 S    
C123  C125  1.395960 A    
C101  N17   1.405985 S    
P2    O2    1.619789 D    
C106  C110  1.428580 A    
C75   C79   1.426230 A    
C33   C89   1.397998 A    
O15   P16   1.543913 D    
C18   N6    1.454819 S    
P9    C74   1.890311 S    
N14   O76   1.300540 A    
C58   Cl22  1.771441 S    
C87   C107  1.412490 A    
C77   C81   1.418636 A    
C7    Cl31  1.760429 S    
C19   N7    1.463453 S    
C80   C84   1.418339 A    
N11   O70   1.298816 A    
C119  C131  1.399876 A    
H26   C146  1.081364 S    
C99   C103  1.427384 A    
P6    Ba2   3.540530 S    
C79   H43   1.082257 S    
N1    O49   1.298977 A    
C91   C119  1.412148 A    
N15   O78   1.300896 A    
C137  N13   1.428864 S    
C41   C47   1.390158 A    
C111  C123  1.405535 A    
P1    C149  1.974149 S    
N10   O67   1.294351 A    
C9    H33   1.108373 S    
N20   O88   1.298082 A    
C46   C50   1.398144 A    
C11   Cl35  1.778026 S    
C21   N9    1.450038 S    
Ba1   O46   3.127418 S    
C88   C108  1.411420 A    
P2    O6    1.569311 S    
C25   Cl9   1.774247 S    
C108  C112  1.422789 A    
C26   Cl6   1.755417 S    
C78   H42   1.082357 S    
C1    C29   1.542785 S    
C134  C138  1.425616 A    
C27   Cl11  1.774291 S    
C28   Cl12  1.774098 S    
C65   C69   1.437130 A    
C132  C140  1.405098 A    
C4    H32   1.111958 S    
Ba4   O48   2.846180 S    
O1    Ba1   2.868544 S    
C136  C144  1.418982 A    
P5    O37   1.795306 S    
P6    C81   1.954723 S    
O3    Ba3   2.868544 S    
C126  C130  1.401141 A    
C127  H51   1.079508 S    
C31   N3    1.449279 S    
C128  H52   1.076363 S    
O9    P14   1.779729 S    
C89   C93   1.432147 A    
C3    Cl27  1.794576 S    
N5    O58   1.302725 A    
C122  N22   1.431958 S    
O32   Ba4   2.884065 S    
N24   O96   1.300245 A    
C52   C60   1.402115 A    
C26   H22   1.093599 S    
C98   C102  1.426963 A    
P8    O40   1.772409 S    
C69   C113  1.402533 A    
O27   Ba3   2.871272 S    
N17   O81   1.301085 A    
C21   H17   1.108348 S    
