data_mof_unit_44905.cif
_audit_creation_date              2012-10-26T20:21:14-0400
_audit_creation_method            fapswitch 2.2
_symmetry_space_group_name_H-M    P1
_symmetry_Int_Tables_number       1
_space_group_crystal_system       triclinic
_cell_length_a                    9.51057
_cell_length_b                    10.833974
_cell_length_c                    15.412006
_cell_angle_alpha                 89.842255
_cell_angle_beta                  74.997401
_cell_angle_gamma                 89.996849
_cell_volume                      1533.87601751

loop_
_atom_site_label
_atom_site_type_symbol
_atom_type_description
_atom_site_fract_x
_atom_site_fract_y
_atom_site_fract_z
_atom_type_partial_charge
C1    C     C_R   0.999940 0.262044 0.500063 0.550668
C2    C     C_R   0.127488 0.063848 0.500673 -0.130624
C3    C     C_R   0.000018 0.871788 0.499996 0.024387
C4    C     C_R   0.999951 0.128207 0.500085 0.023665
C5    C     C_R   0.549387 0.428341 0.559391 0.028540
C6    C     C_R   0.450606 0.571684 0.440624 0.031076
C7    C     C_R   0.400499 0.428491 0.559435 0.045965
C8    C     C_R   0.599487 0.571554 0.440594 0.048460
C9    C     C_R   0.919153 0.503597 0.672452 0.569222
C10   C     C_R   0.080900 0.497540 0.327417 0.568314
C11   C     C_R   0.875959 0.516822 0.771062 0.010833
C12   C     C_R   0.000049 0.737954 0.499965 0.552160
C13   C     C_R   0.124127 0.490658 0.228299 0.009330
C14   C     C_R   0.917106 0.583774 0.912396 -0.108089
C15   C     C_R   0.079390 0.443055 0.084182 -0.105100
C16   C     C_R   0.970071 0.563886 0.820432 0.218291
C17   C     C_R   0.027517 0.455272 0.176926 0.221716
C18   C     C_R   0.731152 0.490097 0.815638 -0.162246
C19   C     C_R   0.270137 0.514985 0.184622 -0.164695
C20   C     C_R   0.673753 0.516551 0.907298 0.025491
C21   C     C_R   0.324604 0.502276 0.091095 0.024230
C22   C     C_R   0.770651 0.561524 0.955798 0.004152
C23   C     C_R   0.575938 0.566420 0.091649 -0.096292
C24   C     C_R   0.226138 0.464742 0.041307 0.003126
C25   C     C_R   0.523281 0.500479 0.951803 0.042573
C26   C     C_R   0.474131 0.523027 0.046019 0.044057
C27   C     C_R   0.419780 0.465472 0.904903 -0.100668
C28   C     C_R   0.720621 0.585811 0.047085 -0.102106
C29   C     C_R   0.274630 0.447925 0.949033 -0.105099
C30   C     C_R   0.872433 0.063843 0.499488 -0.126235
C31   C     C_R   0.127526 0.936149 0.500617 -0.124709
C32   C     C_R   0.872473 0.936145 0.499429 -0.130692
Cl1   Cl    Cl    0.842747 0.418831 0.224283 -0.627170
Cl2   Cl    Cl    0.152503 0.605768 0.770941 -0.626571
Cu1   Cu    Cu3+1 0.140660 0.500020 0.500000 0.993227
Cu2   Cu    Cu3+1 0.859340 0.499980 0.500000 0.992986
H1    H     H_    0.794137 0.620628 0.084610 0.142622
H2    H     H_    0.227238 0.888120 0.501074 0.139617
H3    H     H_    0.772798 0.888112 0.498911 0.134529
H4    H     H_    0.227163 0.111881 0.501191 0.134404
H5    H     H_    0.585456 0.370690 0.606847 0.103902
H6    H     H_    0.414535 0.629347 0.393174 0.103705
H7    H     H_    0.324276 0.371188 0.606970 0.122693
H8    H     H_    0.675697 0.628898 0.393082 0.126906
H9    H     H_    0.199615 0.419933 0.910436 0.147252
H10   H     H_    0.340039 0.541298 0.226064 0.127598
H11   H     H_    0.665291 0.448531 0.776528 0.119986
H12   H     H_    0.990088 0.620038 0.949762 0.144153
H13   H     H_    0.004911 0.413951 0.045520 0.144303
H14   H     H_    0.547939 0.589245 0.161886 0.119921
H15   H     H_    0.445943 0.452643 0.833313 0.128348
H16   H     H_    0.772719 0.111871 0.499036 0.138595
N1    N     N_R   0.352080 0.500030 0.499980 -0.219684
N2    N     N_R   0.647920 0.499970 0.500020 -0.220590
O1    O     O_R   0.118740 0.319660 0.500000 -0.515351
O2    O     O_R   0.881260 0.680340 0.500000 -0.515546
O3    O     O_R   0.881170 0.319630 0.500010 -0.502067
O4    O     O_R   0.118830 0.680370 0.499990 -0.499978
O5    O     O_R   0.055570 0.500030 0.629830 -0.441790
O6    O     O_R   0.944430 0.499970 0.370170 -0.440195
O7    O     O_R   0.818000 0.500000 0.629840 -0.522072
O8    O     O_R   0.182000 0.500000 0.370160 -0.523436

loop_
_geom_bond_atom_site_label_1
_geom_bond_atom_site_label_2
_ccdc_geom_bond_type
C12   O2    A    
C2    C4    A    
C21   C26   A    
C5    H5    S    
C11   C18   A    
Cu2   O2    S    
C1    O3    A    
Cu1   N1    S    
C20   C22   A    
C5    C7    A    
C11   C16   A    
C10   O6    A    
Cu1   Cu2   S    
C31   H2    S    
C13   C17   A    
C1    C4    S    
C12   O4    A    
C18   H11   S    
C14   C22   A    
C1    O1    A    
C19   H10   S    
C22   C28   A    
C23   C28   A    
Cu2   O6    S    
C3    C31   A    
C9    C11   S    
C10   O8    A    
C17   Cl1   S    
C28   H1    S    
Cu1   O4    S    
C9    O7    A    
C6    C8    A    
C15   C24   A    
C19   C21   A    
C27   H15   S    
Cu1   O8    S    
C18   C20   A    
C15   H13   S    
C32   H3    S    
C3    C32   A    
C14   C16   A    
C21   C24   A    
C27   C29   A    
C20   C25   A    
C7    N1    A    
C6    N1    A    
Cu1   O1    S    
Cu2   O7    S    
C30   C32   A    
C2    H4    S    
C5    N2    A    
Cu2   N2    S    
Cu1   O5    S    
Cu2   O3    S    
C6    H6    S    
C23   C26   A    
C8    N2    A    
C7    H7    S    
C15   C17   A    
C30   H16   S    
C24   C29   A    
C13   C19   A    
C14   H12   S    
C3    C12   S    
C16   Cl2   S    
C25   C26   A    
C9    O5    A    
C10   C13   S    
C4    C30   A    
C8    H8    S    
C29   H9    S    
C2    C31   A    
C23   H14   S    
C25   C27   A    
