data_mof_unit_64221.cif
_audit_creation_date              2013-03-05T16:28:39-0500
_audit_creation_method            fapswitch 2.2
_symmetry_space_group_name_H-M    P1
_symmetry_Int_Tables_number       1
_space_group_crystal_system       monoclinic
_cell_length_a                    18.277798
_cell_length_b                    18.278429
_cell_length_c                    31.873089
_cell_angle_alpha                 90.0
_cell_angle_beta                  89.999821
_cell_angle_gamma                 90.0
_cell_volume                      10648.4622325

loop_
_atom_site_label
_atom_site_type_symbol
_atom_site_description
_atom_site_fract_x
_atom_site_fract_y
_atom_site_fract_z
_atom_type_partial_charge
O1    O     O_R   0.607370 0.439420 0.000000 -0.613193
O2    O     O_R   0.392630 0.439420 0.000000 -0.613130
O3    O     O_R   0.107370 0.939420 0.500000 -0.613205
O4    O     O_R   0.892630 0.939420 0.500000 -0.613118
O5    O     O_R   0.607290 0.560580 0.000000 -0.619591
O6    O     O_R   0.392710 0.560580 0.000000 -0.619616
O7    O     O_R   0.107290 0.060580 0.500000 -0.619592
O8    O     O_R   0.892710 0.060580 0.500000 -0.619615
C1    C     C_R   0.641225 0.500020 0.000000 0.928961
C2    C     C_R   0.358775 0.500020 1.000000 0.929010
C3    C     C_R   0.141225 0.000020 0.500000 0.928951
C4    C     C_R   0.858775 0.000020 0.500000 0.929024
O9    O     O_R   0.500000 0.439420 0.938390 -0.595282
O10   O     O_R   0.500000 0.439420 0.061610 -0.595283
O11   O     O_R   0.000000 0.939420 0.438390 -0.595287
O12   O     O_R   0.000000 0.939420 0.561610 -0.595283
O13   O     O_R   0.500000 0.560580 0.938390 -0.623820
O14   O     O_R   0.500000 0.560580 0.061610 -0.623819
O15   O     O_R   0.000000 0.060580 0.438390 -0.623819
O16   O     O_R   0.000000 0.060580 0.561610 -0.623819
C5    C     C_R   0.500000 0.499995 0.918608 0.897107
C6    C     C_R   0.500000 0.499995 0.081392 0.897108
C7    C     C_R   0.000000 0.999995 0.418608 0.897111
C8    C     C_R   1.000000 0.999995 0.581392 0.897109
Zn1   Zn    Zn3+2 0.500000 0.419100 0.000000 1.029277
Zn2   Zn    Zn3+2 0.000000 0.919100 0.500000 1.029272
Zn3   Zn    Zn3+2 0.500000 0.580900 0.000000 0.984232
Zn4   Zn    Zn3+2 0.000000 0.080900 0.500000 0.984231
C9    C     C_3   0.560506 0.464148 0.735743 -0.216725
C10   C     C_3   0.560211 0.463653 0.264256 -0.216662
C11   C     C_3   0.439582 0.463998 0.735743 -0.216665
C12   C     C_3   0.439290 0.464495 0.264257 -0.216730
C13   C     C_3   0.059789 0.962966 0.235744 -0.216740
C14   C     C_3   0.060842 0.964719 0.764258 -0.216660
C15   C     C_3   0.938886 0.965193 0.235742 -0.216650
C16   C     C_3   0.939925 0.963431 0.764256 -0.216729
C17   C     C_3   0.560168 0.533554 0.763908 -0.210317
C18   C     C_3   0.560441 0.533060 0.236091 -0.210081
C19   C     C_3   0.439749 0.533405 0.763909 -0.210146
C20   C     C_3   0.440025 0.533898 0.236092 -0.210383
C21   C     C_3   0.060814 0.032365 0.263909 -0.210179
C22   C     C_3   0.059851 0.034119 0.736092 -0.210238
C23   C     C_3   0.940415 0.034583 0.263907 -0.210288
C24   C     C_3   0.939439 0.032836 0.736091 -0.210226
H1    H     H_    0.609352 0.562277 0.776002 0.164109
H2    H     H_    0.609858 0.561378 0.223997 0.164270
H3    H     H_    0.390494 0.562006 0.776003 0.164233
H4    H     H_    0.391006 0.562902 0.223999 0.164073
H5    H     H_    0.110552 0.060115 0.276004 0.164175
H6    H     H_    0.108763 0.063303 0.723999 0.164185
H7    H     H_    0.891731 0.064146 0.276000 0.164165
H8    H     H_    0.889918 0.060972 0.723997 0.164156
H9    H     H_    0.609485 0.434897 0.723790 0.166825
H10   H     H_    0.608949 0.434002 0.276208 0.166850
H11   H     H_    0.390675 0.434627 0.723791 0.166860
H12   H     H_    0.390144 0.435525 0.276211 0.166834
H13   H     H_    0.108185 0.932758 0.223792 0.166778
H14   H     H_    0.110094 0.935931 0.776211 0.166886
H15   H     H_    0.889412 0.936788 0.223788 0.166908
H16   H     H_    0.891296 0.933600 0.776208 0.166800
H17   H     H_    0.499845 0.625275 0.723915 0.149623
H18   H     H_    0.500873 0.625273 0.276085 0.149625
H19   H     H_    0.002308 0.125254 0.223914 0.149624
H20   H     H_    0.998665 0.125268 0.776086 0.149622
C25   C     C_1   0.500000 0.499912 0.874142 -0.137752
C26   C     C_1   0.499998 0.499912 0.125858 -0.137753
C27   C     C_1   0.999995 0.999912 0.374142 -0.137753
C28   C     C_1   0.000003 0.999912 0.625858 -0.137753
C29   C     C_1   0.500000 0.499683 0.625864 -0.167450
C30   C     C_1   0.500000 0.499683 0.374136 -0.167449
C31   C     C_1   0.999998 0.999683 0.125864 -0.167450
C32   C     C_1   0.000001 0.999683 0.874136 -0.167449
C33   C     C_3   0.500085 0.431115 0.763300 0.363948
C34   C     C_3   0.499520 0.431116 0.236700 0.363948
C35   C     C_3   0.998729 0.931126 0.263300 0.363949
C36   C     C_3   0.000735 0.931118 0.736700 0.363948
C37   C     C_3   0.500002 0.498804 0.791199 0.085381
C38   C     C_3   0.499991 0.498804 0.208801 0.085381
C39   C     C_3   0.999974 0.998804 0.291199 0.085382
C40   C     C_3   0.000015 0.998804 0.708801 0.085381
C41   C     C_3   0.500001 0.498933 0.708777 0.143455
C42   C     C_3   0.499994 0.498933 0.291223 0.143455
C43   C     C_3   0.999982 0.998933 0.208777 0.143455
C44   C     C_3   0.000011 0.998933 0.791223 0.143455
C45   C     C_3   0.499915 0.568333 0.736026 -0.125702
C46   C     C_3   0.500476 0.568332 0.263974 -0.125699
C47   C     C_3   0.001258 0.068322 0.236026 -0.125702
C48   C     C_3   0.999273 0.068329 0.763974 -0.125703
C49   C     C_1   0.500001 0.499533 0.836646 0.020287
C50   C     C_1   0.499995 0.499533 0.163354 0.020288
C51   C     C_1   0.999986 0.999533 0.336646 0.020287
C52   C     C_1   0.000008 0.999533 0.663354 0.020287
C53   C     C_1   0.500000 0.499401 0.663360 -0.022576
C54   C     C_1   0.499998 0.499401 0.336640 -0.022575
C55   C     C_1   0.999993 0.999400 0.163360 -0.022576
C56   C     C_1   0.000004 0.999400 0.836640 -0.022576
C57   C     C_1   0.717646 0.500054 0.000000 -0.176078
C58   C     C_1   0.282354 0.500054 1.000000 -0.176045
C59   C     C_1   0.217646 0.000054 0.500000 -0.176090
C60   C     C_1   0.782354 0.000054 0.500000 -0.176031
C61   C     C_1   0.782387 0.500045 0.000000 -0.175238
C62   C     C_1   0.217613 0.500045 1.000000 -0.175219
C63   C     C_1   0.282387 0.000045 0.500000 -0.175249
C64   C     C_1   0.717612 0.000045 0.500000 -0.175205
O17   O     O_R   0.560550 0.392540 0.500000 -0.617188
O18   O     O_R   0.439450 0.392540 0.500000 -0.617169
O19   O     O_R   0.060550 0.892540 0.000000 -0.617193
O20   O     O_R   0.939450 0.892540 0.000000 -0.617164
C65   C     C_R   0.500000 0.358652 0.500000 0.933961
C66   C     C_R   0.000000 0.858652 0.000000 0.933960
O21   O     O_R   0.560580 0.499860 0.561610 -0.614614
O22   O     O_R   0.560580 0.499860 0.438390 -0.614561
O23   O     O_R   0.439420 0.499860 0.561610 -0.614565
O24   O     O_R   0.439420 0.499860 0.438390 -0.614619
O25   O     O_R   0.060580 0.999860 0.061610 -0.614636
O26   O     O_R   0.060580 0.999860 0.938390 -0.614552
O27   O     O_R   0.939420 0.999860 0.061610 -0.614542
O28   O     O_R   0.939420 0.999860 0.938390 -0.614627
C67   C     C_R   0.500000 0.499889 0.581393 0.905215
C68   C     C_R   0.500000 0.499889 0.418607 0.905215
C69   C     C_R   1.000000 0.999889 0.081393 0.905214
C70   C     C_R   0.000000 0.999889 0.918607 0.905214
Zn5   Zn    Zn3+2 0.580910 0.499830 0.500000 0.993731
Zn6   Zn    Zn3+2 0.419090 0.499830 0.500000 0.993699
Zn7   Zn    Zn3+2 0.080910 0.999830 0.000000 0.993714
Zn8   Zn    Zn3+2 0.919090 0.999830 0.000000 0.993719
O29   O     O_R   0.560630 0.607160 0.500000 -0.616456
O30   O     O_R   0.439370 0.607160 0.500000 -0.616491
O31   O     O_R   0.060630 0.107160 0.000000 -0.616461
O32   O     O_R   0.939370 0.107160 0.000000 -0.616485
C71   C     C_R   0.500000 0.641067 0.500000 0.929095
C72   C     C_R   0.000000 0.141067 0.000000 0.929094
O33   O     O_R   0.000000 0.607310 0.965210 -0.615941
O34   O     O_R   0.000000 0.607310 0.034790 -0.615943
O35   O     O_R   0.500000 0.107310 0.465210 -0.615940
O36   O     O_R   0.500000 0.107310 0.534790 -0.615941
C73   C     C_R   0.000000 0.641157 0.000000 0.927732
C74   C     C_R   0.500000 0.141157 0.500000 0.927731
O37   O     O_R   0.892680 0.500000 0.965220 -0.617428
O38   O     O_R   0.892680 0.500000 0.034780 -0.617386
O39   O     O_R   0.107320 0.500000 0.965220 -0.617383
O40   O     O_R   0.107320 0.500000 0.034780 -0.617425
O41   O     O_R   0.392680 1.000000 0.465220 -0.617478
O42   O     O_R   0.392680 0.000000 0.534780 -0.617345
O43   O     O_R   0.607320 1.000000 0.465220 -0.617331
O44   O     O_R   0.607320 0.000000 0.534780 -0.617465
C75   C     C_R   0.858809 0.500016 0.000000 0.928208
C76   C     C_R   0.141191 0.500016 1.000000 0.928207
C77   C     C_R   0.358809 0.000016 0.500000 0.928203
C78   C     C_R   0.641191 0.000016 0.500000 0.928210
Zn9   Zn    Zn3+2 0.000000 0.500000 0.953550 0.996035
Zn10  Zn    Zn3+2 0.000000 0.500000 0.046450 0.996032
Zn11  Zn    Zn3+2 0.500000 1.000000 0.453550 0.996040
Zn12  Zn    Zn3+2 0.500000 1.000000 0.546450 0.996038
O45   O     O_R   1.000000 0.392690 0.965220 -0.618177
O46   O     O_R   0.000000 0.392690 0.034780 -0.618177
O47   O     O_R   0.500000 0.892690 0.465220 -0.618176
O48   O     O_R   0.500000 0.892690 0.534780 -0.618177
C79   C     C_R   0.000000 0.358790 0.000000 0.928658
C80   C     C_R   0.500000 0.858791 0.500000 0.928657
C81   C     C_1   0.500000 0.282265 0.500000 -0.176478
C82   C     C_1   0.000000 0.782265 0.000000 -0.176479
C83   C     C_1   0.000000 0.717544 0.000000 -0.173179
C84   C     C_1   0.500000 0.217544 0.500000 -0.173178
C85   C     C_1   0.500000 0.717543 0.500000 -0.178863
C86   C     C_1   1.000000 0.217543 0.000000 -0.178863
C87   C     C_1   1.000000 0.282315 0.000000 -0.176122
C88   C     C_1   0.500000 0.782315 0.500000 -0.176121
N1    N     N_R   0.500179 0.355354 0.777535 0.206838
O49   O     O_R   0.500242 0.302608 0.750165 -0.377224
O50   O     O_R   0.500202 0.339888 0.817354 -0.375508
N2    N     N_R   0.498993 0.355358 0.222465 0.206838
O51   O     O_R   0.498628 0.302613 0.249835 -0.377224
O52   O     O_R   0.498882 0.339892 0.182646 -0.375509
N3    N     N_R   0.997332 0.855379 0.277535 0.206838
O53   O     O_R   0.996365 0.802641 0.250165 -0.377224
O54   O     O_R   0.997042 0.839915 0.317354 -0.375511
N4    N     N_R   0.001543 0.855362 0.722465 0.206837
O55   O     O_R   0.002100 0.802619 0.749835 -0.377224
O56   O     O_R   0.001714 0.839897 0.682646 -0.375509

loop_
_geom_bond_atom_site_label_1
_geom_bond_atom_site_label_2
_geom_bond_distance
_ccdc_geom_bond_type
O35   C74   1.269777 A    
C43   C47   1.537369 S    
O33   C73   1.269777 A    
H19   C47   1.110095 S    
O25   C69   1.274223 A    
N1    O49   1.300211 A    
C59   C63   1.183332 T    
C14   C22   1.554137 S    
O3    C3    1.268794 A    
O34   C73   1.269774 A    
N4    O55   1.300210 A    
C66   C82   1.396238 S    
N3    O54   1.300257 A    
C38   C50   1.448617 S    
C22   C40   1.539293 S    
C10   H10   1.110156 S    
O37   C75   1.269699 A    
C28   C52   1.195118 T    
C63   C77   1.396820 S    
O26   C70   1.274220 A    
C18   C46   1.551365 S    
C42   C54   1.447602 S    
C19   C37   1.539293 S    
O20   Zn8   1.996087 S    
C15   H15   1.110154 S    
C30   C54   1.195131 T    
C72   C86   1.397847 S    
C41   C53   1.447605 S    
Zn12  O48   1.996415 S    
C29   C53   1.195128 T    
C12   C34   1.534802 S    
C10   C34   1.534803 S    
C31   C55   1.195131 T    
N4    O56   1.300260 A    
O41   Zn11  1.996529 S    
C9    C33   1.534803 S    
Zn8   O32   1.996535 S    
C64   C78   1.396820 S    
C60   C64   1.183332 T    
O36   Zn12  1.996354 S    
O17   Zn5   1.996087 S    
O21   C67   1.274221 A    
C44   C56   1.447605 S    
C20   C46   1.551366 S    
C2    C58   1.396811 S    
O27   C69   1.274218 A    
C6    C26   1.417282 S    
C16   C36   1.534803 S    
O39   C76   1.269699 A    
C62   C76   1.396820 S    
O5    Zn3   1.995889 S    
O48   C80   1.269964 A    
Zn10  O46   1.996415 S    
C11   C19   1.554137 S    
C74   C84   1.396243 S    
H20   C48   1.110096 S    
O33   Zn9   1.996354 S    
C1    C57   1.396811 S    
Zn9   O45   1.996415 S    
O4    C4    1.268794 A    
C15   C23   1.554137 S    
O27   Zn8   1.998550 S    
O38   Zn10  1.996531 S    
C34   N2    1.457219 S    
O43   C78   1.269699 A    
O6    Zn3   1.995890 S    
C41   C45   1.537369 S    
Zn6   O30   1.996535 S    
O31   C72   1.269721 A    
O43   Zn11  1.996530 S    
C24   H8    1.110123 S    
O11   C7    1.274144 A    
O34   Zn10  1.996354 S    
O24   Zn6   1.998551 S    
O12   C8    1.274144 A    
O44   C78   1.269699 A    
O1    Zn1   1.997323 S    
N1    O50   1.300257 A    
O9    Zn1   1.998521 S    
C14   C44   1.538184 S    
O38   C75   1.269699 A    
C21   H5    1.110122 S    
N2    O52   1.300257 A    
O7    C3    1.268870 A    
O46   C79   1.269964 A    
O12   Zn2   1.998518 S    
C21   C47   1.551365 S    
C18   H2    1.110123 S    
O45   C79   1.269967 A    
O13   Zn3   1.998521 S    
O40   C76   1.269699 A    
C24   C40   1.539295 S    
O1    C1    1.268794 A    
O19   Zn7   1.996087 S    
O22   Zn5   1.998554 S    
O36   C74   1.269774 A    
C30   C68   1.417411 S    
O22   C68   1.274222 A    
C15   C43   1.538185 S    
O15   C7    1.274314 A    
O11   Zn2   1.998521 S    
O16   Zn4   1.998518 S    
C42   C46   1.537369 S    
C19   H3    1.110123 S    
C35   N3    1.457221 S    
C29   C67   1.417411 S    
O13   C5    1.274314 A    
O7    Zn4   1.995889 S    
C9    H9    1.110155 S    
C44   C48   1.537368 S    
C40   C52   1.448617 S    
O32   C72   1.269723 A    
O5    C1    1.268870 A    
O42   C77   1.269699 A    
H18   C46   1.110094 S    
C57   C61   1.183332 T    
Zn5   O29   1.996535 S    
N3    O53   1.300212 A    
O44   Zn12  1.996527 S    
O8    C4    1.268870 A    
C43   C55   1.447602 S    
C27   C51   1.195118 T    
O9    C5    1.274144 A    
O23   C67   1.274220 A    
O15   Zn4   1.998521 S    
C13   C43   1.538181 S    
C23   C39   1.539294 S    
H17   C45   1.110096 S    
C22   H6    1.110123 S    
C15   C35   1.534804 S    
O40   Zn10  1.996527 S    
C9    C41   1.538183 S    
C85   C88   1.183938 T    
O26   Zn7   1.998554 S    
C86   C87   1.183938 T    
O8    Zn4   1.995890 S    
O19   C66   1.268266 A    
C20   C38   1.539295 S    
C16   C24   1.554136 S    
C13   C35   1.534804 S    
C19   C45   1.551365 S    
C17   H1    1.110125 S    
O2    C2    1.268794 A    
O30   C71   1.269723 A    
C81   C84   1.182995 T    
N2    O51   1.300211 A    
O39   Zn9   1.996530 S    
C73   C83   1.396243 S    
C82   C83   1.182995 T    
C17   C45   1.551365 S    
C20   H4    1.110124 S    
O42   Zn12  1.996531 S    
O17   C65   1.268266 A    
C61   C75   1.396820 S    
C33   N1    1.457219 S    
C13   H13   1.110156 S    
C10   C42   1.538182 S    
C5    C25   1.417282 S    
O14   C6    1.274314 A    
C39   C51   1.448617 S    
C31   C69   1.417411 S    
O3    Zn2   1.997323 S    
O14   Zn3   1.998518 S    
C36   C40   1.523660 S    
C16   H16   1.110158 S    
C11   C41   1.538183 S    
O6    C2    1.268870 A    
O4    Zn2   1.997325 S    
O21   Zn5   1.998548 S    
O20   C66   1.268267 A    
C37   C49   1.448617 S    
O47   C80   1.269967 A    
C18   C38   1.539295 S    
C12   C42   1.538182 S    
C25   C49   1.195118 T    
C36   N4    1.457219 S    
O25   Zn7   1.998548 S    
C32   C70   1.417411 S    
C23   C47   1.551367 S    
O10   C6    1.274144 A    
C13   C21   1.554137 S    
C58   C62   1.183332 T    
C12   C20   1.554136 S    
C23   H7    1.110122 S    
O23   Zn6   1.998550 S    
C17   C37   1.539293 S    
C16   C44   1.538182 S    
O28   C70   1.274221 A    
C3    C59   1.396811 S    
O37   Zn9   1.996529 S    
C26   C50   1.195118 T    
C79   C87   1.397852 S    
O2    Zn1   1.997325 S    
C80   C88   1.397852 S    
O10   Zn1   1.998518 S    
Zn11  O47   1.996415 S    
O16   C8    1.274314 A    
O29   C71   1.269721 A    
C4    C60   1.396811 S    
C11   C33   1.534804 S    
C7    C27   1.417282 S    
C8    C28   1.417282 S    
C32   C56   1.195128 T    
Zn7   O31   1.996535 S    
O41   C77   1.269699 A    
C22   C48   1.551364 S    
C71   C85   1.397847 S    
C34   C38   1.523660 S    
C21   C39   1.539294 S    
C9    C17   1.554136 S    
C14   H14   1.110154 S    
O18   Zn6   1.996087 S    
C33   C37   1.523659 S    
C65   C81   1.396238 S    
O28   Zn8   1.998551 S    
C10   C18   1.554137 S    
C11   H11   1.110156 S    
C24   C48   1.551366 S    
C35   C39   1.523659 S    
C12   H12   1.110155 S    
O24   C68   1.274220 A    
O35   Zn11  1.996354 S    
C14   C36   1.534802 S    
O18   C65   1.268267 A    
