data_mof_unit_16017.cif
_audit_creation_date              2012-12-11T17:01:36-0500
_audit_creation_method            fapswitch 2.2
_symmetry_space_group_name_H-M    P1
_symmetry_Int_Tables_number       1
_space_group_crystal_system       triclinic
_cell_length_a                    15.083891
_cell_length_b                    14.924398
_cell_length_c                    15.013188
_cell_angle_alpha                 109.796775
_cell_angle_beta                  109.288313
_cell_angle_gamma                 109.775056
_cell_volume                      2587.24013045

loop_
_atom_site_label
_atom_site_type_symbol
_atom_type_description
_atom_site_fract_x
_atom_site_fract_y
_atom_site_fract_z
_atom_type_partial_charge
C1    C     C_R   0.944554 0.760776 0.037802 -0.120373
C2    C     C_R   0.224488 0.752672 0.314730 0.707883
C3    C     C_R   0.904128 0.408398 0.207591 -0.128749
C4    C     C_R   0.792122 0.196494 0.699812 -0.147750
C5    C     C_R   0.298404 0.590634 0.994195 0.014339
C6    C     C_R   0.928531 0.500650 0.296859 0.020165
C7    C     C_R   0.299213 0.498154 0.933805 0.002793
C8    C     C_R   0.326419 0.776892 0.324810 -0.101701
C9    C     C_R   0.933197 0.132137 0.934460 0.076243
C10   C     C_3   0.471721 0.391299 0.848018 -0.407639
C11   C     C_3   0.367654 0.393514 0.836033 -0.509948
C12   C     C_R   0.698339 0.132467 0.695444 0.084083
C13   C     C_3   0.561750 0.499415 0.054619 -0.521423
C14   C     C_3   0.574777 0.598726 0.947172 -0.390856
C15   C     C_3   0.572139 0.496496 0.954781 0.304108
C16   C     C_R   0.056177 0.592093 0.778928 0.672257
C17   C     C_3   0.396637 0.497881 0.937134 0.203210
C18   C     C_3   0.457156 0.497725 0.043323 0.672107
C19   C     C_3   0.471915 0.601088 0.939716 -0.378651
C20   C     C_R   0.622502 0.968892 0.516585 0.149409
C21   C     C_R   0.621346 0.015796 0.613852 0.032155
C22   C     C_R   0.534260 0.952622 0.622229 -0.227788
C23   C     C_R   0.986511 0.501453 0.673856 -0.111095
C24   C     C_R   0.439366 0.860637 0.527271 -0.148915
C25   C     C_R   0.431698 0.833771 0.424588 0.056493
C26   C     C_R   0.528748 0.879354 0.422934 0.207969
C27   C     C_3   0.554651 0.922458 0.352428 -0.495725
C28   C     C_R   0.684283 0.405529 0.944621 -0.137856
C29   C     C_3   0.657296 0.019915 0.454928 -0.538291
C30   C     C_R   0.948614 0.604138 0.476678 0.037516
C31   C     C_R   0.896936 0.504284 0.378807 0.087083
C32   C     C_R   0.839285 0.405770 0.375172 -0.198583
C33   C     C_R   0.862102 0.405715 0.473008 -0.140042
C34   C     C_R   0.673074 0.497554 0.971534 0.051115
C35   C     C_R   0.941323 0.504356 0.573504 0.006782
C36   C     C_R   0.971547 0.604154 0.573461 0.027593
C37   C     C_3   0.078639 0.709465 0.635264 0.751979
C38   C     C_3   0.053381 0.709977 0.530404 -0.693602
C39   C     C_R   0.852615 0.883937 0.958073 0.166628
C40   C     C_R   0.953808 0.407898 0.684271 -0.222606
C41   C     C_R   0.912398 0.844838 0.919489 0.017621
C42   C     C_R   0.932459 0.868863 0.842883 -0.176918
C43   C     C_R   0.922873 0.955168 0.832556 -0.179820
C44   C     C_R   0.892687 0.015711 0.898610 0.016575
C45   C     C_R   0.987889 0.591098 0.293647 -0.030171
C46   C     C_R   0.842216 0.968300 0.947159 0.160722
C47   C     C_3   0.849893 0.018701 0.056402 -0.513904
C48   C     C_3   0.861584 0.926746 0.068347 -0.519584
C49   C     C_R   0.774938 0.590112 0.047233 -0.155236
C50   C     C_R   0.699269 0.195366 0.788481 -0.130843
C51   C     C_R   0.034683 0.761903 0.946263 -0.128831
C52   C     C_R   0.962479 0.791764 0.966089 0.045347
C53   C     C_R   0.208156 0.406925 0.906099 -0.159940
C54   C     C_R   0.312752 0.745480 0.221065 -0.235276
C55   C     C_R   0.904165 0.196420 0.994906 -0.140988
C56   C     C_R   0.997166 0.195317 0.906157 -0.112424
F1    F     F_    0.201248 0.775820 0.396544 -0.759643
F2    F     F_    0.482009 0.588422 0.135351 -0.719159
F3    F     F_    0.135704 0.692215 0.811576 -0.737249
F4    F     F_    0.080341 0.796155 0.710362 -0.679850
H1    H     H_    0.898746 0.777170 0.075285 0.102498
H2    H     H_    0.325840 0.393610 0.759582 0.198214
H3    H     H_    0.826861 0.168073 0.651839 0.102198
H4    H     H_    0.312225 0.316343 0.828271 0.164371
H5    H     H_    0.560985 0.426938 0.060986 0.132293
H6    H     H_    0.404339 0.421884 0.039858 0.022248
H7    H     H_    0.646358 0.677369 0.019959 0.150890
H8    H     H_    0.580187 0.595419 0.874063 0.166234
H9    H     H_    0.428373 0.602975 0.864962 0.163668
H10   H     H_    0.497470 0.678568 0.011955 0.182819
H11   H     H_    0.632973 0.575024 0.131732 0.206478
H12   H     H_    0.178794 0.320651 0.854519 0.099097
H13   H     H_    0.533557 0.980553 0.698385 0.136887
H14   H     H_    0.369521 0.820186 0.534041 0.195353
H15   H     H_    0.570918 0.868922 0.295544 0.216558
H16   H     H_    0.732400 0.021967 0.457169 0.197714
H17   H     H_    0.789866 0.327130 0.299453 0.122116
H18   H     H_    0.826241 0.327009 0.468400 0.124253
H19   H     H_    0.151659 0.701318 0.666613 0.071368
H20   H     H_    0.039872 0.778653 0.530013 0.247959
H21   H     H_    0.622019 0.319335 0.896786 0.096670
H22   H     H_    0.112751 0.701134 0.505104 0.216585
H23   H     H_    0.372743 0.747319 0.197007 0.170324
H24   H     H_    0.968128 0.831791 0.801775 0.203698
H25   H     H_    0.953183 0.982797 0.785233 0.143671
H26   H     H_    0.924848 0.100600 0.118234 0.206277
H27   H     H_    0.772572 0.014522 0.048930 0.190913
H28   H     H_    0.943313 0.957859 0.136346 0.204251
H29   H     H_    0.791153 0.869752 0.068113 0.188031
H30   H     H_    0.902038 0.322118 0.620396 0.131411
H31   H     H_    0.793529 0.671134 0.101796 0.089797
H32   H     H_    0.646790 0.165993 0.818907 0.088167
H33   H     H_    0.070977 0.781941 0.900223 0.210281
H34   H     H_    0.839863 0.168771 0.013037 0.100504
H35   H     H_    0.000888 0.673027 0.335718 0.154925
H36   H     H_    0.497015 0.946652 0.314321 0.201081
H37   H     H_    0.657710 0.098987 0.474641 0.204921
H38   H     H_    0.021475 0.166560 0.847127 0.089144
H39   H     H_    0.846973 0.323124 0.176214 0.092500
H40   H     H_    0.353191 0.675745 0.022794 0.086887
H41   H     H_    0.464237 0.315389 0.849954 0.161695
H42   H     H_    0.479709 0.386546 0.775690 0.178835
N1    N     N_R   0.995640 0.706130 0.053910 -0.047341
N2    N     N_R   0.054010 0.556790 0.847890 -0.098428
N3    N     N_R   0.789940 0.443190 0.997130 -0.039186
N4    N     N_R   0.997630 0.443170 0.791110 -0.070806
N5    N     N_R   0.846320 0.556810 0.053910 -0.040191
N6    N     N_R   0.791080 0.293860 0.847890 -0.040192
N7    N     N_R   0.052880 0.706130 0.997130 -0.046308
N8    N     N_R   0.002370 0.556830 0.208890 -0.052092
N9    N     N_R   0.153680 0.443190 0.946090 -0.037381
N10   N     N_R   0.208920 0.706140 0.152110 -0.075200
N11   N     N_R   0.947120 0.293870 0.002870 -0.040039
N12   N     N_R   0.004360 0.293870 0.946090 -0.039348
N13   N     N_R   0.151690 0.706140 0.208890 -0.108276
N14   N     N_R   0.945990 0.443210 0.152110 -0.047479
N15   N     N_R   0.210060 0.556810 0.002870 -0.047521
N16   N     N_R   0.848310 0.293860 0.791110 -0.036420
Ni1   Ni    Ni4+2 0.999010 0.630300 0.130220 0.228289
Ni2   Ni    Ni4+2 0.000990 0.369700 0.869780 0.202683
Ni3   Ni    Ni4+2 0.130280 0.630280 0.000000 0.250923
Ni4   Ni    Ni4+2 0.869720 0.369720 0.000000 0.199785

loop_
_geom_bond_atom_site_label_1
_geom_bond_atom_site_label_2
_ccdc_geom_bond_type
C6    C45   A    
C10   C15   S    
C27   C29   S    
C41   C42   A    
C35   C36   A    
C56   H38   S    
C3    C6    A    
C24   H14   S    
N2    N4    A    
C2    F1    S    
C39   C41   A    
C29   H16   S    
C13   H5    S    
N3    N5    A    
C4    H3    S    
C26   C27   S    
N14   Ni4   S    
C13   C18   S    
C36   C37   S    
C3    N14   A    
C30   C31   A    
C33   H18   S    
N9    N15   A    
C23   C40   A    
C30   C38   S    
N15   Ni3   S    
C17   C19   S    
C32   H17   S    
C16   N2    A    
N11   Ni4   S    
C31   C32   A    
C7    C17   S    
C14   H7    S    
C48   H28   S    
C9    C55   A    
C4    C12   A    
C1    N1    A    
C15   C34   S    
C53   N9    A    
C6    C31   S    
C28   C34   A    
C51   N7    A    
C21   C22   A    
C38   H22   S    
C50   N6    A    
C8    C25   S    
C4    N16   A    
C27   H36   S    
C49   H31   S    
C55   H34   S    
C27   H15   S    
N5    Ni1   S    
C54   H23   S    
C44   C46   A    
C20   C29   S    
N1    Ni1   S    
C51   C52   A    
C43   H25   S    
C47   H26   S    
N6    N16   A    
C10   H42   S    
C42   H24   S    
C24   C25   A    
C49   N5    A    
C11   H4    S    
C8    C54   A    
C5    C7    A    
C45   N8    A    
N2    Ni3   S    
C55   N11   A    
C25   C26   A    
C12   C21   S    
C5    N15   A    
N9    Ni2   S    
C16   F3    S    
C47   H27   S    
C43   C44   A    
C37   C38   S    
C37   H19   S    
C2    N13   A    
C47   C48   S    
C5    H40   S    
C28   N3    A    
C17   C18   S    
C54   N10   A    
C9    C56   A    
C9    C44   S    
C51   H33   S    
C39   C46   A    
C50   H32   S    
C16   C23   A    
C23   C35   S    
C48   H29   S    
C13   C15   S    
C22   C24   A    
C19   H9    S    
C42   C43   A    
C7    C53   A    
C45   H35   S    
N8    N14   A    
C40   N4    A    
N11   N12   A    
C46   C47   S    
C11   C17   S    
C34   C49   A    
C14   H8    S    
C41   C52   S    
N4    Ni2   S    
C28   H21   S    
C14   C19   S    
C10   H41   S    
C2    C8    A    
N6    Ni4   S    
C20   C26   A    
C1    H1    S    
N8    Ni1   S    
C12   C50   A    
C30   C36   A    
C18   H6    S    
C13   H11   S    
C11   H2    S    
N13   Ni1   S    
C29   H37   S    
N1    N7    A    
C32   C33   A    
N10   Ni3   S    
N7    Ni3   S    
C38   H20   S    
C33   C35   A    
C18   F2    S    
N3    Ni4   S    
C1    C52   A    
N16   Ni2   S    
C37   F4    S    
C10   C11   S    
C3    H39   S    
C20   C21   A    
C56   N12   A    
C14   C15   S    
C19   H10   S    
C22   H13   S    
C40   H30   S    
C53   H12   S    
N10   N13   A    
N12   Ni2   S    
C39   C48   S    
