data_mof_unit_39942.cif
_audit_creation_date              2012-12-10T17:18:14-0500
_audit_creation_method            fapswitch 2.2
_symmetry_space_group_name_H-M    P1
_symmetry_Int_Tables_number       1
_space_group_crystal_system       triclinic
_cell_length_a                    10.15557
_cell_length_b                    10.68374
_cell_length_c                    14.879736
_cell_angle_alpha                 90.473616
_cell_angle_beta                  81.465261
_cell_angle_gamma                 94.670684
_cell_volume                      1591.25136994

loop_
_atom_site_label
_atom_site_type_symbol
_atom_type_description
_atom_site_fract_x
_atom_site_fract_y
_atom_site_fract_z
_atom_type_partial_charge
C1    C     C_R   0.555031 0.733327 0.489647 0.869584
C2    C     C_2   0.074232 0.494647 0.489168 0.654149
C3    C     C_R   0.500097 0.498214 0.672896 1.006904
C4    C     C_R   0.499925 0.501478 0.327079 1.007460
C5    C     C_R   0.431253 0.400256 0.194372 0.594707
C6    C     C_R   0.530943 0.610767 0.810100 0.577706
C7    C     C_R   0.497720 0.502349 0.231763 -0.318155
C8    C     C_R   0.499903 0.497630 0.768472 -0.317214
C9    C     C_R   0.552859 0.608106 0.180727 0.413980
C10   C     C_R   0.456895 0.387370 0.817631 0.419338
C11   C     C_R   0.529151 0.615783 0.090588 -0.154988
C12   C     C_R   0.444887 0.266596 0.501276 0.839705
C13   C     C_R   0.434295 0.393646 0.912908 -0.126305
C14   C     C_R   0.474389 0.507424 0.049560 -0.163405
C15   C     C_R   0.475131 0.505922 0.955622 -0.164742
C16   C     C_R   0.421601 0.400073 0.102008 -0.165604
C17   C     C_R   0.518238 0.616390 0.904386 -0.171863
C18   C     C_R   0.554508 0.728998 0.041249 0.515719
C19   C     C_R   0.369560 0.292581 0.966338 0.480914
C20   C     C_3   0.757444 0.717456 0.186717 0.177947
C21   C     C_3   0.836544 0.635970 0.239962 -0.403168
C22   C     C_3   0.986568 0.657078 0.207963 -0.895620
C23   C     C_R   0.541783 0.730555 0.949276 0.430183
C24   C     C_3   0.529457 0.192735 0.777852 0.127975
C25   C     C_3   0.651858 0.218334 0.705104 -0.471681
C26   C     C_3   0.750131 0.117860 0.706405 -0.687975
C27   C     C_3   0.426721 0.897850 0.922319 0.151106
C28   C     C_3   0.330881 0.847208 0.857217 -0.406155
C29   C     C_3   0.203580 0.915871 0.867792 -0.771266
C30   C     C_3   0.154619 0.192452 0.114356 0.120603
C31   C     C_3   0.090431 0.277657 0.189011 -0.324097
C32   C     C_3   0.939114 0.270975 0.192159 -0.789195
C33   C     C_R   0.358006 0.297176 0.061042 0.428696
C34   C     C_2   0.584262 0.866319 0.471090 0.322990
C35   C     C_2   0.415496 0.133180 0.489035 0.356789
C36   C     C_2   0.490773 0.931770 0.442614 0.470454
C37   C     C_2   0.508242 0.066829 0.440853 0.479233
C38   C     C_2   0.928841 0.517412 0.501625 0.635895
F1    F     F_    0.381668 0.300045 0.248380 -0.602266
F2    F     F_    0.884957 0.615222 0.553473 -0.579416
F3    F     F_    0.109595 0.628119 0.603217 -0.511355
F4    F     F_    0.882803 0.345025 0.420045 -0.525413
F5    F     F_    0.576428 0.713563 0.757695 -0.621867
F6    F     F_    0.584776 0.839464 0.082367 -0.617465
F7    F     F_    0.313821 0.190307 0.927504 -0.693500
F8    F     F_    0.625756 0.122085 0.396932 -0.584909
F9    F     F_    0.372608 0.875746 0.423579 -0.588091
F10   F     F_    0.296784 0.076764 0.529728 -0.584210
F11   F     F_    0.703674 0.923347 0.486535 -0.588222
F12   F     F_    0.122787 0.414109 0.423621 -0.623476
H1    H     H_    0.794398 0.817331 0.193645 0.209274
H2    H     H_    0.619433 0.218509 0.637333 0.261708
H3    H     H_    0.703450 0.311316 0.717110 0.239068
H4    H     H_    0.785336 0.115928 0.773553 0.252115
H5    H     H_    0.837782 0.139159 0.653125 0.298954
H6    H     H_    0.701995 0.023961 0.692496 0.299657
H7    H     H_    0.446809 0.000402 0.912565 0.206893
H8    H     H_    0.377829 0.884696 0.994286 0.158412
H9    H     H_    0.381308 0.857656 0.785825 0.282936
H10   H     H_    0.302173 0.746007 0.871411 0.216833
H11   H     H_    0.157508 0.918296 0.940274 0.253225
H12   H     H_    0.778664 0.694897 0.112971 0.126095
H13   H     H_    0.130797 0.866421 0.828194 0.284473
H14   H     H_    0.225935 0.012938 0.840873 0.321862
H15   H     H_    0.113129 0.094164 0.129464 0.177775
H16   H     H_    0.125254 0.216842 0.047819 0.155212
H17   H     H_    0.113596 0.248174 0.256001 0.330276
H18   H     H_    0.131485 0.376506 0.175932 0.208005
H19   H     H_    0.913568 0.302176 0.126286 0.230888
H20   H     H_    0.895332 0.333579 0.246344 0.315256
H21   H     H_    0.894747 0.173521 0.207080 0.294957
H22   H     H_    0.815953 0.658575 0.313471 0.270597
H23   H     H_    0.805129 0.535564 0.229908 0.232736
H24   H     H_    0.010161 0.632356 0.134998 0.253501
H25   H     H_    0.040371 0.596550 0.248088 0.286433
H26   H     H_    0.021928 0.756710 0.217755 0.287565
H27   H     H_    0.484118 0.096837 0.766691 0.195461
H28   H     H_    0.561941 0.192613 0.846169 0.146059
N1    N     N_2   0.842700 0.448880 0.462930 0.079654
N2    N     N_2   0.157300 0.551120 0.537070 0.113778
O1    O     O_R   0.431060 0.692470 0.507460 -0.564075
O2    O     O_3   0.430574 0.277293 0.770836 -0.591104
O3    O     O_3   0.551179 0.844139 0.903833 -0.565551
O4    O     O_3   0.294880 0.196095 0.112781 -0.538540
O5    O     O_R   0.568940 0.307530 0.492540 -0.581124
O6    O     O_R   0.651120 0.659650 0.483670 -0.559902
O7    O     O_R   0.348880 0.340350 0.516330 -0.547197
O8    O     O_R   0.389960 0.516440 0.644050 -0.587114
O9    O     O_R   0.610040 0.483560 0.355950 -0.633816
O10   O     O_R   0.610030 0.483620 0.620260 -0.604244
O11   O     O_R   0.389970 0.516380 0.379740 -0.566932
O12   O     O_3   0.619223 0.706008 0.222538 -0.591181
Zn1   Zn    Zn3+2 0.353060 0.521920 0.515880 1.187413
Zn2   Zn    Zn3+2 0.646940 0.478080 0.484120 1.123300

loop_
_geom_bond_atom_site_label_1
_geom_bond_atom_site_label_2
_ccdc_geom_bond_type
C29   H13   S    
C11   C18   A    
C22   H26   S    
C26   H5    S    
F3    N2    S    
C31   H17   S    
C20   O12   S    
C17   C23   A    
C23   O3    S    
C12   O5    A    
C3    O10   A    
C36   C37   S    
C35   C37   D    
C25   H3    S    
C20   H1    S    
C30   C31   S    
C11   C14   A    
C38   N1    D    
C1    O1    A    
C21   H23   S    
C36   F9    S    
C15   C17   A    
O9    Zn2   S    
C24   O2    S    
C5    C16   A    
C2    F12   S    
C10   C13   A    
O6    Zn2   S    
C4    O11   A    
C29   H14   S    
F4    N1    S    
C21   C22   S    
C20   H12   S    
C22   H25   S    
C4    C7    S    
C35   F10   S    
C26   H4    S    
C9    O12   S    
C1    C34   S    
O10   Zn2   S    
C32   H21   S    
C28   H10   S    
C31   H18   S    
C29   H11   S    
C13   C19   A    
C21   H22   S    
C18   C23   A    
C24   C25   S    
N1    Zn2   S    
C3    C8    S    
C27   H7    S    
C5    C7    A    
C32   H20   S    
C25   C26   S    
C10   O2    S    
C18   F6    S    
C16   C33   A    
O11   Zn1   S    
O1    Zn1   S    
O5    Zn2   S    
C2    C38   S    
C31   C32   S    
C12   C35   S    
C9    C11   A    
C30   H16   S    
C24   H28   S    
C6    F5    S    
C13   C15   A    
C19   C33   A    
C14   C16   A    
C22   H24   S    
C4    O9    A    
C28   H9    S    
C1    O6    A    
C7    C9    A    
C6    C17   A    
O8    Zn1   S    
C28   C29   S    
C34   F11   S    
C12   O7    A    
C3    O8    A    
C27   H8    S    
C26   H6    S    
C6    C8    A    
C19   F7    S    
C32   H19   S    
C5    F1    S    
C37   F8    S    
C25   H2    S    
C38   F2    S    
O7    Zn1   S    
C27   O3    S    
C34   C36   D    
C30   O4    S    
C33   O4    S    
C30   H15   S    
C2    N2    D    
C24   H27   S    
C20   C21   S    
C8    C10   A    
C27   C28   S    
C14   C15   A    
N2    Zn1   S    
