data_mof_unit_60075.cif
_audit_creation_date              2012-12-10T18:18:25-0500
_audit_creation_method            fapswitch 2.2
_symmetry_space_group_name_H-M    P1
_symmetry_Int_Tables_number       1
_space_group_crystal_system       triclinic
_cell_length_a                    29.176516
_cell_length_b                    29.176534
_cell_length_c                    55.748161
_cell_angle_alpha                 90.000241
_cell_angle_beta                  90.000094
_cell_angle_gamma                 90.000516
_cell_volume                      47456.7153302

loop_
_atom_site_label
_atom_site_type_symbol
_atom_type_description
_atom_site_fract_x
_atom_site_fract_y
_atom_site_fract_z
_atom_type_partial_charge
C1    C     C_R   0.086729 0.500000 0.500000 0.938231
C2    C     C_R   0.500000 0.086729 0.500000 0.939854
C3    C     C_R   0.913271 0.500000 0.500000 0.938230
C4    C     C_R   0.500000 0.913270 0.500000 0.939854
C5    C     C_R   0.586729 0.000000 1.000000 0.939997
C6    C     C_R   0.000000 0.586729 0.000000 0.938234
C7    C     C_R   0.413270 1.000000 1.000000 0.939998
C8    C     C_R   1.000000 0.413270 0.000000 0.938234
C9    C     C_R   0.500000 0.585739 0.500000 0.876206
C10   C     C_R   0.414261 0.500000 0.500000 0.876207
C11   C     C_R   0.500000 0.414261 0.500000 0.876206
C12   C     C_R   0.585739 0.500000 0.500000 0.876207
C13   C     C_R   1.000000 0.085739 0.000000 0.876206
C14   C     C_R   0.914261 1.000000 1.000000 0.876205
C15   C     C_R   1.000000 0.914261 1.000000 0.876205
C16   C     C_R   0.085739 0.000000 0.000000 0.876206
C17   C     C_R   0.033126 0.474318 0.388508 0.403337
C18   C     C_R   0.524549 0.966028 0.388494 0.402792
C19   C     C_R   0.966875 0.525681 0.388508 0.403335
C20   C     C_R   0.475451 0.033973 0.388494 0.402793
C21   C     C_R   0.033125 0.525683 0.611492 0.403336
C22   C     C_R   0.524534 0.033983 0.611505 0.402784
C23   C     C_R   0.966874 0.474318 0.611492 0.403336
C24   C     C_R   0.475465 0.966018 0.611505 0.402784
C25   C     C_R   0.534032 0.024466 0.888497 0.402735
C26   C     C_R   0.025679 0.533128 0.888508 0.403336
C27   C     C_R   0.465967 0.975534 0.888497 0.402722
C28   C     C_R   0.974321 0.466872 0.888508 0.403336
C29   C     C_R   0.534069 0.975584 0.111502 0.402754
C30   C     C_R   0.025680 0.466873 0.111492 0.403335
C31   C     C_R   0.465933 0.024417 0.111503 0.402768
C32   C     C_R   0.974321 0.533126 0.111492 0.403335
C33   C     C_R   0.033776 0.474933 0.413801 0.087799
C34   C     C_R   0.524036 0.965487 0.413797 0.087218
C35   C     C_R   0.966224 0.525066 0.413800 0.087799
C36   C     C_R   0.475964 0.034513 0.413797 0.087218
C37   C     C_R   0.033776 0.525068 0.586200 0.087799
C38   C     C_R   0.524023 0.034523 0.586202 0.087210
C39   C     C_R   0.966224 0.474933 0.586199 0.087798
C40   C     C_R   0.475976 0.965478 0.586202 0.087211
C41   C     C_R   0.534567 0.023960 0.913799 0.087184
C42   C     C_R   0.025064 0.533778 0.913801 0.087798
C43   C     C_R   0.465433 0.976040 0.913800 0.087194
C44   C     C_R   0.974936 0.466222 0.913800 0.087797
C45   C     C_R   0.534597 0.976084 0.086199 0.087139
C46   C     C_R   0.025065 0.466223 0.086199 0.087798
C47   C     C_R   0.465403 0.023917 0.086199 0.087133
C48   C     C_R   0.974935 0.533777 0.086200 0.087797
C49   C     C_R   0.000000 0.500000 0.426299 -0.270232
C50   C     C_R   0.500000 0.000000 0.426293 -0.268141
C51   C     C_R   1.000000 0.500000 0.573701 -0.270231
C52   C     C_R   0.500000 0.000000 0.573707 -0.268116
C53   C     C_R   0.500000 1.000000 0.926294 -0.267991
C54   C     C_R   1.000000 0.500000 0.926299 -0.270226
C55   C     C_R   0.500000 0.000000 0.073705 -0.267910
C56   C     C_R   0.000000 0.500000 0.073701 -0.270227
C57   C     C_R   0.000000 0.499999 0.376261 0.155898
C58   C     C_R   0.500000 0.000001 0.376251 0.159278
C59   C     C_R   1.000000 0.500000 0.623739 0.155895
C60   C     C_R   0.499999 0.000001 0.623749 0.159331
C61   C     C_R   0.499998 0.000001 0.876254 0.159608
C62   C     C_R   1.000000 0.500000 0.876261 0.155904
C63   C     C_R   0.500002 0.000002 0.123745 0.159645
C64   C     C_R   0.000000 0.500000 0.123739 0.155902
C65   C     C_1   0.137382 0.500000 0.500000 -0.137724
C66   C     C_1   0.500000 0.137382 0.500000 -0.136166
C67   C     C_1   0.862618 0.500000 0.500000 -0.137723
C68   C     C_1   0.500000 0.862618 0.500000 -0.136167
C69   C     C_1   0.637382 0.000000 1.000000 -0.136025
C70   C     C_1   0.000000 0.637382 1.000000 -0.137719
C71   C     C_1   0.362618 1.000000 0.000000 -0.136024
C72   C     C_1   1.000000 0.362618 0.000000 -0.137718
C73   C     C_1   0.179576 0.500000 0.500000 0.047840
C74   C     C_1   0.500000 0.179576 0.500000 0.048445
C75   C     C_1   0.820424 0.500000 0.500000 0.047840
C76   C     C_1   0.500000 0.820424 0.500000 0.048445
C77   C     C_1   0.679576 0.000000 0.000000 0.048495
C78   C     C_1   0.000000 0.679576 1.000000 0.047842
C79   C     C_1   0.320424 1.000000 0.000000 0.048496
C80   C     C_1   1.000000 0.320424 0.000000 0.047843
C81   C     C_1   0.229388 0.500000 0.500000 0.040897
C82   C     C_1   0.500000 0.229387 0.500000 0.041023
C83   C     C_1   0.770612 0.500000 0.500000 0.040897
C84   C     C_1   0.500000 0.770613 0.500000 0.041023
C85   C     C_1   0.729387 0.000000 0.000000 0.041032
C86   C     C_1   0.000000 0.729387 1.000000 0.040898
C87   C     C_1   0.270613 1.000000 0.000000 0.041033
C88   C     C_1   1.000000 0.270612 0.000000 0.040899
C89   C     C_1   0.271585 0.500000 0.500000 0.034572
C90   C     C_1   0.500000 0.271584 0.500000 0.034623
C91   C     C_1   0.728415 0.500000 0.500000 0.034572
C92   C     C_1   0.500000 0.728415 0.500000 0.034623
C93   C     C_1   0.771584 0.000000 1.000000 0.034626
C94   C     C_1   1.000000 0.771585 1.000000 0.034574
C95   C     C_1   0.228416 1.000000 0.000000 0.034626
C96   C     C_1   1.000000 0.228415 0.000000 0.034575
C97   C     C_1   0.321398 0.500000 0.500000 0.026248
C98   C     C_1   0.500000 0.321398 0.500000 0.026258
C99   C     C_1   0.678602 0.500000 0.500000 0.026248
C100  C     C_1   0.500000 0.678602 0.500000 0.026258
C101  C     C_1   0.821398 0.000000 1.000000 0.026259
C102  C     C_1   1.000000 0.821398 1.000000 0.026249
C103  C     C_1   0.178602 1.000000 0.000000 0.026259
C104  C     C_1   0.000000 0.178602 0.000000 0.026250
C105  C     C_R   1.000000 0.500000 0.452508 1.054666
C106  C     C_R   0.500000 1.000000 0.452507 1.055703
C107  C     C_R   1.000000 0.500000 0.547492 1.054667
C108  C     C_R   0.500000 0.000000 0.547493 1.055725
C109  C     C_R   0.500000 1.000000 0.952507 1.055790
C110  C     C_R   1.000000 0.500000 0.952508 1.054672
C111  C     C_R   0.500000 0.000000 0.047493 1.055861
C112  C     C_R   1.000000 0.500000 0.047492 1.054669
C113  C     C_1   0.363597 0.500000 0.500000 -0.180201
C114  C     C_1   0.500000 0.363597 0.500000 -0.180201
C115  C     C_1   0.636403 0.500000 0.500000 -0.180201
C116  C     C_1   0.500000 0.636403 0.500000 -0.180201
C117  C     C_1   0.863597 0.000000 1.000000 -0.180199
C118  C     C_1   1.000000 0.863597 1.000000 -0.180199
C119  C     C_1   0.136403 1.000000 0.000000 -0.180199
C120  C     C_1   0.000000 0.136403 0.000000 -0.180199
C121  C     C_R   0.030600 0.529309 0.262724 0.043658
C122  C     C_R   0.530510 0.029379 0.262714 0.043545
C123  C     C_R   0.969401 0.470689 0.262723 0.043658
C124  C     C_R   0.469492 0.970623 0.262713 0.043546
C125  C     C_R   0.030601 0.470694 0.737276 0.043658
C126  C     C_R   0.530568 0.970687 0.737285 0.043545
C127  C     C_R   0.969398 0.529307 0.737276 0.043658
C128  C     C_R   0.469429 0.029315 0.737285 0.043545
C129  C     C_R   0.471034 0.030902 0.762719 0.043542
C130  C     C_R   0.970684 0.530594 0.762724 0.043658
C131  C     C_R   0.528963 0.969100 0.762719 0.043543
C132  C     C_R   0.029315 0.469407 0.762724 0.043658
C133  C     C_R   0.471100 0.969040 0.237279 0.043542
C134  C     C_R   0.970688 0.469403 0.237276 0.043657
C135  C     C_R   0.528902 0.030962 0.237280 0.043541
C136  C     C_R   0.029313 0.530595 0.237276 0.043658
C137  C     C_R   0.000001 0.499999 0.275296 0.085559
C138  C     C_R   0.500001 0.000001 0.275289 0.085675
C139  C     C_R   1.000000 0.500000 0.724705 0.085559
C140  C     C_R   0.499999 0.000001 0.724709 0.085673
C141  C     C_R   0.499998 0.000001 0.775295 0.085658
C142  C     C_R   1.000000 0.500001 0.775296 0.085558
C143  C     C_R   0.500001 0.000001 0.224704 0.085657
C144  C     C_R   0.000001 0.499999 0.224704 0.085559
C145  C     C_R   0.061779 0.556197 0.276168 -0.192769
C146  C     C_R   0.561951 0.055993 0.276129 -0.193031
C147  C     C_R   0.938223 0.443801 0.276168 -0.192769
C148  C     C_R   0.438051 0.944009 0.276128 -0.193031
C149  C     C_R   0.061782 0.443808 0.723832 -0.192768
C150  C     C_R   0.562064 0.944138 0.723870 -0.193031
C151  C     C_R   0.938218 0.556193 0.723832 -0.192768
C152  C     C_R   0.437933 0.055864 0.723870 -0.193031
C153  C     C_R   0.444845 0.062698 0.776135 -0.193028
C154  C     C_R   0.943789 0.561766 0.776168 -0.192769
C155  C     C_R   0.555152 0.937304 0.776134 -0.193031
C156  C     C_R   0.056211 0.438235 0.776168 -0.192768
C157  C     C_R   0.444976 0.937190 0.223864 -0.193030
C158  C     C_R   0.943796 0.438227 0.223832 -0.192768
C159  C     C_R   0.555027 0.062812 0.223864 -0.193027
C160  C     C_R   0.056206 0.561771 0.223832 -0.192769
C161  C     C_R   0.061701 0.555604 0.301046 -0.113738
C162  C     C_R   0.562079 0.055199 0.301015 -0.113629
C163  C     C_R   0.938301 0.444394 0.301046 -0.113738
C164  C     C_R   0.437922 0.944803 0.301014 -0.113630
C165  C     C_R   0.061704 0.444401 0.698954 -0.113737
C166  C     C_R   0.562191 0.944932 0.698984 -0.113632
C167  C     C_R   0.938296 0.555600 0.698954 -0.113737
C168  C     C_R   0.437807 0.055070 0.698984 -0.113632
C169  C     C_R   0.445638 0.062814 0.801020 -0.113647
C170  C     C_R   0.944383 0.561688 0.801046 -0.113737
C171  C     C_R   0.554358 0.937188 0.801020 -0.113650
C172  C     C_R   0.055617 0.438313 0.801046 -0.113737
C173  C     C_R   0.445770 0.937076 0.198978 -0.113651
C174  C     C_R   0.944389 0.438305 0.198954 -0.113737
C175  C     C_R   0.554234 0.062926 0.198979 -0.113649
C176  C     C_R   0.055612 0.561693 0.198954 -0.113736
C177  C     C_R   0.030830 0.528005 0.313536 -0.053718
C178  C     C_R   0.531067 0.027758 0.313521 -0.053076
C179  C     C_R   0.969171 0.471992 0.313535 -0.053720
C180  C     C_R   0.468934 0.972244 0.313521 -0.053075
C181  C     C_R   0.030831 0.471997 0.686465 -0.053720
C182  C     C_R   0.531123 0.972308 0.686478 -0.053065
C183  C     C_R   0.969168 0.528004 0.686465 -0.053719
C184  C     C_R   0.468875 0.027694 0.686478 -0.053065
C185  C     C_R   0.472659 0.031435 0.813527 -0.053012
C186  C     C_R   0.971987 0.530824 0.813536 -0.053719
C187  C     C_R   0.527337 0.968566 0.813527 -0.053002
C188  C     C_R   0.028012 0.469177 0.813536 -0.053719
C189  C     C_R   0.472726 0.968510 0.186472 -0.052999
C190  C     C_R   0.971991 0.469172 0.186464 -0.053719
C191  C     C_R   0.527277 0.031492 0.186472 -0.053007
C192  C     C_R   0.028010 0.530826 0.186465 -0.053719
C193  C     C_R   0.000001 0.499999 0.300765 -0.046324
C194  C     C_R   0.500001 0.000001 0.300755 -0.046291
C195  C     C_R   1.000000 0.500000 0.699235 -0.046323
C196  C     C_R   0.499999 0.000001 0.699243 -0.046287
C197  C     C_R   0.499998 0.000001 0.800761 -0.046259
C198  C     C_R   1.000000 0.500001 0.800765 -0.046322
C199  C     C_R   0.500002 0.000001 0.199238 -0.046258
C200  C     C_R   0.000001 0.499999 0.199235 -0.046323
C201  C     C_R   0.030203 0.527540 0.338664 0.619491
C202  C     C_R   0.530566 0.027144 0.338655 0.619133
C203  C     C_R   0.969798 0.472457 0.338664 0.619492
C204  C     C_R   0.469435 0.972858 0.338655 0.619133
C205  C     C_R   0.030204 0.472461 0.661336 0.619493
C206  C     C_R   0.530620 0.972921 0.661344 0.619126
C207  C     C_R   0.969795 0.527540 0.661336 0.619490
C208  C     C_R   0.469379 0.027081 0.661344 0.619126
C209  C     C_R   0.473262 0.030922 0.838661 0.619100
C210  C     C_R   0.972452 0.530197 0.838664 0.619491
C211  C     C_R   0.526734 0.969079 0.838661 0.619081
C212  C     C_R   0.027548 0.469804 0.838664 0.619491
C213  C     C_R   0.473329 0.969025 0.161338 0.619087
C214  C     C_R   0.972456 0.469800 0.161336 0.619491
C215  C     C_R   0.526675 0.030977 0.161338 0.619104
C216  C     C_R   0.027545 0.530199 0.161336 0.619492
H1    H     H_    0.087455 0.577696 0.268089 0.148373
H2    H     H_    0.587755 0.077272 0.267983 0.148732
H3    H     H_    0.912546 0.422302 0.268088 0.148373
H4    H     H_    0.412247 0.922730 0.267982 0.148732
H5    H     H_    0.087460 0.422311 0.731912 0.148372
H6    H     H_    0.587912 0.922914 0.732017 0.148734
H7    H     H_    0.912540 0.577690 0.731912 0.148372
H8    H     H_    0.412086 0.077089 0.732017 0.148734
H9    H     H_    0.423916 0.088786 0.767988 0.148741
H10   H     H_    0.922285 0.587438 0.768089 0.148373
H11   H     H_    0.576080 0.911216 0.767988 0.148741
H12   H     H_    0.077715 0.412563 0.768088 0.148373
H13   H     H_    0.424101 0.911059 0.232010 0.148742
H14   H     H_    0.922294 0.412553 0.231911 0.148373
H15   H     H_    0.575901 0.088943 0.232011 0.148742
H16   H     H_    0.077707 0.587445 0.231912 0.148373
H17   H     H_    0.086185 0.576945 0.310472 0.195680
H18   H     H_    0.586781 0.076301 0.310431 0.195604
H19   H     H_    0.913816 0.423053 0.310471 0.195679
H20   H     H_    0.413219 0.923701 0.310430 0.195604
H21   H     H_    0.086189 0.423062 0.689528 0.195680
H22   H     H_    0.586937 0.923882 0.689568 0.195605
H23   H     H_    0.913810 0.576939 0.689529 0.195680
H24   H     H_    0.413061 0.076120 0.689568 0.195605
H25   H     H_    0.424870 0.087797 0.810437 0.195611
H26   H     H_    0.923036 0.586168 0.810472 0.195680
H27   H     H_    0.575126 0.912205 0.810437 0.195611
H28   H     H_    0.076964 0.413833 0.810472 0.195681
H29   H     H_    0.425053 0.912050 0.189562 0.195612
H30   H     H_    0.923045 0.413823 0.189528 0.195681
H31   H     H_    0.574951 0.087952 0.189562 0.195613
H32   H     H_    0.076956 0.586175 0.189529 0.195680
N1    N     N_R   0.000000 0.499999 0.350601 -0.299711
N2    N     N_R   0.500000 0.000001 0.350590 -0.298747
N3    N     N_R   1.000000 0.500000 0.649399 -0.299712
N4    N     N_R   0.499999 0.000001 0.649409 -0.298731
N5    N     N_R   0.499998 0.000001 0.850595 -0.298646
N6    N     N_R   1.000000 0.500001 0.850601 -0.299709
N7    N     N_R   0.500002 0.000001 0.149404 -0.298638
N8    N     N_R   0.000000 0.499999 0.149399 -0.299710
O1    O     O_R   0.063110 0.464380 0.500020 -0.592199
O2    O     O_R   0.535620 0.063110 0.500020 -0.592334
O3    O     O_R   0.936890 0.535620 0.500020 -0.592199
O4    O     O_R   0.464380 0.936890 0.500020 -0.592334
O5    O     O_R   0.063110 0.535620 0.499980 -0.592200
O6    O     O_R   0.535620 0.936890 0.499980 -0.592331
O7    O     O_R   0.936890 0.464380 0.499980 -0.592199
O8    O     O_R   0.464380 0.063110 0.499980 -0.592330
O9    O     O_R   0.563110 0.964380 0.000020 -0.592354
O10   O     O_R   0.035620 0.563110 0.000020 -0.592200
O11   O     O_R   0.436890 0.035620 0.000020 -0.592351
O12   O     O_R   0.964380 0.436890 0.000020 -0.592200
O13   O     O_R   0.563110 0.035620 0.999980 -0.592341
O14   O     O_R   0.035620 0.436890 0.999980 -0.592199
O15   O     O_R   0.436890 0.964380 0.999980 -0.592344
O16   O     O_R   0.964380 0.563110 0.999980 -0.592200
O17   O     O_R   0.999990 0.464380 0.464400 -0.590411
O18   O     O_R   0.535620 0.999990 0.464400 -0.590760
O19   O     O_R   0.000010 0.535620 0.464400 -0.590410
O20   O     O_R   0.464380 0.000010 0.464400 -0.590760
O21   O     O_R   0.999990 0.535620 0.535600 -0.590413
O22   O     O_R   0.535620 0.000010 0.535600 -0.590763
O23   O     O_R   0.000010 0.464380 0.535600 -0.590412
O24   O     O_R   0.464380 0.999990 0.535600 -0.590764
O25   O     O_R   0.499990 0.964380 0.964400 -0.590795
O26   O     O_R   0.035620 0.499990 0.964400 -0.590413
O27   O     O_R   0.500010 0.035620 0.964400 -0.590784
O28   O     O_R   0.964380 0.500010 0.964400 -0.590413
O29   O     O_R   0.499990 0.035620 0.035600 -0.590796
O30   O     O_R   0.035620 0.500010 0.035600 -0.590413
O31   O     O_R   0.500010 0.964380 0.035600 -0.590803
O32   O     O_R   0.964380 0.499990 0.035600 -0.590412
O33   O     O_2   0.059393 0.554415 0.351118 -0.526950
O34   O     O_2   0.560319 0.053380 0.351114 -0.528566
O35   O     O_2   0.940608 0.445583 0.351117 -0.526949
O36   O     O_2   0.439681 0.946622 0.351114 -0.528565
O37   O     O_2   0.059396 0.445589 0.648883 -0.526948
O38   O     O_2   0.560425 0.946744 0.648885 -0.528594
O39   O     O_2   0.940604 0.554412 0.648883 -0.526948
O40   O     O_2   0.439573 0.053257 0.648885 -0.528594
O41   O     O_2   0.447414 0.061011 0.851121 -0.528743
O42   O     O_2   0.945572 0.559381 0.851117 -0.526952
O43   O     O_2   0.552582 0.938990 0.851120 -0.528761
O44   O     O_2   0.054428 0.440620 0.851117 -0.526952
O45   O     O_2   0.447541 0.938884 0.148878 -0.528768
O46   O     O_2   0.945578 0.440613 0.148882 -0.526949
O47   O     O_2   0.552463 0.061119 0.148879 -0.528754
O48   O     O_2   0.054423 0.559386 0.148883 -0.526950
O49   O     O_R   0.500000 0.563170 0.479920 -0.587685
O50   O     O_R   0.436830 0.500000 0.479920 -0.587686
O51   O     O_R   0.500000 0.436830 0.479920 -0.587686
O52   O     O_R   0.563170 0.500000 0.479920 -0.587685
O53   O     O_R   0.500000 0.436830 0.520080 -0.587685
O54   O     O_R   0.436830 0.500000 0.520080 -0.587685
O55   O     O_R   0.500000 0.563170 0.520080 -0.587685
O56   O     O_R   0.563170 0.500000 0.520080 -0.587685
O57   O     O_R   1.000000 0.063170 0.979920 -0.587684
O58   O     O_R   0.936830 0.000000 0.979920 -0.587686
O59   O     O_R   1.000000 0.936830 0.979920 -0.587685
O60   O     O_R   0.063170 0.000000 0.979920 -0.587684
O61   O     O_R   1.000000 0.936830 0.020080 -0.587685
O62   O     O_R   0.936830 0.000000 0.020080 -0.587684
O63   O     O_R   1.000000 0.063170 0.020080 -0.587685
O64   O     O_R   0.063170 0.000000 0.020080 -0.587685
Zn1   Zn    Zn3+2 1.000000 0.452430 0.500000 1.082084
Zn2   Zn    Zn3+2 0.547570 0.000000 0.500000 1.081578
Zn3   Zn    Zn3+2 1.000000 0.547570 0.500000 1.082083
Zn4   Zn    Zn3+2 0.452430 0.000000 0.500000 1.081578
Zn5   Zn    Zn3+2 0.500000 0.952430 0.000000 1.081541
Zn6   Zn    Zn3+2 0.047570 0.500000 0.000000 1.082084
Zn7   Zn    Zn3+2 0.500000 0.047570 0.000000 1.081556
Zn8   Zn    Zn3+2 0.952430 0.500000 0.000000 1.082084
Zn9   Zn    Zn3+2 0.500000 0.500000 0.473170 1.010660
Zn10  Zn    Zn3+2 0.500000 0.500000 0.526830 1.010661
Zn11  Zn    Zn3+2 0.000000 0.000000 0.973170 1.010666
Zn12  Zn    Zn3+2 0.000000 0.000000 0.026830 1.010666
O65   O     O_3   0.064207 0.449763 0.374888 -0.716132
H33   H     H_    0.081997 0.428820 0.385210 0.385630
O66   O     O_3   0.547905 0.934061 0.374859 -0.717481
H34   H     H_    0.567897 0.915228 0.385188 0.386144
O67   O     O_3   0.935794 0.550235 0.374888 -0.716132
H35   H     H_    0.918005 0.571180 0.385210 0.385630
O68   O     O_3   0.452095 0.065940 0.374859 -0.717482
H36   H     H_    0.432103 0.084773 0.385189 0.386144
O69   O     O_3   0.064206 0.550238 0.625112 -0.716130
H37   H     H_    0.081993 0.571185 0.614790 0.385629
O70   O     O_3   0.547874 0.065963 0.625141 -0.717504
H38   H     H_    0.567854 0.084809 0.614811 0.386153
O71   O     O_3   0.935793 0.449763 0.625112 -0.716130
H39   H     H_    0.918005 0.428817 0.614790 0.385630
O72   O     O_3   0.452124 0.934039 0.625140 -0.717504
H40   H     H_    0.432144 0.915193 0.614811 0.386153
O73   O     O_3   0.566066 0.047728 0.874860 -0.717619
H41   H     H_    0.584970 0.067653 0.885189 0.386195
O74   O     O_3   0.050230 0.564212 0.874888 -0.716133
H42   H     H_    0.071173 0.582004 0.885210 0.385632
O75   O     O_3   0.433933 0.952270 0.874861 -0.717608
H43   H     H_    0.415051 0.932323 0.885189 0.386186
O76   O     O_3   0.949770 0.435788 0.874888 -0.716135
H44   H     H_    0.928827 0.417997 0.885210 0.385632
O77   O     O_3   0.566138 0.952372 0.125139 -0.717643
H45   H     H_    0.585091 0.932496 0.114809 0.386210
O78   O     O_3   0.050233 0.435790 0.125112 -0.716132
H46   H     H_    0.071176 0.418000 0.114790 0.385631
O79   O     O_3   0.433864 0.047629 0.125140 -0.717656
H47   H     H_    0.414894 0.067487 0.114809 0.386218
O80   O     O_3   0.949768 0.564209 0.125112 -0.716132
H48   H     H_    0.928825 0.582000 0.114790 0.385631
Br1   Br    Br    0.082359 0.444692 0.431389 -0.466731
Br2   Br    Br    0.553091 0.916269 0.431444 -0.469083
Br3   Br    Br    0.917640 0.555307 0.431388 -0.466729
Br4   Br    Br    0.446909 0.083731 0.431445 -0.469084
Br5   Br    Br    0.082359 0.555310 0.568612 -0.466728
Br6   Br    Br    0.553064 0.083749 0.568554 -0.469112
Br7   Br    Br    0.917641 0.444691 0.568611 -0.466729
Br8   Br    Br    0.446936 0.916251 0.568554 -0.469111
Br9   Br    Br    0.583833 0.052925 0.931451 -0.469268
Br10  Br    Br    0.055302 0.582364 0.931389 -0.466734
Br11  Br    Br    0.416164 0.947079 0.931451 -0.469253
Br12  Br    Br    0.944697 0.417637 0.931388 -0.466733
Br13  Br    Br    0.583886 0.947166 0.068544 -0.469358
Br14  Br    Br    0.055305 0.417639 0.068611 -0.466732
Br15  Br    Br    0.416116 0.052838 0.068544 -0.469369
Br16  Br    Br    0.944695 0.582361 0.068612 -0.466732

loop_
_geom_bond_atom_site_label_1
_geom_bond_atom_site_label_2
_ccdc_geom_bond_type
C5    O9    A    
O77   H45   S    
C160  C176  A    
O53   Zn10  S    
O16   Zn8   S    
C17   O65   S    
O67   H35   S    
O65   H33   S    
C177  C193  A    
C124  C133  A    
C153  H9    S    
O9    Zn5   S    
C21   C59   A    
C22   C60   A    
O11   Zn7   S    
C98   C114  T    
C10   O50   A    
C154  C170  A    
O22   Zn2   S    
C149  H5    S    
C209  N5    A    
C158  C174  A    
C2    O8    A    
O19   Zn3   S    
C209  O41   S    
C206  N4    A    
C12   C115  S    
C156  H12   S    
C175  H31   S    
C4    O4    A    
C79   C87   S    
O21   Zn3   S    
O28   Zn8   S    
C141  C197  A    
C73   C81   S    
C139  C195  A    
O15   Zn5   S    
C133  C143  A    
C123  C134  A    
C212  O44   S    
C33   Br1   S    
C25   C41   A    
C122  C146  A    
C41   Br9   S    
C28   C44   A    
C29   C45   A    
C159  H15   S    
C146  C162  A    
O76   H44   S    
C144  C200  A    
C188  C198  A    
O64   Zn12  S    
C10   C113  S    
C125  C149  A    
O10   Zn6   S    
C187  C211  A    
C96   C104  S    
O26   Zn6   S    
C185  C209  A    
C213  N7    A    
C37   Br5   S    
C161  C177  A    
C36   C50   A    
C174  H30   S    
C179  C193  A    
C53   C109  S    
C61   N5    S    
C55   C111  S    
C9    C116  S    
C165  H21   S    
C90   C98   S    
C32   O80   S    
C184  C208  A    
C30   O78   S    
C140  C196  A    
C9    O55   A    
C166  H22   S    
C83   C91   T    
O60   Zn11  S    
C11   O53   A    
C15   C118  S    
C80   C88   S    
C19   C35   A    
C188  C212  A    
O57   Zn11  S    
C145  C161  A    
C3    O3    A    
C7    O15   A    
C29   C63   A    
C12   O52   A    
C192  C200  A    
C14   O58   A    
C21   O69   S    
C206  O38   S    
O24   Zn4   S    
O66   H34   S    
C146  H2    S    
C62   N6    S    
O6    Zn2   S    
C161  H17   S    
C94   C102  S    
C4    O6    A    
C89   C97   S    
O78   H46   S    
C202  O34   S    
C185  C197  A    
C91   C99   S    
C33   C49   A    
C127  C139  A    
C22   C38   A    
C39   C51   A    
O73   H41   S    
C183  C207  A    
C69   C77   T    
O74   H42   S    
C166  C182  A    
O5    Zn3   S    
C104  C120  T    
C128  C129  A    
C71   C79   T    
C157  H13   S    
C176  H32   S    
C23   C59   A    
C155  H11   S    
C107  O21   A    
C109  O27   A    
C151  C167  A    
C110  O28   A    
O63   Zn12  S    
C150  C166  A    
C24   O72   S    
C35   Br3   S    
C54   C110  S    
C208  N4    A    
C121  C137  A    
C26   O74   S    
C8    O14   A    
C127  C151  A    
O54   Zn10  S    
O55   Zn10  S    
C85   C93   T    
C128  C152  A    
C87   C95   T    
C35   C49   A    
C1    C65   S    
C160  H16   S    
C131  C141  A    
C189  C199  A    
C135  C143  A    
C77   C85   S    
C95   C103  S    
O58   Zn11  S    
C10   O54   A    
C11   O51   A    
C214  N8    A    
C148  C164  A    
C31   C63   A    
C149  C165  A    
C32   C64   A    
O52   Zn9   S    
O50   Zn9   S    
C4    C68   S    
C16   O64   A    
C156  C172  A    
C182  C206  A    
C162  H18   S    
C25   O73   S    
C190  C214  A    
C14   C117  S    
C215  N7    A    
C145  H1    S    
C130  C154  A    
C7    O11   A    
C41   C53   A    
C189  C213  A    
C51   C107  S    
C134  C158  A    
C179  C203  A    
O8    Zn4   S    
C201  N1    A    
C59   N3    S    
C177  C201  A    
C67   C75   T    
C20   C58   A    
O59   Zn11  S    
C13   C120  S    
C26   C42   A    
C171  H27   S    
O20   Zn4   S    
O3    Zn3   S    
O51   Zn9   S    
C169  H25   S    
C2    C66   S    
C213  O45   S    
C110  O26   A    
C68   C76   T    
C215  O47   S    
C123  C137  A    
O17   Zn1   S    
C216  O48   S    
C105  O17   A    
C9    O49   A    
C128  C140  A    
C72   C80   T    
C147  C163  A    
C129  C153  A    
C126  C150  A    
C132  C156  A    
C151  H7    S    
C133  C157  A    
C130  C142  A    
C208  O40   S    
C162  C178  A    
C163  H19   S    
C134  C144  A    
C136  C160  A    
C44   C54   A    
C182  C196  A    
C45   C55   A    
C17   C57   A    
C84   C92   T    
C45   Br13  S    
C97   C113  T    
O29   Zn7   S    
C28   C62   A    
C88   C96   T    
C30   C64   A    
C164  H20   S    
C32   C48   A    
C100  C116  T    
C76   C84   S    
O75   H43   S    
C190  C200  A    
C168  H24   S    
C19   C57   A    
C178  C194  A    
C12   O56   A    
C154  H10   S    
C124  C138  A    
C99   C115  T    
C129  C141  A    
C15   O59   A    
C203  O35   S    
C27   O75   S    
C5    C69   S    
C191  C215  A    
C203  N1    A    
C43   C53   A    
C106  O18   A    
C48   Br16  S    
C183  C195  A    
O80   H48   S    
C164  C180  A    
C81   C89   T    
C216  N8    A    
C31   C47   A    
C150  H6    S    
C40   Br8   S    
C17   C33   A    
C74   C82   S    
C152  C168  A    
C30   C46   A    
C1    O1    A    
C138  C194  A    
C103  C119  T    
C8    C72   S    
C29   O77   S    
C105  O19   A    
C106  O20   A    
C122  C138  A    
C20   O68   S    
O72   H40   S    
O4    Zn4   S    
C49   C105  S    
C184  C196  A    
C211  O43   S    
C210  O42   S    
O68   H36   S    
C170  C186  A    
C25   C61   A    
C148  H4    S    
C174  C190  A    
C186  C210  A    
C38   Br6   S    
C60   N4    S    
O25   Zn5   S    
C93   C101  S    
O27   Zn7   S    
C16   O60   A    
C173  H29   S    
C6    C70   S    
C180  C204  A    
C23   O71   S    
C5    O13   A    
C82   C90   T    
C101  C117  T    
O23   Zn1   S    
C131  C155  A    
C136  C144  A    
C42   C54   A    
C175  C191  A    
C75   C83   S    
C34   Br2   S    
C18   C58   A    
C121  C136  A    
C212  N6    A    
C181  C195  A    
C122  C135  A    
C20   C36   A    
C27   C43   A    
O31   Zn5   S    
C21   C37   A    
C153  C169  A    
C50   C106  S    
C111  O31   A    
C186  C198  A    
C163  C179  A    
C157  C173  A    
C214  O46   S    
C66   C74   T    
O70   H38   S    
C70   C78   T    
C47   Br15  S    
C13   O63   A    
C8    O12   A    
C107  O23   A    
C158  H14   S    
C15   O61   A    
C65   C73   T    
O32   Zn8   S    
C22   O70   S    
C125  C139  A    
C126  C140  A    
C187  C197  A    
C28   O76   S    
C191  C199  A    
C39   Br7   S    
C7    C71   S    
C37   C51   A    
C176  C192  A    
C38   C52   A    
C207  O39   S    
C109  O25   A    
C173  C189  A    
C11   C114  S    
C210  N6    A    
C86   C94   T    
C167  C183  A    
C168  C184  A    
O14   Zn6   S    
O1    Zn1   S    
C27   C61   A    
C102  C118  T    
C204  N2    A    
C78   C86   S    
O12   Zn8   S    
C159  C175  A    
C142  C198  A    
O62   Zn12  S    
C112  O30   A    
C211  N5    A    
C108  O22   A    
O30   Zn6   S    
O61   Zn12  S    
C132  C142  A    
C137  C193  A    
C34   C50   A    
O56   Zn10  S    
C6    O16   A    
C147  H3    S    
C16   C119  S    
C46   Br14  S    
O13   Zn7   S    
C40   C52   A    
C43   Br11  S    
C181  C205  A    
C6    O10   A    
C205  N3    A    
O7    Zn1   S    
C135  C159  A    
C24   C60   A    
C111  O29   A    
C18   C34   A    
C172  H28   S    
C1    O5    A    
C2    O2    A    
C123  C147  A    
C3    O7    A    
C178  C202  A    
C121  C145  A    
C58   N2    S    
C13   O57   A    
C44   Br12  S    
C205  O37   S    
C14   O62   A    
C180  C194  A    
C92   C100  S    
C47   C55   A    
C48   C56   A    
C201  O33   S    
C124  C148  A    
C170  H26   S    
C3    C67   S    
C18   O66   S    
O2    Zn2   S    
C46   C56   A    
C36   Br4   S    
O18   Zn2   S    
C143  C199  A    
O79   H47   S    
C171  C187  A    
C165  C181  A    
C152  H8    S    
C26   C62   A    
C127  C130  A    
C169  C185  A    
C63   N7    S    
C31   O79   S    
C125  C132  A    
C207  N3    A    
C126  C131  A    
C172  C188  A    
C23   C39   A    
C167  H23   S    
C24   C40   A    
C192  C216  A    
C204  O36   S    
C155  C171  A    
C52   C108  S    
C202  N2    A    
O69   H37   S    
C42   Br10  S    
O49   Zn9   S    
C112  O32   A    
O71   H39   S    
C108  O24   A    
C57   N1    S    
C56   C112  S    
C19   O67   S    
C64   N8    S    
