data_mof_unit_32628.cif
_audit_creation_date              2013-03-05T16:45:52-0500
_audit_creation_method            fapswitch 2.2
_symmetry_space_group_name_H-M    P1
_symmetry_Int_Tables_number       1
_space_group_crystal_system       triclinic
_cell_length_a                    18.287263
_cell_length_b                    18.286418
_cell_length_c                    18.279648
_cell_angle_alpha                 60.095157
_cell_angle_beta                  60.096475
_cell_angle_gamma                 60.074327
_cell_volume                      4331.13484098

loop_
_atom_site_label
_atom_site_type_symbol
_atom_site_description
_atom_site_fract_x
_atom_site_fract_y
_atom_site_fract_z
_atom_type_partial_charge
Zn1   Zn    Zn3+2 0.206620 0.206630 0.380140 0.960703
Zn2   Zn    Zn3+2 0.793380 0.793370 0.619860 0.963476
Zn3   Zn    Zn3+2 0.206630 0.380140 0.206620 0.960417
Zn4   Zn    Zn3+2 0.793370 0.619860 0.793380 0.960104
Zn5   Zn    Zn3+2 0.380140 0.206620 0.206630 0.960423
Zn6   Zn    Zn3+2 0.619860 0.793380 0.793370 0.963477
Zn7   Zn    Zn3+2 0.206620 0.206620 0.206620 0.955344
Zn8   Zn    Zn3+2 0.793380 0.793380 0.793380 0.954697
O1    O     O_3   0.250000 0.250000 0.250000 -0.483841
O2    O     O_3   0.750000 0.750000 0.750000 -0.484744
O3    O     O_R   0.305080 0.134200 0.134200 -0.639316
O4    O     O_R   0.694920 0.865800 0.865800 -0.639874
O5    O     O_R   0.134200 0.134200 0.305080 -0.639382
O6    O     O_R   0.865800 0.865800 0.694920 -0.639892
O7    O     O_R   0.134200 0.305080 0.134200 -0.638543
O8    O     O_R   0.865800 0.694920 0.865800 -0.638744
O9    O     O_R   0.134200 0.305090 0.426530 -0.646348
O10   O     O_R   0.865800 0.694910 0.573470 -0.646330
O11   O     O_R   0.305090 0.426530 0.134200 -0.646276
O12   O     O_R   0.694910 0.573470 0.865800 -0.646365
O13   O     O_R   0.426530 0.134200 0.305090 -0.645884
O14   O     O_R   0.573470 0.865800 0.694910 -0.645925
O15   O     O_R   0.134190 0.426530 0.134200 -0.636498
O16   O     O_R   0.865810 0.573470 0.865800 -0.636452
O17   O     O_R   0.426530 0.134200 0.134190 -0.636176
O18   O     O_R   0.573470 0.865800 0.865810 -0.635071
O19   O     O_R   0.134200 0.134190 0.426530 -0.636351
O20   O     O_R   0.865800 0.865810 0.573470 -0.635709
O21   O     O_R   0.426530 0.305080 0.134210 -0.635886
O22   O     O_R   0.573470 0.694920 0.865790 -0.636388
O23   O     O_R   0.305080 0.134210 0.426530 -0.635655
O24   O     O_R   0.694920 0.865790 0.573470 -0.635889
O25   O     O_R   0.134210 0.426530 0.305080 -0.635679
O26   O     O_R   0.865790 0.573470 0.694920 -0.635616
C1    C     C_R   0.389760 0.110117 0.110161 0.795280
C2    C     C_R   0.610240 0.889864 0.889861 0.795070
C3    C     C_R   0.110102 0.110156 0.389790 0.794577
C4    C     C_R   0.889874 0.889883 0.610243 0.793613
C5    C     C_R   0.110160 0.389765 0.110114 0.795892
C6    C     C_R   0.889844 0.610235 0.889882 0.795928
C7    C     C_R   0.108849 0.390244 0.389891 0.785848
C8    C     C_R   0.891148 0.609753 0.610109 0.785533
C9    C     C_R   0.390268 0.389883 0.108841 0.785951
C10   C     C_R   0.609732 0.610117 0.891161 0.785716
C11   C     C_R   0.389892 0.108708 0.390218 0.785923
C12   C     C_R   0.610106 0.891312 0.609748 0.810145
H1    H     H_    0.809159 0.286536 0.533498 0.135246
H2    H     H_    0.191640 0.712801 0.468674 0.135280
H3    H     H_    0.291378 0.516852 0.804148 0.133170
H4    H     H_    0.708625 0.483157 0.195846 0.132401
H5    H     H_    0.509121 0.802268 0.293418 0.134052
H6    H     H_    0.490919 0.197707 0.706611 0.132491
C13   C     C_R   0.181405 0.926162 0.402066 -0.157326
C14   C     C_R   0.819491 0.073088 0.600400 -0.160476
C15   C     C_R   0.923988 0.409391 0.183689 -0.157610
C16   C     C_R   0.076013 0.590624 0.816309 -0.158438
C17   C     C_R   0.413420 0.184740 0.922879 -0.158944
C18   C     C_R   0.586625 0.815248 0.077145 -0.159409
C19   C     C_R   0.217045 0.836544 0.408633 -0.159319
C20   C     C_R   0.783997 0.162576 0.594219 -0.155510
C21   C     C_R   0.833249 0.419830 0.220435 -0.160919
C22   C     C_R   0.166751 0.580187 0.779562 -0.160647
C23   C     C_R   0.425927 0.221978 0.831602 -0.161725
C24   C     C_R   0.574128 0.778011 0.168419 -0.160272
C25   C     C_R   0.163657 0.782569 0.463217 -0.145727
C26   C     C_R   0.837050 0.216849 0.538701 -0.145782
C27   C     C_R   0.779211 0.474746 0.167041 -0.144774
C28   C     C_R   0.220792 0.525261 0.832953 -0.144402
C29   C     C_R   0.480928 0.168548 0.777590 -0.142996
C30   C     C_R   0.519106 0.831433 0.222440 -0.144542
C31   C     C_R   0.074327 0.817994 0.511356 -0.145984
C32   C     C_R   0.925977 0.181773 0.489463 -0.145297
C33   C     C_R   0.815707 0.519253 0.076575 -0.143935
C34   C     C_R   0.184299 0.480744 0.923417 -0.144272
C35   C     C_R   0.523420 0.077557 0.814649 -0.144483
C36   C     C_R   0.476583 0.922418 0.185394 -0.145970
C37   C     C_R   0.036369 0.909074 0.505386 0.054413
C38   C     C_R   0.963855 0.090762 0.495207 0.055353
C39   C     C_R   0.907870 0.509349 0.037561 0.054841
C40   C     C_R   0.092137 0.490646 0.962431 0.055016
C41   C     C_R   0.511462 0.038084 0.907318 0.053756
C42   C     C_R   0.488544 0.961893 0.092719 0.055365
C43   C     C_R   0.090692 0.963818 0.450220 0.057620
C44   C     C_R   0.909708 0.035859 0.550854 0.056592
C45   C     C_R   0.962642 0.454013 0.091899 0.058207
C46   C     C_R   0.037363 0.545988 0.908095 0.058217
C47   C     C_R   0.456088 0.092447 0.962066 0.058771
C48   C     C_R   0.543930 0.907533 0.037965 0.058691
C49   C     C_R   0.946163 0.945773 0.554645 -0.171330
C50   C     C_R   0.053939 0.054168 0.445637 -0.170951
C51   C     C_R   0.945826 0.554486 0.946067 -0.170007
C52   C     C_R   0.054181 0.445510 0.053926 -0.170012
C53   C     C_R   0.554505 0.946042 0.945856 -0.168759
C54   C     C_R   0.445498 0.053934 0.054177 -0.168554
H7    H     H_    0.226089 0.964963 0.359827 0.126714
H8    H     H_    0.775029 0.034088 0.643409 0.125950
H9    H     H_    0.962993 0.366894 0.228235 0.124054
H10   H     H_    0.037006 0.633128 0.771765 0.124273
H11   H     H_    0.370858 0.229249 0.961929 0.122917
H12   H     H_    0.629200 0.770745 0.038089 0.122864
H13   H     H_    0.286561 0.808770 0.371648 0.133576
H14   H     H_    0.714830 0.190029 0.632205 0.133872
H15   H     H_    0.804693 0.385553 0.290768 0.131773
H16   H     H_    0.195305 0.614473 0.709230 0.132481
H17   H     H_    0.393164 0.292698 0.802632 0.132138
H18   H     H_    0.606913 0.707295 0.197383 0.132267
H19   H     H_    0.035876 0.772981 0.553738 0.119115
H20   H     H_    0.964234 0.226954 0.446583 0.118827
H21   H     H_    0.770801 0.561785 0.037949 0.115458
H22   H     H_    0.229206 0.438208 0.962042 0.115538
H23   H     H_    0.565993 0.038838 0.769834 0.117248
H24   H     H_    0.433982 0.961120 0.230233 0.113966
C55   C     C_R   0.015248 0.673265 0.171694 0.173921
C56   C     C_R   0.984992 0.326329 0.828202 0.173797
C57   C     C_R   0.673391 0.169888 0.022587 0.176206
C58   C     C_R   0.326566 0.830086 0.977551 0.174879
C59   C     C_R   0.175912 0.001793 0.676360 0.172418
C60   C     C_R   0.820763 0.008718 0.316811 0.172235
C61   C     C_R   0.023781 0.635668 0.256389 -0.277527
C62   C     C_R   0.976450 0.364012 0.743500 -0.279570
C63   C     C_R   0.635655 0.255510 0.029041 -0.280419
C64   C     C_R   0.364302 0.744477 0.971065 -0.280193
C65   C     C_R   0.259049 0.013618 0.638360 -0.286811
C66   C     C_R   0.738393 0.995268 0.354737 -0.304139
C67   C     C_R   0.982855 0.572223 0.325847 0.115806
C68   C     C_R   0.017115 0.427711 0.674185 0.116136
C69   C     C_R   0.573895 0.324371 0.985659 0.115486
C70   C     C_R   0.426120 0.675616 0.014378 0.115453
C71   C     C_R   0.328038 0.978796 0.570289 0.117927
C72   C     C_R   0.671946 0.021239 0.429102 0.130329
C73   C     C_R   0.931769 0.546609 0.310704 0.130196
C74   C     C_R   0.067990 0.453457 0.689466 0.130141
C75   C     C_R   0.550371 0.307755 0.933971 0.130697
C76   C     C_R   0.449699 0.692218 0.066032 0.130525
C77   C     C_R   0.313950 0.930549 0.540326 0.130522
C78   C     C_R   0.687989 0.062206 0.465171 0.128780
C79   C     C_R   0.922540 0.585466 0.225916 -0.275620
C80   C     C_R   0.077210 0.414532 0.774265 -0.275860
C81   C     C_R   0.589436 0.222058 0.926771 -0.275593
C82   C     C_R   0.410638 0.777901 0.073262 -0.275404
C83   C     C_R   0.230613 0.918331 0.579271 -0.278209
C84   C     C_R   0.770172 0.076259 0.426535 -0.286220
C85   C     C_R   0.964326 0.648224 0.156455 0.177820
C86   C     C_R   0.035649 0.351554 0.843596 0.177744
C87   C     C_R   0.650258 0.153122 0.971236 0.177366
C88   C     C_R   0.349761 0.846837 0.028862 0.177430
C89   C     C_R   0.161679 0.953902 0.646820 0.177957
C90   C     C_R   0.836684 0.049428 0.352792 0.181006
C91   C     C_R   0.943458 0.586533 0.469055 -0.240611
C92   C     C_R   0.056539 0.413447 0.530952 -0.241887
C93   C     C_R   0.587164 0.468442 0.944762 -0.241508
C94   C     C_R   0.412838 0.531556 0.055247 -0.241863
C95   C     C_R   0.469954 0.941857 0.585719 -0.251943
C96   C     C_R   0.530317 0.057304 0.413859 -0.259487
C97   C     C_R   0.948613 0.553160 0.554442 -0.056558
C98   C     C_R   0.051392 0.446828 0.445562 -0.056577
C99   C     C_R   0.553088 0.554499 0.948579 -0.057047
C100  C     C_R   0.446914 0.445501 0.051428 -0.057425
C101  C     C_R   0.554421 0.948718 0.553143 -0.037306
C102  C     C_R   0.445716 0.050801 0.446613 -0.048460
C103  C     C_R   0.006355 0.465936 0.585659 0.041128
C104  C     C_R   0.993644 0.534043 0.414350 0.040550
C105  C     C_R   0.465193 0.586331 0.005024 0.041138
C106  C     C_R   0.534811 0.413666 0.994990 0.040989
C107  C     C_R   0.584977 0.007558 0.466416 0.047280
C108  C     C_R   0.415387 0.991596 0.533047 0.044158
H25   H     H_    0.898398 0.653137 0.445518 0.167352
H26   H     H_    0.101586 0.346834 0.554494 0.166118
H27   H     H_    0.654288 0.444343 0.900759 0.165555
H28   H     H_    0.345715 0.555655 0.099252 0.165403
H29   H     H_    0.447127 0.895733 0.651797 0.163363
H30   H     H_    0.552989 0.103604 0.347849 0.164238
N1    N     N_3   0.954728 0.687141 0.070343 -0.421293
H31   H     H_    0.979175 0.635426 0.046010 0.198993
H32   H     H_    0.886447 0.717984 0.078745 0.188929
N2    N     N_3   0.045208 0.312602 0.929730 -0.420686
H33   H     H_    0.020529 0.364284 0.954194 0.199115
H34   H     H_    0.113492 0.281952 0.921325 0.188911
N3    N     N_3   0.688995 0.065949 0.964076 -0.422621
H35   H     H_    0.637026 0.042266 0.987719 0.199303
H36   H     H_    0.721707 0.072409 0.896267 0.188192
N4    N     N_3   0.311035 0.933999 0.036045 -0.422454
H37   H     H_    0.363005 0.957697 0.012356 0.199477
H38   H     H_    0.278375 0.927517 0.103862 0.188191
N5    N     N_3   0.077237 0.940807 0.686218 -0.420905
H39   H     H_    0.050771 0.968238 0.635377 0.199283
H40   H     H_    0.088702 0.871973 0.712421 0.187403
N6    N     N_3   0.920313 0.064011 0.313819 -0.421011
H41   H     H_    0.950006 0.030498 0.363238 0.199622
H42   H     H_    0.907117 0.132434 0.294841 0.186277
N7    N     N_3   0.058176 0.737118 0.100927 -0.432945
H43   H     H_    0.126849 0.706961 0.090668 0.182528
H44   H     H_    0.034828 0.790747 0.122253 0.178153
N8    N     N_3   0.942356 0.262191 0.898812 -0.432693
H45   H     H_    0.965963 0.208626 0.877295 0.178566
H46   H     H_    0.873671 0.292114 0.909118 0.182570
N9    N     N_3   0.735332 0.099703 0.068181 -0.436040
H47   H     H_    0.703404 0.091200 0.136476 0.179986
H48   H     H_    0.788985 0.120621 0.045689 0.176125
N10   N     N_3   0.264570 0.900277 0.932023 -0.435144
H49   H     H_    0.210919 0.879348 0.954532 0.177633
H50   H     H_    0.296453 0.908828 0.863717 0.182112
N11   N     N_3   0.105800 0.038052 0.745393 -0.431483
H51   H     H_    0.092518 0.107180 0.720139 0.182998
H52   H     H_    0.129386 0.011268 0.798286 0.179017
N12   N     N_3   0.888327 0.981425 0.241396 -0.429823
H53   H     H_    0.861409 0.014266 0.189870 0.178543
H54   H     H_    0.903402 0.912748 0.259536 0.183244
H55   H     H_    0.063005 0.655443 0.267903 0.148062
H56   H     H_    0.937434 0.344092 0.731868 0.148199
H57   H     H_    0.653833 0.268168 0.068722 0.147884
H58   H     H_    0.346078 0.731828 0.931415 0.148421
H59   H     H_    0.269820 0.050312 0.661784 0.150214
H60   H     H_    0.726302 0.964180 0.326363 0.151701
N13   N     N_3   0.888331 0.482775 0.381791 -0.463117
H61   H     H_    0.937917 0.420063 0.392706 0.160082
H62   H     H_    0.846638 0.477832 0.362108 0.174015
N14   N     N_3   0.111247 0.517478 0.618501 -0.463760
H63   H     H_    0.061560 0.580140 0.607775 0.160229
H64   H     H_    0.152933 0.522393 0.638215 0.173760
N15   N     N_3   0.488249 0.378199 0.888104 -0.463173
H65   H     H_    0.424753 0.390321 0.936332 0.161239
H66   H     H_    0.484727 0.357271 0.846471 0.173814
N16   N     N_3   0.511872 0.621772 0.111838 -0.463881
H67   H     H_    0.575351 0.609696 0.063576 0.161171
H68   H     H_    0.515410 0.642675 0.153480 0.173708
N17   N     N_3   0.384839 0.892439 0.472366 -0.463073
H69   H     H_    0.391561 0.944722 0.411310 0.160777
H70   H     H_    0.367253 0.850007 0.466065 0.171910
N18   N     N_3   0.620547 0.090509 0.540125 -0.474589
H71   H     H_    0.647325 0.057738 0.591746 0.159629
H72   H     H_    0.606112 0.159132 0.521446 0.178281
H73   H     H_    0.882657 0.567346 0.213609 0.152773
H74   H     H_    0.116920 0.432766 0.786679 0.152741
H75   H     H_    0.572856 0.208571 0.886539 0.152527
H76   H     H_    0.427261 0.791375 0.113468 0.152703
H77   H     H_    0.219154 0.880681 0.557661 0.150758
H78   H     H_    0.782073 0.108921 0.453262 0.153676

loop_
_geom_bond_atom_site_label_1
_geom_bond_atom_site_label_2
_geom_bond_distance
_ccdc_geom_bond_type
Zn7   O5    1.934856 S    
N8    H46   1.045802 S    
N11   H51   1.045761 S    
C15   C45   1.417218 A    
C69   C106  1.482555 S    
C42   C54   1.413340 A    
H3    C28   1.082638 S    
C31   H19   1.081972 S    
C95   C108  1.388978 A    
C13   H7    1.081878 S    
C28   C34   1.393566 A    
Zn3   O15   1.932504 S    
C67   C104  1.482648 S    
C91   H25   1.084961 S    
C16   H10   1.082058 S    
C9    C100  1.453202 S    
N16   H67   1.044995 S    
C14   C44   1.417722 A    
C13   C19   1.393203 A    
C66   H60   1.083897 S    
N1    H31   1.044689 S    
C89   N5    1.431339 S    
Zn7   O3    1.934058 S    
N11   H52   1.045735 S    
C4    C49   1.451846 S    
C37   C49   1.413975 A    
Zn5   O1    1.945226 S    
C77   N17   1.437214 S    
C71   C108  1.483158 S    
C57   C63   1.402342 A    
C93   C99   1.399034 A    
Zn2   O24   1.933500 S    
C60   N12   1.431291 S    
C63   C69   1.403011 A    
C46   C51   1.413353 A    
N13   H62   1.045786 S    
C76   C82   1.406543 A    
C58   N10   1.431497 S    
C62   C68   1.402990 A    
N5    H40   1.045656 S    
Zn2   O10   1.933457 S    
Zn3   O25   1.933314 S    
C74   C80   1.406611 A    
Zn6   O14   1.933296 S    
C47   C54   1.413182 A    
Zn1   O23   1.933498 S    
C15   H9    1.082057 S    
C41   C53   1.413327 A    
N6    H42   1.045707 S    
C59   C89   1.401910 A    
N9    H48   1.045704 S    
C67   C73   1.411559 A    
N4    H37   1.044991 S    
C32   C38   1.417288 A    
H6    C29   1.082652 S    
C55   C61   1.402302 A    
C16   C46   1.417225 A    
C2    C53   1.451005 S    
C26   C32   1.393413 A    
N5    H39   1.044495 S    
C32   H20   1.081972 S    
N10   H49   1.045709 S    
O26   C8    1.274063 A    
C75   N15   1.437213 S    
C96   C107  1.388709 A    
Zn3   O11   1.934351 S    
C27   C33   1.393558 A    
H5    C30   1.082654 S    
C24   C30   1.390070 A    
H2    C25   1.082641 S    
C23   H17   1.082702 S    
C68   C103  1.482670 S    
H4    C27   1.082639 S    
C99   C105  1.413767 A    
H1    C26   1.082641 S    
O5    C3    1.272534 A    
C42   C48   1.411552 A    
C100  C106  1.413762 A    
C7    C98   1.452346 S    
Zn7   O7    1.934029 S    
N8    H45   1.045688 S    
C79   C85   1.402759 A    
C20   C26   1.389552 A    
Zn8   O8    1.934031 S    
C71   C77   1.412121 A    
O21   C9    1.274012 A    
C34   H22   1.082188 S    
C62   H56   1.083880 S    
C10   C99   1.453197 S    
O22   C10   1.274012 A    
N9    H47   1.045867 S    
C11   C102  1.452057 S    
C72   C78   1.409489 A    
C20   H14   1.082763 S    
O12   C10   1.280077 A    
C45   C52   1.413354 A    
O11   C9    1.280080 A    
C17   C23   1.393522 A    
O13   C11   1.279236 A    
N1    H32   1.045622 S    
C18   C24   1.393527 A    
C55   N7    1.431427 S    
Zn4   O26   1.933312 S    
C61   H55   1.083874 S    
O9    C7    1.279701 A    
C88   N4    1.431413 S    
C73   N13   1.437233 S    
N7    H43   1.045804 S    
C19   H13   1.082758 S    
Zn1   O1    1.944826 S    
C23   C29   1.390057 A    
C18   H12   1.082153 S    
C36   C42   1.416856 A    
C57   N9    1.431466 S    
N12   H53   1.045672 S    
C35   C41   1.416774 A    
C14   C20   1.393176 A    
C25   C31   1.393494 A    
C78   N18   1.432318 S    
C97   C103  1.413339 A    
C22   H16   1.082671 S    
C38   C50   1.413871 A    
C55   C85   1.402065 A    
C18   C48   1.417108 A    
N6    H41   1.044767 S    
C56   C86   1.402072 A    
C95   C101  1.399311 A    
N13   H61   1.044931 S    
N7    H44   1.045676 S    
C96   C102  1.398263 A    
N15   H65   1.044996 S    
Zn3   O1    1.945109 S    
C70   C76   1.411393 A    
O6    C4    1.271982 A    
C94   H28   1.084993 S    
C21   C27   1.389911 A    
N14   H64   1.045785 S    
N17   H69   1.044663 S    
C68   C74   1.411577 A    
C36   H24   1.082240 S    
C63   H57   1.083887 S    
C92   H26   1.084982 S    
Zn7   O1    1.941581 S    
C86   N2    1.431400 S    
C33   C39   1.416952 A    
C96   H30   1.085117 S    
C95   H29   1.085044 S    
C56   C62   1.402296 A    
C60   C66   1.403031 A    
N18   H72   1.045505 S    
C40   C52   1.413479 A    
C84   C90   1.402322 A    
O7    C5    1.272437 A    
C41   C47   1.411510 A    
C78   C84   1.403417 A    
O8    C6    1.272442 A    
C94   C100  1.399039 A    
Zn5   O17   1.932475 S    
C3    C50   1.451497 S    
O18   C2    1.273578 A    
N2    H33   1.044721 S    
O14   C12   1.279722 A    
O17   C1    1.273535 A    
C75   C81   1.406538 A    
C102  C108  1.412729 A    
C65   H59   1.083913 S    
C81   H75   1.082302 S    
C17   C47   1.417127 A    
C64   H58   1.083878 S    
C101  C107  1.413855 A    
C80   H74   1.082296 S    
O4    C2    1.272440 A    
C44   C49   1.414036 A    
C85   N1    1.431395 S    
C21   H15   1.082663 S    
C79   H73   1.082319 S    
Zn2   O2    1.944823 S    
Zn5   O21   1.934292 S    
C61   C67   1.402966 A    
C5    C52   1.450937 S    
C31   C37   1.417217 A    
Zn1   O19   1.933474 S    
C58   C64   1.402360 A    
C1    C54   1.450920 S    
C84   H78   1.081435 S    
C43   C50   1.413720 A    
C48   C53   1.413217 A    
C81   C87   1.402745 A    
C76   N16   1.437225 S    
Zn8   O6    1.934858 S    
C56   N8    1.431428 S    
C74   N14   1.437232 S    
Zn6   O22   1.934291 S    
C19   C25   1.389649 A    
O24   C12   1.274384 A    
C87   N3    1.431414 S    
C83   H77   1.082427 S    
C69   C75   1.411401 A    
N16   H68   1.045761 S    
Zn6   O2    1.945227 S    
Zn2   O20   1.933474 S    
C92   C103  1.388047 A    
C64   C70   1.403029 A    
C24   H18   1.082702 S    
N3    H35   1.044996 S    
C92   C98   1.398921 A    
C57   C87   1.402284 A    
C35   H23   1.082123 S    
C93   H27   1.084993 S    
C22   C28   1.389916 A    
C13   C43   1.417602 A    
O25   C7    1.274076 A    
O10   C8    1.279751 A    
C8    C97   1.452408 S    
C59   C65   1.402132 A    
N15   H66   1.045771 S    
N17   H70   1.045840 S    
C80   C86   1.402746 A    
C40   C46   1.411502 A    
C66   C72   1.403880 A    
C30   C36   1.393628 A    
C58   C88   1.402266 A    
C72   C107  1.484084 S    
N14   H63   1.044912 S    
Zn6   O18   1.932473 S    
O19   C3    1.273193 A    
Zn4   O16   1.932502 S    
O15   C5    1.273506 A    
C12   C101  1.452775 S    
C15   C21   1.393402 A    
N2    H34   1.045622 S    
O16   C6    1.273494 A    
C39   C45   1.411499 A    
C29   C35   1.393614 A    
C16   C22   1.393404 A    
C33   H21   1.082186 S    
C70   C105  1.482580 S    
C6    C51   1.450935 S    
C91   C97   1.398954 A    
N18   H71   1.045658 S    
C39   C51   1.413472 A    
N4    H38   1.045660 S    
C38   C44   1.411545 A    
C94   C105  1.387915 A    
C83   C89   1.402710 A    
C98   C104  1.413262 A    
C60   C90   1.402484 A    
Zn4   O12   1.934349 S    
C82   C88   1.402750 A    
C90   N6    1.431333 S    
C77   C83   1.406654 A    
Zn5   O13   1.933293 S    
Zn1   O9    1.933458 S    
Zn8   O2    1.941580 S    
C93   C106  1.387905 A    
O23   C11   1.274408 A    
C82   H76   1.082282 S    
C37   C43   1.411646 A    
C34   C40   1.416950 A    
C91   C104  1.388038 A    
O3    C1    1.272444 A    
O20   C4    1.273956 A    
C59   N11   1.431365 S    
N12   H54   1.045741 S    
Zn4   O2    1.945112 S    
C14   H8    1.081629 S    
N10   H50   1.045863 S    
C65   C71   1.403110 A    
Zn8   O4    1.934059 S    
C73   C79   1.406621 A    
N3    H36   1.045661 S    
C17   H11   1.082153 S    
