data_mof_unit_10829.cif
_audit_creation_date              2013-03-05T15:40:54-0500
_audit_creation_method            fapswitch 2.2
_symmetry_space_group_name_H-M    P1
_symmetry_Int_Tables_number       1
_space_group_crystal_system       triclinic
_cell_length_a                    17.419867
_cell_length_b                    24.389581
_cell_length_c                    14.934196
_cell_angle_alpha                 89.908805
_cell_angle_beta                  125.201534
_cell_angle_gamma                 89.783345
_cell_volume                      5184.5869388

loop_
_atom_site_label
_atom_site_type_symbol
_atom_site_description
_atom_site_fract_x
_atom_site_fract_y
_atom_site_fract_z
_atom_type_partial_charge
C1    C     C_R   0.834906 0.647027 0.906416 -0.071125
C2    C     C_R   0.171586 0.643060 0.091972 -0.074958
C3    C     C_R   0.308223 0.124207 0.906253 -0.068317
C4    C     C_R   0.674468 0.141134 0.091677 -0.074899
H1    H     H_    0.790497 0.661465 0.822675 0.112947
H2    H     H_    0.218758 0.657215 0.175311 0.113687
H3    H     H_    0.249932 0.127841 0.821766 0.154253
H4    H     H_    0.724997 0.153972 0.175094 0.131055
N1    N     N_R   0.892320 0.603520 0.941090 -0.046306
N2    N     N_R   0.107680 0.603520 0.058910 -0.048062
N3    N     N_R   0.392320 0.103520 0.941090 -0.051867
N4    N     N_R   0.607680 0.103520 0.058910 -0.049034
C5    C     C_R   0.948550 0.349405 0.092939 -0.119886
C6    C     C_R   0.067929 0.355002 0.906807 -0.116188
C7    C     C_R   0.406762 0.875129 0.093954 -0.085070
C8    C     C_R   0.594105 0.878570 0.904246 -0.083911
H5    H     H_    0.995629 0.334564 0.176213 0.089252
H6    H     H_    0.027689 0.340634 0.823104 0.110278
H7    H     H_    0.433601 0.865918 0.177663 0.095142
H8    H     H_    0.567827 0.874261 0.819141 0.103016
N5    N     N_R   0.953790 0.399020 0.058440 -0.045730
N6    N     N_R   0.046210 0.399020 0.941560 -0.045722
N7    N     N_R   0.453790 0.899020 0.058440 -0.046616
N8    N     N_R   0.546210 0.899020 0.941560 -0.047443
C9    C     C_R   0.980852 0.546549 0.247952 -0.131510
C10   C     C_R   0.966216 0.547055 0.705107 -0.132663
C11   C     C_R   0.524936 0.046416 0.289679 -0.141460
C12   C     C_R   0.450413 0.047425 0.697358 -0.153645
H9    H     H_    0.969239 0.588523 0.259757 0.104002
H10   H     H_    0.953158 0.589088 0.676582 0.096109
H11   H     H_    0.532287 0.088131 0.317529 0.092757
H12   H     H_    0.433490 0.089563 0.669651 0.093262
N9    N     N_R   0.026760 0.529450 0.205590 -0.045227
N10   N     N_R   0.973240 0.529450 0.794410 -0.041688
N11   N     N_R   0.526760 0.029450 0.205590 -0.041440
N12   N     N_R   0.473240 0.029450 0.794410 -0.041238
C13   C     C_R   0.731895 0.454892 0.741191 -0.125329
C14   C     C_R   0.266519 0.454572 0.281503 -0.133170
C15   C     C_R   0.243305 0.955745 0.700169 -0.162622
C16   C     C_R   0.765874 0.954981 0.283866 -0.148034
H13   H     H_    0.710862 0.412511 0.721404 0.103410
H14   H     H_    0.284963 0.412374 0.307984 0.093941
H15   H     H_    0.227719 0.913645 0.672973 0.101083
H16   H     H_    0.784838 0.913334 0.313559 0.093407
N13   N     N_R   0.819350 0.473090 0.793940 -0.043634
N14   N     N_R   0.180650 0.473090 0.206060 -0.039385
N15   N     N_R   0.319350 0.973090 0.793940 -0.039515
N16   N     N_R   0.680650 0.973090 0.206060 -0.040552
C17   C     C_R   0.982078 0.454996 0.248063 -0.106720
C18   C     C_R   0.963827 0.455458 0.703887 -0.119359
C19   C     C_R   0.526182 0.955189 0.289532 -0.144350
C20   C     C_R   0.447190 0.956424 0.695119 -0.132236
H17   H     H_    0.970653 0.412436 0.256620 0.105888
H18   H     H_    0.950794 0.413355 0.676605 0.092152
H19   H     H_    0.535981 0.913287 0.317723 0.100962
H20   H     H_    0.426730 0.914886 0.666008 0.093073
N17   N     N_R   0.027860 0.473090 0.206590 -0.049319
N18   N     N_R   0.972140 0.473090 0.793410 -0.045059
N19   N     N_R   0.527860 0.973090 0.206590 -0.045327
N20   N     N_R   0.472140 0.973090 0.793410 -0.047935
C21   C     C_R   0.729831 0.546864 0.738173 -0.119226
C22   C     C_R   0.267690 0.546664 0.283458 -0.119197
C23   C     C_R   0.242778 0.047015 0.698737 -0.128342
C24   C     C_R   0.768207 0.046811 0.280511 -0.149379
H21   H     H_    0.706405 0.588744 0.714127 0.110823
H22   H     H_    0.286942 0.588407 0.311797 0.102252
H23   H     H_    0.227821 0.089110 0.670654 0.094520
H24   H     H_    0.789974 0.088755 0.304155 0.104806
N21   N     N_R   0.818250 0.529450 0.792940 -0.045024
N22   N     N_R   0.181750 0.529450 0.207060 -0.041387
N23   N     N_R   0.318250 0.029450 0.792940 -0.042402
N24   N     N_R   0.681750 0.029450 0.207060 -0.039791
C25   C     C_R   0.856217 0.349944 0.910967 -0.087061
C26   C     C_R   0.159402 0.355054 0.090245 -0.124826
C27   C     C_R   0.313882 0.876827 0.911028 -0.070381
C28   C     C_R   0.686110 0.876551 0.086971 -0.067453
H25   H     H_    0.818892 0.336251 0.827077 0.075830
H26   H     H_    0.203746 0.341604 0.174664 0.084390
H27   H     H_    0.255611 0.871640 0.826679 0.083447
H28   H     H_    0.743808 0.868045 0.169949 0.083935
N25   N     N_R   0.896320 0.399020 0.944720 -0.045749
N26   N     N_R   0.103680 0.399020 0.055280 -0.041896
N27   N     N_R   0.396320 0.899020 0.944720 -0.047063
N28   N     N_R   0.603680 0.899020 0.055280 -0.048389
C29   C     C_R   0.929086 0.647842 0.089369 -0.157640
C30   C     C_R   0.078708 0.642030 0.907830 -0.149381
C31   C     C_R   0.400847 0.126212 0.089042 -0.120561
C32   C     C_R   0.583237 0.138774 0.907502 -0.141203
H29   H     H_    0.970011 0.662816 0.172614 0.097827
H30   H     H_    0.042009 0.654318 0.822931 0.102844
H31   H     H_    0.427287 0.132972 0.173082 0.094832
H32   H     H_    0.550307 0.148831 0.822136 0.106000
N29   N     N_R   0.949790 0.603520 0.054810 -0.035794
N30   N     N_R   0.050210 0.603520 0.945190 -0.039425
N31   N     N_R   0.449790 0.103520 0.054810 -0.037227
N32   N     N_R   0.550210 0.103520 0.945190 -0.039695
C33   C     C_R   0.855296 0.674485 0.998378 0.006714
C34   C     C_R   0.155342 0.667033 0.998091 0.015137
C35   C     C_R   0.310341 0.137771 0.997639 -0.040473
C36   C     C_R   0.661907 0.162274 0.997818 -0.004842
C37   C     C_R   0.889775 0.317706 0.002419 0.171483
C38   C     C_R   0.138337 0.326734 0.998772 0.101841
C39   C     C_R   0.317969 0.862863 0.003557 0.136727
C40   C     C_R   0.683119 0.865838 0.993861 0.137197
C41   C     C_R   0.949685 0.500646 0.272112 0.128887
C42   C     C_R   0.959735 0.501274 0.646791 0.135128
C43   C     C_R   0.517979 0.000359 0.337943 0.137649
C44   C     C_R   0.431868 0.002395 0.632983 0.143866
C45   C     C_R   0.674833 0.500635 0.706996 0.052526
C46   C     C_R   0.322007 0.500165 0.328697 0.046747
C47   C     C_R   0.194879 0.001487 0.641343 0.049508
C48   C     C_R   0.821487 0.000311 0.325498 0.047633
Ni1   Ni    Ni4+2 0.934100 0.565890 0.869590 0.215655
Ni2   Ni    Ni4+2 0.065900 0.565890 0.130410 0.216046
Ni3   Ni    Ni4+2 0.434100 0.065890 0.869590 0.213244
Ni4   Ni    Ni4+2 0.565900 0.065890 0.130410 0.223066
Ni5   Ni    Ni4+2 0.068420 0.436630 0.132700 0.212245
Ni6   Ni    Ni4+2 0.931580 0.436630 0.867300 0.214157
Ni7   Ni    Ni4+2 0.568420 0.936630 0.132700 0.229546
Ni8   Ni    Ni4+2 0.431580 0.936630 0.867300 0.225601
C49   C     C_3   0.505616 0.455764 0.581746 -0.153931
C50   C     C_3   0.485995 0.453433 0.466831 -0.162471
C51   C     C_3   0.027999 0.978677 0.570418 -0.133288
C52   C     C_3   0.980420 0.948189 0.460715 -0.174476
C53   C     C_3   0.431401 0.501895 0.542964 -0.132890
C54   C     C_3   0.560651 0.497640 0.499600 -0.131968
C55   C     C_3   0.966582 0.029861 0.513336 -0.125149
C56   C     C_3   0.052969 0.971170 0.442444 -0.152631
H33   H     H_    0.375371 0.503602 0.556937 0.125758
H34   H     H_    0.616133 0.495925 0.484673 0.126466
H35   H     H_    0.928401 0.053420 0.539937 0.135073
H36   H     H_    0.091669 0.947676 0.416489 0.117793
H37   H     H_    0.515732 0.420185 0.634047 0.128774
H38   H     H_    0.475368 0.415833 0.419223 0.118797
H39   H     H_    0.046147 0.960755 0.648870 0.120936
H40   H     H_    0.954773 0.905328 0.445871 0.111242
C57   C     C_3   0.413902 0.499515 0.430081 0.165376
C58   C     C_3   0.578813 0.500049 0.612964 0.163497
C59   C     C_3   0.920343 0.999505 0.405022 0.168089
C60   C     C_3   0.098830 0.001658 0.550701 0.173188
C61   C     C_3   0.487247 0.543693 0.461498 -0.153196
C62   C     C_3   0.506678 0.546144 0.576200 -0.152908
C63   C     C_3   0.990486 0.022457 0.384390 -0.149916
C64   C     C_3   0.038572 0.052924 0.494655 -0.150400
H41   H     H_    0.477618 0.579320 0.409507 0.142234
H42   H     H_    0.517519 0.583736 0.623918 0.146044
H43   H     H_    0.971182 0.040283 0.305431 0.123059
H44   H     H_    0.064261 0.095773 0.509289 0.125233
C65   C     C_2   0.139995 0.758138 0.928828 -0.344930
C66   C     C_2   0.868789 0.766316 0.064828 -0.342901
C67   C     C_2   0.746005 0.195158 0.926663 -0.344183
C68   C     C_2   0.251770 0.187009 0.088097 -0.276552
C69   C     C_2   0.197752 0.716708 0.992973 0.343172
C70   C     C_2   0.812486 0.725039 0.000132 0.348531
C71   C     C_2   0.716958 0.204274 0.991916 0.344694
C72   C     C_2   0.232135 0.161113 0.997695 0.336997
H45   H     H_    0.064168 0.753406 0.880371 0.134753
H46   H     H_    0.944709 0.761422 0.115007 0.133663
H47   H     H_    0.726179 0.158002 0.878127 0.145085
H48   H     H_    0.318160 0.181121 0.166891 0.113083
C73   C     C_2   0.801783 0.235197 0.915642 -0.023411
C74   C     C_2   0.200648 0.236618 0.080058 -0.043062
C75   C     C_2   0.175489 0.809923 0.918494 -0.046311
C76   C     C_2   0.830876 0.817179 0.076344 -0.057310
C77   C     C_2   0.872123 0.259915 0.005519 -0.135404
C78   C     C_2   0.172596 0.272654 0.998432 -0.138884
C79   C     C_2   0.248156 0.833356 0.008171 -0.145693
C80   C     C_2   0.755364 0.840105 0.987720 -0.142473
H49   H     H_    0.773091 0.250789 0.834014 0.121521
H50   H     H_    0.198624 0.247054 0.149285 0.112933
H51   H     H_    0.150931 0.823186 0.836692 0.119889
H52   H     H_    0.855490 0.829309 0.158607 0.120318
H53   H     H_    0.901024 0.241801 0.085703 0.136867
H54   H     H_    0.177580 0.263338 0.930911 0.164303
H55   H     H_    0.267815 0.820437 0.088635 0.136408
H56   H     H_    0.735915 0.828904 0.906662 0.142669
C81   C     C_2   0.891135 0.457105 0.367777 -0.084611
C82   C     C_2   0.893215 0.460965 0.466920 -0.116933
C83   C     C_2   0.425629 0.962136 0.394749 -0.107627
C84   C     C_2   0.397569 0.959025 0.469235 -0.118251
C85   C     C_2   0.898879 0.502060 0.322284 -0.175212
C86   C     C_2   0.938225 0.502378 0.537640 -0.197444
C87   C     C_2   0.489313 0.999203 0.410847 -0.198673
C88   C     C_2   0.397487 0.004403 0.518843 -0.202809
H57   H     H_    0.900387 0.416489 0.345790 0.136122
H58   H     H_    0.869615 0.425654 0.488986 0.129883
H59   H     H_    0.400381 0.930604 0.332577 0.125535
H60   H     H_    0.395841 0.918463 0.497806 0.124611
H61   H     H_    0.883214 0.542284 0.339275 0.137093
H62   H     H_    0.964587 0.537350 0.518345 0.136379
H63   H     H_    0.516693 0.030529 0.473580 0.136779
H64   H     H_    0.393343 0.044561 0.484509 0.135736
N33   N     N_R   0.298172 0.717913 0.048205 0.244184
O1    O     O_R   0.352893 0.693674 0.142725 -0.416088
O2    O     O_R   0.333156 0.732812 0.994994 -0.370174
N34   N     N_R   0.711992 0.726237 0.944005 0.243518
O3    O     O_R   0.657783 0.706767 0.845252 -0.423842
O4    O     O_R   0.676422 0.735905 0.998821 -0.371435
N35   N     N_R   0.729555 0.255916 0.045518 0.241559
O5    O     O_R   0.703956 0.301305 0.989109 -0.392340
O6    O     O_R   0.749718 0.256897 0.144027 -0.425226
N36   N     N_R   0.137065 0.160927 0.899743 0.238764
O7    O     O_R   0.119386 0.171213 0.804056 -0.447898
O8    O     O_R   0.066943 0.155138 0.907682 -0.385132

loop_
_geom_bond_atom_site_label_1
_geom_bond_atom_site_label_2
_geom_bond_distance
_ccdc_geom_bond_type
N13   Ni6   1.824154 S    
C28   C40   1.386458 A    
C32   N32   1.327643 A    
C39   C79   1.450784 S    
C31   H31   1.072057 S    
C62   H42   1.110106 S    
C52   C59   1.528620 S    
C29   N29   1.333586 A    
C3    N3    1.336491 A    
C4    H4    1.078817 S    
C72   N36   1.445547 S    
C10   C42   1.381549 A    
C68   H48   1.082602 S    
C11   C43   1.376661 A    
C9    C41   1.381124 A    
C51   C52   1.538502 S    
C16   C48   1.365013 A    
N22   Ni2   1.868898 S    
N10   Ni1   1.842957 S    
C63   H43   1.110258 S    
N33   O1    1.300937 A    
N21   Ni1   1.877866 S    
N9    Ni2   1.843719 S    
C18   H18   1.080967 S    
C27   H27   1.077253 S    
N36   O8    1.301661 A    
C20   N20   1.332877 A    
C13   H13   1.081212 S    
C1    H1    1.080553 S    
N6    N26   1.387921 A    
C15   N15   1.327496 A    
C75   C79   1.332666 D    
N16   N24   1.374788 A    
C14   H14   1.081022 S    
C3    H3    1.073689 S    
N7    Ni7   1.876873 S    
C81   C85   1.336552 D    
C6    C38   1.383632 A    
C83   H59   1.086729 S    
N2    N30   1.387922 A    
C77   H53   1.088205 S    
C63   C64   1.543961 S    
C3    C35   1.384516 A    
N18   Ni6   1.846125 S    
C81   H57   1.084413 S    
C22   N22   1.325240 A    
N11   N19   1.374595 A    
C65   C69   1.352418 D    
C50   H38   1.110124 S    
N5    Ni5   1.876873 S    
C30   N30   1.327064 A    
C41   C85   1.452678 S    
C74   C78   1.343075 D    
C20   H20   1.080682 S    
C85   H61   1.086231 S    
C10   N10   1.337035 A    
C42   C86   1.447019 S    
C32   H32   1.081358 S    
C67   C73   1.454575 S    
C31   N31   1.339548 A    
N9    N17   1.374595 A    
C88   H64   1.087497 S    
N32   Ni3   1.895408 S    
C65   C75   1.454854 S    
C67   C71   1.350347 D    
C14   C46   1.375777 A    
C84   H60   1.084156 S    
C53   C62   1.546808 S    
C83   C87   1.344077 D    
N2    Ni2   1.846647 S    
C64   H44   1.109832 S    
C52   C56   1.545389 S    
C73   H49   1.084039 S    
C7    N7    1.339967 A    
C34   C69   1.446048 S    
C21   C45   1.378949 A    
N35   O5    1.301615 A    
C38   C78   1.446872 S    
C27   C39   1.383987 A    
C55   C64   1.541135 S    
C48   C59   1.420611 S    
C28   N28   1.340112 A    
C2    H2    1.080679 S    
C59   C63   1.529694 S    
C26   N26   1.330677 A    
C56   H36   1.110012 S    
C25   N25   1.333060 A    
C56   C63   1.548974 S    
N30   Ni1   1.895408 S    
C8    C40   1.376381 A    
C47   C60   1.421480 S    
N16   Ni7   1.833040 S    
C31   C35   1.393805 A    
C19   N19   1.328871 A    
C9    H9    1.077118 S    
C49   H37   1.110020 S    
C23   H23   1.080962 S    
C78   H54   1.085124 S    
N8    Ni8   1.867745 S    
N36   O7    1.300279 A    
C52   H40   1.109791 S    
N13   N21   1.374595 A    
C18   N18   1.331330 A    
C68   C72   1.345575 D    
C12   H12   1.081698 S    
C1    N1    1.336999 A    
N34   O4    1.301536 A    
C30   H30   1.081168 S    
C1    C33   1.379544 A    
C54   H34   1.110706 S    
C22   H22   1.080944 S    
C15   H15   1.081345 S    
C53   C57   1.531750 S    
N1    N29   1.387921 A    
C11   H11   1.079546 S    
N25   Ni6   1.837158 S    
N14   Ni5   1.833040 S    
C51   H39   1.110853 S    
C45   C58   1.436042 S    
C67   H47   1.087100 S    
N27   Ni8   1.837158 S    
C50   C54   1.540056 S    
C7    H7    1.075326 S    
C49   C53   1.548031 S    
C53   H33   1.110163 S    
N3    Ni3   1.845600 S    
C40   C80   1.453759 S    
C51   C55   1.537773 S    
C74   H50   1.085193 S    
C76   C80   1.334009 D    
N31   Ni4   1.886239 S    
C8    H8    1.079811 S    
C35   C72   1.474963 S    
N33   O2    1.301548 A    
N23   Ni3   1.877866 S    
N11   Ni4   1.843719 S    
C82   C86   1.343531 D    
C33   C70   1.446625 S    
C37   C77   1.450132 S    
N15   N23   1.374595 A    
C49   C50   1.545785 S    
C32   C36   1.379552 A    
N7    N27   1.387921 A    
C80   H56   1.088003 S    
C36   C71   1.442670 S    
C19   C43   1.370157 A    
N15   Ni8   1.824154 S    
C23   N23   1.323862 A    
C10   H10   1.081349 S    
C29   H29   1.081090 S    
C4    C36   1.386276 A    
C58   C62   1.528505 S    
C76   H52   1.084189 S    
C4    N4    1.337078 A    
C13   N13   1.327056 A    
C2    N2    1.337543 A    
C24   H24   1.079205 S    
C18   C42   1.380975 A    
N14   N22   1.374788 A    
C75   H51   1.084087 S    
N17   Ni5   1.845240 S    
C21   N21   1.327879 A    
N6    Ni6   1.867745 S    
C57   C61   1.527865 S    
C16   N16   1.324332 A    
C54   C58   1.533860 S    
N19   Ni7   1.845240 S    
C25   C37   1.377633 A    
C66   H46   1.086635 S    
C13   C45   1.377714 A    
C6    H6    1.081558 S    
C46   C57   1.435497 S    
C28   H28   1.072619 S    
C50   C57   1.527832 S    
N5    N25   1.387921 A    
N34   O3    1.300859 A    
N12   N20   1.374788 A    
C49   C58   1.528540 S    
C87   H63   1.085747 S    
C17   N17   1.336289 A    
C17   C41   1.384637 A    
C44   C88   1.445418 S    
C61   H41   1.110244 S    
C66   C76   1.459481 S    
N24   Ni4   1.868898 S    
C54   C61   1.539057 S    
C5    H5    1.081974 S    
C26   C38   1.380190 A    
C11   N11   1.340472 A    
C6    N6    1.337979 A    
C55   H35   1.110315 S    
C60   C64   1.529578 S    
N8    N28   1.387921 A    
C70   N34   1.440782 S    
C61   C62   1.544179 S    
C5    N5    1.338342 A    
C24   C48   1.367384 A    
C27   N27   1.334958 A    
C65   H45   1.086812 S    
C22   C46   1.374891 A    
C12   C44   1.372127 A    
N28   Ni7   1.836676 S    
C17   H17   1.078824 S    
C51   C60   1.531948 S    
C15   C47   1.365056 A    
C2    C34   1.387944 A    
C73   C77   1.333600 D    
N20   Ni8   1.846125 S    
C79   H55   1.088154 S    
C19   H19   1.079461 S    
N29   Ni2   1.886239 S    
C24   N24   1.323799 A    
C23   C47   1.359929 A    
C30   C34   1.380279 A    
C71   N35   1.441580 S    
N35   O6    1.301025 A    
N1    Ni1   1.845600 S    
C14   N14   1.327076 A    
C69   N33   1.441594 S    
C29   C33   1.377733 A    
C83   C84   1.452243 S    
C82   H58   1.085027 S    
C21   H21   1.079599 S    
C16   H16   1.079197 S    
N3    N31   1.387921 A    
C12   N12   1.335386 A    
C8    N8    1.337603 A    
C81   C82   1.463231 S    
C66   C70   1.351677 D    
C43   C87   1.436095 S    
N10   N18   1.374788 A    
C25   H25   1.080594 S    
N4    N32   1.387922 A    
C20   C44   1.377804 A    
C86   H62   1.084528 S    
N26   Ni5   1.836676 S    
C7    C39   1.379068 A    
N12   Ni3   1.842957 S    
C5    C37   1.373709 A    
C55   C59   1.523051 S    
C68   C74   1.462738 S    
C84   C88   1.333247 D    
C9    N9    1.339888 A    
C56   C60   1.524530 S    
N4    Ni4   1.846647 S    
C26   H26   1.080612 S    
