data_mof_unit_67908.cif
_audit_creation_date              2013-03-05T15:54:14-0500
_audit_creation_method            fapswitch 2.2
_symmetry_space_group_name_H-M    P1
_symmetry_Int_Tables_number       1
_space_group_crystal_system       triclinic
_cell_length_a                    11.016875
_cell_length_b                    10.690282
_cell_length_c                    10.43911
_cell_angle_alpha                 92.696701
_cell_angle_beta                  85.883713
_cell_angle_gamma                 101.899334
_cell_volume                      1199.27282748

loop_
_atom_site_label
_atom_site_type_symbol
_atom_site_description
_atom_site_fract_x
_atom_site_fract_y
_atom_site_fract_z
_atom_type_partial_charge
O1    O     O_R   0.500000 0.316780 0.614690 -0.524775
O2    O     O_R   0.499990 0.316750 0.385360 -0.644772
C1    C     C_R   0.522473 0.268719 0.496850 0.925625
O3    O     O_R   0.313960 0.499980 0.614650 -0.503226
O4    O     O_R   0.313940 0.499960 0.385310 -0.660214
C2    C     C_R   0.262117 0.514609 0.504240 0.967921
Zn1   Zn    Zn3+2 0.500010 0.500020 0.653130 1.060795
Zn2   Zn    Zn3+2 0.499990 0.499980 0.346870 1.019940
O5    O     O_R   0.500010 0.683250 0.614640 -0.597705
O6    O     O_R   0.500000 0.683220 0.385310 -0.581548
O7    O     O_R   0.686060 0.500040 0.614690 -0.655024
O8    O     O_R   0.686040 0.500020 0.385350 -0.535899
C3    C     C_R   0.501769 0.741751 0.502585 0.896343
C4    C     C_R   0.743497 0.506755 0.495604 0.843525
C5    C     C_3   0.034010 0.557884 0.621540 0.482641
C6    C     C_3   0.944238 0.439866 0.569105 -0.051388
C7    C     C_3   0.883840 0.523044 0.486166 -0.207105
C8    C     C_3   0.974777 0.641818 0.537326 0.061566
C9    C     C_3   0.074171 0.627245 0.428832 0.035187
C10   C     C_3   0.982211 0.511822 0.374499 0.432996
C11   C     C_3   0.037945 0.424572 0.455954 -0.045240
C12   C     C_3   0.131202 0.538979 0.510661 -0.206743
C13   C     C_R   0.636214 0.169301 0.710516 -0.136286
H1    H     H_    0.666366 0.270099 0.700235 0.178245
C14   C     C_R   0.627832 0.123343 0.831994 0.214331
C15   C     C_R   0.559762 0.998722 0.852006 0.115146
C16   C     C_R   0.506916 0.921436 0.747392 0.381285
C17   C     C_R   0.542102 0.961395 0.620007 -0.121346
C18   C     C_R   0.587825 0.093160 0.606820 0.033651
C19   C     C_R   0.571204 0.149643 0.493440 -0.167479
C20   C     C_R   0.574808 0.078056 0.381544 0.128846
C21   C     C_R   0.528293 0.946692 0.386436 0.203169
C22   C     C_R   0.515929 0.883929 0.505587 -0.139384
C23   C     C_R   0.323913 0.292959 0.126374 -0.097855
C24   C     C_R   0.223093 0.221996 0.060731 0.387222
C25   C     C_R   0.186302 0.281356 0.962377 0.346678
C26   C     C_R   0.284608 0.339723 0.876235 0.286561
C27   C     C_R   0.402096 0.415654 0.930409 -0.027473
C28   C     C_R   0.409940 0.407191 0.071910 -0.036905
N1    N     N_R   0.498800 0.498800 0.142780 -0.153576
C29   C     C_R   0.579569 0.588221 0.066592 0.426331
C30   C     C_R   0.579902 0.586065 0.926099 0.155455
N2    N     N_R   0.498760 0.498720 0.857170 -0.107417
C31   C     C_3   0.898178 0.323873 0.646294 -0.701971
H2    H     H_    0.980126 0.288194 0.671540 0.300686
H3    H     H_    0.849478 0.351767 0.734960 0.281094
H4    H     H_    0.841946 0.249145 0.586016 0.210731
C32   C     C_3   0.522477 0.962442 0.986659 -0.815341
H5    H     H_    0.604899 0.985488 0.042958 0.264881
H6    H     H_    0.454859 0.020626 0.024213 0.291947
H7    H     H_    0.482355 0.859407 0.996531 0.280431
S1    S     S_3+6 0.357893 0.824689 0.779344 0.102363
O9    O     O_2   0.370521 0.703282 0.838399 -0.261739
O10   O     O_2   0.284722 0.895267 0.873165 -0.157350
O11   O     O_3   0.280863 0.791355 0.645203 -0.556380
H8    H     H_    0.263767 0.874535 0.622271 0.350331
C33   C     C_3   0.467818 0.884772 0.269986 -0.817331
H9    H     H_    0.386894 0.810124 0.294726 0.241583
H10   H     H_    0.429822 0.955584 0.221740 0.265457
H11   H     H_    0.534338 0.843504 0.206932 0.308070
S2    S     S_3+6 0.708415 0.693791 0.131788 0.029749
O12   O     O_2   0.711438 0.702082 0.274528 -0.275631
O13   O     O_2   0.815180 0.640509 0.075967 -0.183522
O14   O     O_3   0.730935 0.843376 0.080508 -0.657457
H12   H     H_    0.817432 0.883046 0.099715 0.412168
C34   C     C_3   0.331230 0.233539 0.248271 -0.594308
H13   H     H_    0.257238 0.156128 0.284350 0.243638
H14   H     H_    0.410518 0.185918 0.236201 0.243532
H15   H     H_    0.316953 0.301135 0.324960 0.268683
S3    S     S_3+6 0.142124 0.059098 0.098067 0.065975
O15   O     O_2   0.055714 0.059999 0.216151 -0.338722
O16   O     O_2   0.067583 0.993749 0.990455 -0.198540
O17   O     O_3   0.244116 0.969499 0.127836 -0.597803
H16   H     H_    0.198421 0.879877 0.118656 0.418305
S4    S     S_3+6 0.020742 0.250675 0.943486 0.134422
O18   O     O_2   0.983726 0.370430 0.913659 -0.174880
O19   O     O_2   0.973262 0.151073 0.843012 -0.301401
O20   O     O_3   0.943699 0.204943 0.084088 -0.464677
H17   H     H_    0.893367 0.118530 0.067259 0.372718
S5    S     S_3+6 0.281507 0.215523 0.754765 0.039373
O21   O     O_2   0.273680 0.260871 0.622681 -0.365207
O22   O     O_2   0.393547 0.161754 0.767661 -0.320765
O23   O     O_3   0.166504 0.086856 0.771227 -0.439240
H18   H     H_    0.159770 0.044567 0.684848 0.369254
C35   C     C_3   0.666104 0.688321 0.850017 -0.669537
H19   H     H_    0.657655 0.673998 0.746692 0.243873
H20   H     H_    0.643613 0.782133 0.875141 0.233866
H21   H     H_    0.764308 0.692606 0.865799 0.274369
S6    S     S_3+6 0.042217 0.613992 0.784900 0.145021
O24   O     O_2   0.918329 0.564299 0.852730 -0.278822
O25   O     O_2   0.142817 0.568320 0.847174 -0.162293
O26   O     O_3   0.067600 0.774211 0.796798 -0.453308
H22   H     H_    0.994877 0.794874 0.848280 0.397509
C36   C     C_3   0.934113 0.768940 0.567545 -0.757977
H23   H     H_    0.015980 0.846311 0.584169 0.263592
H24   H     H_    0.886977 0.794237 0.484858 0.248857
H25   H     H_    0.868063 0.760657 0.653180 0.229134
C37   C     C_3   0.145956 0.742865 0.357500 -0.744053
H26   H     H_    0.080694 0.798552 0.323453 0.290751
H27   H     H_    0.208735 0.806178 0.421627 0.227654
H28   H     H_    0.199975 0.709470 0.274265 0.238413
S7    S     S_3+6 0.985890 0.500291 0.204997 0.140624
O27   O     O_2   0.865846 0.422232 0.160883 -0.180546
O28   O     O_2   0.012616 0.630703 0.149779 -0.214911
O29   O     O_3   0.106183 0.434835 0.154560 -0.542735
H29   H     H_    0.180883 0.502825 0.166305 0.350674
C38   C     C_3   0.055114 0.291555 0.408388 -0.686395
H30   H     H_    0.963887 0.231916 0.385104 0.266843
H31   H     H_    0.116103 0.298358 0.320706 0.283726
H32   H     H_    0.095490 0.244213 0.481944 0.247030
C39   C     C_3   0.648785 0.137504 0.265369 -0.821040
H33   H     H_    0.718272 0.079569 0.231508 0.263318
H34   H     H_    0.587797 0.142313 0.188384 0.225729
H35   H     H_    0.700495 0.235859 0.287752 0.275607
C40   C     C_3   0.663906 0.218802 0.940979 -0.744637
H36   H     H_    0.712606 0.314123 0.907646 0.263012
H37   H     H_    0.579091 0.233860 0.998125 0.223736
H38   H     H_    0.726450 0.183973 0.001996 0.267688

loop_
_geom_bond_atom_site_label_1
_geom_bond_atom_site_label_2
_geom_bond_distance
_ccdc_geom_bond_type
C5    C8    1.549789 S    
C34   H14   1.095267 S    
O11   H8    0.989479 S    
N1    C29   1.399041 A    
C6    C11   1.537560 S    
S2    O14   1.674257 S    
C29   C30   1.465469 A    
C39   H33   1.109335 S    
C29   S2    1.776965 S    
C23   C34   1.463264 S    
C35   H19   1.090199 S    
C31   H2    1.102550 S    
Zn1   O7    2.060097 S    
C15   C16   1.422050 A    
C18   C19   1.393896 A    
O4    C2    1.344874 A    
C13   C18   1.392668 A    
C17   C18   1.404476 A    
C5    C12   1.554474 S    
C8    C9    1.543293 S    
S5    O23   1.673036 S    
C19   C20   1.368734 A    
O7    C4    1.351933 A    
C33   H10   1.094862 S    
C34   H15   1.078041 S    
C10   S7    1.766084 S    
C5    C6    1.538717 S    
C2    C12   1.513916 S    
C7    C10   1.551401 S    
S7    O29   1.664553 S    
C23   C24   1.411258 A    
O17   H16   0.989915 S    
S2    O13   1.481261 D    
O5    C3    1.349223 A    
C32   H7    1.105713 S    
O23   H18   0.990151 S    
C24   S3    1.831262 S    
S1    O10   1.498752 D    
C6    C7    1.543438 S    
C40   H37   1.108088 S    
C38   H30   1.109914 S    
S3    O15   1.503351 D    
Zn1   N2    2.129733 S    
S6    O25   1.498589 D    
C6    C31   1.490040 S    
S1    O11   1.675402 S    
C15   C32   1.482473 S    
C32   H6    1.105313 S    
C34   H13   1.094640 S    
C11   C12   1.542023 S    
C38   H31   1.091962 S    
C4    C7    1.516346 S    
S7    O27   1.501205 D    
C21   C33   1.489458 S    
O3    Zn1   2.116698 S    
C9    C37   1.518751 S    
C31   H3    1.096447 S    
C35   H20   1.097424 S    
C26   S5    1.789138 S    
C23   C28   1.491120 A    
C9    C12   1.553125 S    
C16   S1    1.769165 S    
S5    O22   1.481823 D    
C28   N1    1.450931 A    
O20   H17   0.989536 S    
C33   H11   1.096222 S    
C36   H25   1.106334 S    
C14   C15   1.404484 A    
O1    C1    1.337084 A    
C24   C25   1.359515 A    
C1    C19   1.478083 S    
C36   H24   1.109994 S    
S4    O18   1.474193 D    
C3    C22   1.494631 S    
C26   C27   1.510853 A    
C25   S4    1.808894 S    
C5    S6    1.783154 S    
C20   C21   1.394116 A    
Zn2   O8    2.116699 S    
C40   H38   1.100120 S    
S3    O17   1.672894 S    
C7    C8    1.545808 S    
C36   H23   1.108616 S    
C39   H34   1.093437 S    
C30   C35   1.507632 S    
S6    O26   1.677712 S    
S7    O28   1.498186 D    
S4    O19   1.500480 D    
C11   C38   1.528201 S    
O3    C2    1.351819 A    
C32   H5    1.096064 S    
O8    C4    1.344825 A    
C17   C22   1.433020 A    
C37   H27   1.102446 S    
C8    C36   1.528871 S    
C38   H32   1.105463 S    
C30   N2    1.368818 A    
S1    O9    1.498645 D    
C35   H21   1.097352 S    
Zn1   O5    2.017999 S    
C25   C26   1.416067 A    
O1    Zn1   1.980964 S    
O2    Zn2   2.017999 S    
S5    O21   1.496953 D    
O6    C3    1.347955 A    
O4    Zn2   2.060096 S    
C31   H4    1.105665 S    
C37   H28   1.104891 S    
O29   H29   0.989963 S    
C21   C22   1.425604 A    
C9    C10   1.540041 S    
C14   C40   1.510671 S    
O2    C1    1.352636 A    
C27   N2    1.436728 A    
O14   H12   0.990401 S    
C33   H9    1.091466 S    
C27   C28   1.493903 A    
O26   H22   0.989694 S    
C39   H35   1.110695 S    
C13   C14   1.371540 A    
S2    O12   1.490901 D    
S4    O20   1.682644 S    
C13   H1    1.068245 S    
C10   C11   1.534862 S    
Zn2   O6    1.980964 S    
C37   H26   1.109407 S    
C16   C17   1.418537 A    
C20   C39   1.501978 S    
S3    O16   1.498801 D    
Zn2   N1    2.130926 S    
S6    O24   1.498032 D    
C40   H36   1.108344 S    
