data_mof_unit_9854.cif
_audit_creation_date              2012-12-11T16:36:08-0500
_audit_creation_method            fapswitch 2.2
_symmetry_space_group_name_H-M    P1
_symmetry_Int_Tables_number       1
_space_group_crystal_system       triclinic
_cell_length_a                    21.561357
_cell_length_b                    21.529954
_cell_length_c                    22.345665
_cell_angle_alpha                 90.299134
_cell_angle_beta                  90.014197
_cell_angle_gamma                 89.978631
_cell_volume                      10373.0510146

loop_
_atom_site_label
_atom_site_type_symbol
_atom_type_description
_atom_site_fract_x
_atom_site_fract_y
_atom_site_fract_z
_atom_type_partial_charge
C1    C     C_R   0.428481 0.645686 0.602986 -0.141725
C2    C     C_R   0.573451 0.645656 0.602903 -0.154546
C3    C     C_R   0.791635 0.290102 0.834624 0.623533
C4    C     C_R   0.767570 0.841766 0.258973 0.626669
C5    C     C_R   0.291389 0.210096 0.838692 0.613657
C6    C     C_R   0.851434 0.228328 0.266661 0.619557
C7    C     C_R   0.210382 0.709654 0.835335 0.609306
C8    C     C_R   0.293698 0.764164 0.887960 0.646801
C9    C     C_R   0.815750 0.124415 0.293806 0.651107
C10   C     C_R   0.232360 0.295157 0.883815 0.645034
C11   C     C_R   0.872666 0.817365 0.292686 0.658864
C12   C     C_R   0.706970 0.233881 0.883048 0.650019
C13   C     C_R   0.656356 0.415890 0.417033 -0.147092
C14   C     C_R   0.290639 0.789823 0.163102 0.609389
C15   C     C_R   0.767151 0.705291 0.884062 0.657498
C16   C     C_R   0.210610 0.287000 0.170275 0.612562
C17   C     C_R   0.712927 0.639783 0.701739 -0.393456
C18   C     C_R   0.337482 0.398231 0.260218 -0.328875
C19   C     C_R   0.639762 0.288353 0.702127 -0.389327
C20   C     C_R   0.396021 0.661773 0.261003 -0.341379
C21   C     C_R   0.287862 0.359196 0.702029 -0.378337
C22   C     C_R   0.746523 0.666409 0.356022 -0.385129
C23   C     C_R   0.365534 0.709917 0.707297 -0.381986
C24   C     C_R   0.356129 0.572091 0.604679 -0.151504
C25   C     C_R   0.667444 0.256917 0.349857 -0.382352
C26   C     C_R   0.748990 0.307519 0.406588 -0.366079
C27   C     C_R   0.337072 0.605566 0.736586 -0.334795
C28   C     C_R   0.690292 0.750316 0.404214 -0.359493
C29   C     C_R   0.392636 0.337769 0.735283 -0.376563
C30   C     C_R   0.292133 0.635253 0.293216 -0.379883
C31   C     C_R   0.664026 0.393238 0.734332 -0.377675
C32   C     C_R   0.376458 0.296089 0.285234 -0.387473
C33   C     C_R   0.608232 0.663019 0.734482 -0.342133
C34   C     C_R   0.249617 0.192975 0.091510 -0.360166
C35   C     C_R   0.584853 0.656442 0.418162 -0.156710
C36   C     C_R   0.752381 0.831913 0.859020 -0.384843
C37   C     C_R   0.190451 0.748328 0.093601 -0.355308
C38   C     C_R   0.833535 0.247274 0.857505 -0.388148
C39   C     C_R   0.791806 0.864552 0.205802 -0.378419
C40   C     C_R   0.249336 0.167970 0.862525 -0.396782
C41   C     C_R   0.875990 0.204163 0.213891 -0.384809
C42   C     C_R   0.167874 0.752063 0.858310 -0.391180
C43   C     C_R   0.250706 0.808867 0.907181 -0.354942
C44   C     C_R   0.836924 0.102016 0.238863 -0.330454
C45   C     C_R   0.188628 0.252426 0.904167 -0.327847
C46   C     C_R   0.427430 0.355225 0.603515 -0.152366
C47   C     C_R   0.895620 0.836756 0.237562 -0.340930
C48   C     C_R   0.749332 0.189232 0.902191 -0.322442
C49   C     C_R   0.248529 0.832144 0.139628 -0.391815
C50   C     C_R   0.811417 0.748360 0.903733 -0.353358
C51   C     C_R   0.168233 0.244134 0.147909 -0.378996
C52   C     C_3   0.828276 0.707437 0.734913 -0.236588
C53   C     C_3   0.320702 0.425750 0.115709 -0.228076
C54   C     C_3   0.708814 0.173055 0.733301 -0.240525
C55   C     C_3   0.418497 0.663764 0.115349 -0.268218
C56   C     C_3   0.174323 0.287048 0.733461 -0.242630
C57   C     C_R   0.355271 0.571912 0.396574 -0.143513
C58   C     C_3   0.815139 0.671370 0.240433 -0.236542
C59   C     C_3   0.300699 0.827214 0.740550 -0.238783
C60   C     C_3   0.680515 0.194126 0.231294 -0.213361
C61   C     C_3   0.857823 0.253844 0.467130 -0.267153
C62   C     C_3   0.335081 0.578504 0.881343 -0.253267
C63   C     C_3   0.736003 0.867302 0.457608 -0.256043
C64   C     C_3   0.460876 0.338324 0.844947 -0.243314
C65   C     C_3   0.175517 0.703256 0.263445 -0.218030
C66   C     C_3   0.666929 0.463052 0.843374 -0.220838
C67   C     C_3   0.318461 0.174453 0.254570 -0.230569
C68   C     C_R   0.645091 0.427301 0.603246 -0.154391
C69   C     C_3   0.580911 0.654692 0.876706 -0.248370
C70   C     C_3   0.358990 0.244399 0.030943 -0.204387
C71   C     C_3   0.681071 0.828813 0.745334 -0.224964
C72   C     C_3   0.233450 0.629311 0.041968 -0.212470
C73   C     C_3   0.831198 0.318629 0.744031 -0.227068
C74   C     C_3   0.674468 0.797905 0.235015 -0.218329
C75   C     C_3   0.322217 0.168022 0.749521 -0.220904
C76   C     C_3   0.817700 0.325837 0.243826 -0.230896
C77   C     C_3   0.173930 0.683619 0.742618 -0.219461
C78   C     C_3   0.367061 0.762371 0.961323 -0.208071
C79   C     C_R   0.934125 0.141485 0.107168 -0.139087
C80   C     C_3   0.820856 0.072158 0.381358 -0.223921
C81   C     C_3   0.263082 0.380962 0.934770 -0.235930
C82   C     C_3   0.920468 0.834627 0.381440 -0.256896
C83   C     C_3   0.621613 0.272651 0.929971 -0.224548
C84   C     C_3   0.318266 0.828311 0.254645 -0.229579
C85   C     C_3   0.766692 0.629249 0.954343 -0.256454
C86   C     C_3   0.181154 0.306830 0.266509 -0.216271
C87   C     C_R   0.082410 0.843108 0.917464 -0.148607
C88   C     C_R   0.156628 0.084471 0.082137 -0.144359
C89   C     C_R   0.582847 0.343398 0.417029 -0.156506
C90   C     C_R   0.843465 0.917515 0.917161 -0.146812
C91   C     C_R   0.085315 0.843187 0.080711 -0.153414
C92   C     C_R   0.917905 0.156417 0.916801 -0.144811
C93   C     C_R   0.855032 0.927875 0.103032 -0.140738
C94   C     C_R   0.156898 0.082657 0.918253 -0.148455
C95   C     C_R   0.915612 0.843405 0.917661 -0.146839
C96   C     C_R   0.083070 0.156868 0.082241 -0.157479
C97   C     C_R   0.156593 0.915053 0.918339 -0.145632
C98   C     C_R   0.858570 0.070698 0.106927 -0.148516
C99   C     C_R   0.084859 0.156750 0.918845 -0.145194
C100  C     C_R   0.646924 0.573023 0.601076 -0.143340
C101  C     C_R   0.931932 0.858352 0.106747 -0.154263
C102  C     C_R   0.843709 0.084370 0.917377 -0.148578
C103  C     C_R   0.156938 0.917510 0.081935 -0.148423
C104  C     C_R   0.694805 0.682654 0.800499 -0.181355
C105  C     C_R   0.319615 0.311514 0.193009 -0.174373
C106  C     C_R   0.685465 0.306746 0.799495 -0.182798
C107  C     C_R   0.308308 0.682641 0.196441 -0.168871
C108  C     C_R   0.305858 0.315627 0.800253 -0.164142
C109  C     C_R   0.781179 0.772380 0.344756 -0.176156
C110  C     C_R   0.318065 0.691823 0.803899 -0.172729
C111  C     C_R   0.358743 0.429430 0.392800 -0.149479
C112  C     C_R   0.772435 0.217751 0.345067 -0.176354
C113  C     C_R   0.273509 0.282580 0.153281 -0.176798
C114  C     C_R   0.719839 0.725469 0.845422 -0.166946
C115  C     C_R   0.281631 0.725799 0.152771 -0.179510
C116  C     C_R   0.727668 0.281373 0.844520 -0.166505
C117  C     C_R   0.807961 0.815941 0.301851 -0.170117
C118  C     C_R   0.280753 0.274259 0.846245 -0.176493
C119  C     C_R   0.818547 0.188831 0.305603 -0.174004
C120  C     C_R   0.274084 0.717886 0.847385 -0.179292
C121  C     C_R   0.649657 0.644627 0.689513 -0.004966
C122  C     C_R   0.572754 0.353530 0.601441 -0.145226
C123  C     C_R   0.365368 0.357942 0.301276 -0.001295
C124  C     C_R   0.644347 0.351584 0.689888 0.017037
C125  C     C_R   0.355509 0.640441 0.305388 -0.001831
C126  C     C_R   0.351270 0.356026 0.690311 0.016842
C127  C     C_R   0.694796 0.687573 0.387828 0.015457
C128  C     C_R   0.358637 0.647042 0.693187 -0.004854
C129  C     C_R   0.687739 0.306042 0.385854 0.011840
C130  C     C_R   0.188333 0.194747 0.112136 0.011923
C131  C     C_R   0.805467 0.811224 0.888796 0.013356
C132  C     C_R   0.195906 0.811270 0.109016 0.015312
C133  C     C_R   0.432219 0.641199 0.392750 -0.152841
C134  C     C_R   0.812252 0.194494 0.887343 -0.002822
C135  C     C_R   0.855098 0.858827 0.193540 -0.002664
C136  C     C_R   0.195450 0.189064 0.890973 -0.000592
C137  C     C_R   0.865011 0.142288 0.198003 -0.001685
C138  C     C_R   0.188370 0.804237 0.890032 0.013741
C139  C     C_R   0.378149 0.624108 0.634576 0.138820
C140  C     C_R   0.643661 0.354658 0.401869 0.142008
C141  C     C_R   0.626226 0.624561 0.631627 0.141100
C142  C     C_R   0.384189 0.380294 0.360483 0.139352
C143  C     C_R   0.623916 0.374748 0.632156 0.137474
C144  C     C_R   0.353456 0.427280 0.601577 -0.144504
C145  C     C_R   0.379264 0.620377 0.363438 0.140976
C146  C     C_R   0.374765 0.376413 0.632529 0.136357
C147  C     C_R   0.645988 0.643374 0.403026 0.141186
C148  C     C_R   0.883962 0.119909 0.139070 0.140386
C149  C     C_R   0.143921 0.853457 0.904036 0.138142
C150  C     C_R   0.144128 0.145914 0.096739 0.142281
C151  C     C_R   0.854204 0.855969 0.903211 0.135980
C152  C     C_R   0.146809 0.855822 0.094877 0.142904
C153  C     C_R   0.856576 0.145667 0.902520 0.138548
C154  C     C_R   0.878859 0.879088 0.135806 0.141881
C155  C     C_R   0.656507 0.581971 0.416858 -0.146313
C156  C     C_R   0.146532 0.144326 0.905099 0.141430
C157  C     C_R   0.736215 0.660370 0.756382 0.621757
C158  C     C_R   0.316807 0.375985 0.204936 0.651289
C159  C     C_R   0.661993 0.265209 0.755937 0.616793
C160  C     C_R   0.373099 0.680684 0.205576 0.659724
C161  C     C_R   0.264507 0.337210 0.755910 0.624525
C162  C     C_R   0.788990 0.708483 0.332906 0.613171
C163  C     C_R   0.343778 0.733060 0.761677 0.633624
C164  C     C_R   0.709632 0.213777 0.327674 0.611118
C165  C     C_R   0.791212 0.261678 0.388312 0.663916
C166  C     C_R   0.434240 0.358658 0.392622 -0.142377
C167  C     C_R   0.319061 0.627195 0.792886 0.657544
C168  C     C_R   0.734967 0.792870 0.384690 0.658619
C169  C     C_R   0.370438 0.319872 0.791810 0.661285
C170  C     C_R   0.267902 0.657751 0.239823 0.629292
C171  C     C_R   0.682360 0.371381 0.790759 0.653468
C172  C     C_R   0.352263 0.272006 0.232179 0.621027
C173  C     C_R   0.630266 0.679752 0.790872 0.654761
C174  C     C_R   0.292134 0.238583 0.109928 0.648262
C175  C     C_R   0.710167 0.789403 0.835806 0.613421
C176  C     C_R   0.234736 0.705361 0.113428 0.644913
H1    H     H_    0.453113 0.688199 0.611310 0.096156
H2    H     H_    0.549956 0.688629 0.612399 0.101148
H3    H     H_    0.829262 0.321368 0.195502 0.128419
H4    H     H_    0.822518 0.375556 0.256206 0.180408
H5    H     H_    0.213915 0.706918 0.720747 0.105344
H6    H     H_    0.133423 0.715513 0.744838 0.124467
H7    H     H_    0.160626 0.643659 0.713847 0.180691
H8    H     H_    0.349502 0.716430 0.976249 0.085452
H9    H     H_    0.346415 0.800237 0.988850 0.141617
H10   H     H_    0.417835 0.762924 0.969311 0.181962
H11   H     H_    0.828983 0.114805 0.408551 0.128776
H12   H     H_    0.865845 0.050724 0.368048 0.118396
H13   H     H_    0.701572 0.437530 0.419047 0.100004
H14   H     H_    0.796162 0.038378 0.410115 0.174895
H15   H     H_    0.312102 0.374845 0.920213 0.129509
H16   H     H_    0.255367 0.358767 0.979021 0.119123
H17   H     H_    0.254864 0.431516 0.940436 0.179929
H18   H     H_    0.876278 0.841506 0.406269 0.139585
H19   H     H_    0.938598 0.880018 0.365372 0.125392
H20   H     H_    0.954841 0.815511 0.413368 0.172198
H21   H     H_    0.620494 0.317402 0.905414 0.133047
H22   H     H_    0.648996 0.277601 0.972009 0.119905
H23   H     H_    0.573215 0.261473 0.942826 0.174900
H24   H     H_    0.313848 0.548000 0.614900 0.102660
H25   H     H_    0.296266 0.788530 0.278019 0.109168
H26   H     H_    0.285619 0.868218 0.252330 0.125802
H27   H     H_    0.358536 0.843227 0.282058 0.179962
H28   H     H_    0.721147 0.647015 0.970620 0.107913
H29   H     H_    0.805061 0.648248 0.982168 0.139809
H30   H     H_    0.766546 0.578103 0.960096 0.181758
H31   H     H_    0.167169 0.344466 0.297790 0.182615
H32   H     H_    0.224510 0.285984 0.284411 0.105622
H33   H     H_    0.143194 0.271880 0.265875 0.129570
H34   H     H_    0.744794 0.622820 0.667943 0.162172
H35   H     H_    0.563775 0.701927 0.421050 0.100364
H36   H     H_    0.330981 0.446867 0.271230 0.167254
H37   H     H_    0.622013 0.256302 0.668770 0.160259
H38   H     H_    0.445497 0.663763 0.269210 0.161756
H39   H     H_    0.255924 0.375682 0.668224 0.159292
H40   H     H_    0.751861 0.617618 0.345215 0.159565
H41   H     H_    0.384648 0.741908 0.674954 0.158979
H42   H     H_    0.619487 0.254212 0.335582 0.163300
H43   H     H_    0.764316 0.344747 0.435770 0.151522
H44   H     H_    0.334129 0.556292 0.726887 0.167052
H45   H     H_    0.651282 0.766698 0.430327 0.149969
H46   H     H_    0.451560 0.312800 0.613332 0.101929
H47   H     H_    0.441878 0.337008 0.725979 0.154841
H48   H     H_    0.260559 0.616904 0.326358 0.160745
H49   H     H_    0.665699 0.442393 0.724642 0.154704
H50   H     H_    0.400241 0.265079 0.315541 0.159752
H51   H     H_    0.558744 0.664053 0.726054 0.168727
H52   H     H_    0.264747 0.155548 0.062467 0.153575
H53   H     H_    0.745759 0.880730 0.849595 0.160265
H54   H     H_    0.150793 0.732090 0.068334 0.152804
H55   H     H_    0.882381 0.253319 0.848008 0.161566
H56   H     H_    0.760304 0.883550 0.172917 0.161746
H57   H     H_    0.311698 0.548926 0.389147 0.096950
H58   H     H_    0.256755 0.118938 0.854392 0.162720
H59   H     H_    0.899908 0.235116 0.183654 0.160674
H60   H     H_    0.119317 0.746494 0.847156 0.161752
H61   H     H_    0.266491 0.848136 0.933475 0.153547
H62   H     H_    0.830537 0.053352 0.227920 0.166895
H63   H     H_    0.148617 0.269248 0.928590 0.162040
H64   H     H_    0.945068 0.834458 0.229291 0.161211
H65   H     H_    0.732605 0.149997 0.927605 0.159973
H66   H     H_    0.254761 0.881000 0.149606 0.161148
H67   H     H_    0.851308 0.732206 0.928572 0.151427
H68   H     H_    0.687591 0.451381 0.613017 0.101607
H69   H     H_    0.120264 0.247160 0.162062 0.163289
H70   H     H_    0.964682 0.179233 0.119088 0.103362
H71   H     H_    0.059747 0.798448 0.920842 0.101830
H72   H     H_    0.201857 0.062865 0.079764 0.099735
H73   H     H_    0.561442 0.298166 0.420891 0.103434
H74   H     H_    0.798819 0.940180 0.920555 0.104615
H75   H     H_    0.064176 0.797773 0.077433 0.100169
H76   H     H_    0.940670 0.201074 0.919935 0.104572
H77   H     H_    0.811510 0.951002 0.110423 0.097444
H78   H     H_    0.201445 0.059898 0.921974 0.100299
H79   H     H_    0.937306 0.798192 0.919891 0.100530
H80   H     H_    0.061532 0.202029 0.078127 0.104203
H81   H     H_    0.201861 0.936486 0.921039 0.100210
H82   H     H_    0.815878 0.047488 0.117429 0.103969
H83   H     H_    0.063181 0.201968 0.921485 0.100866
H84   H     H_    0.689667 0.548608 0.608695 0.096560
H85   H     H_    0.961665 0.820217 0.119438 0.108498
H86   H     H_    0.798484 0.062811 0.919453 0.102193
H87   H     H_    0.201452 0.940356 0.078478 0.099796
H88   H     H_    0.809692 0.753587 0.748514 0.111152
H89   H     H_    0.823697 0.700747 0.685735 0.126438
H90   H     H_    0.878497 0.707260 0.745665 0.179848
H91   H     H_    0.325215 0.382455 0.088726 0.126145
H92   H     H_    0.367367 0.444694 0.126927 0.116722
H93   H     H_    0.296730 0.460546 0.087474 0.171718
H94   H     H_    0.755065 0.191306 0.746631 0.112131
H95   H     H_    0.316035 0.452598 0.382225 0.103085
H96   H     H_    0.701816 0.178118 0.684260 0.125666
H97   H     H_    0.708475 0.122668 0.743375 0.179611
H98   H     H_    0.373963 0.660357 0.090491 0.135701
H99   H     H_    0.433971 0.616861 0.129955 0.127369
H100  H     H_    0.453799 0.681819 0.083810 0.168403
H101  H     H_    0.193385 0.241702 0.748405 0.113427
H102  H     H_    0.180398 0.292439 0.684338 0.126014
H103  H     H_    0.123781 0.286490 0.742665 0.180910
H104  H     H_    0.793761 0.712007 0.217873 0.110255
H105  H     H_    0.781717 0.632111 0.242351 0.125973
H106  H     H_    0.548521 0.310710 0.609165 0.096204
H107  H     H_    0.854871 0.656099 0.212477 0.181306
H108  H     H_    0.253594 0.810032 0.752147 0.111902
H109  H     H_    0.308801 0.823201 0.691542 0.125042
H110  H     H_    0.302250 0.877288 0.752364 0.180599
H111  H     H_    0.724127 0.214498 0.213521 0.106035
H112  H     H_    0.642892 0.229471 0.231773 0.129061
H113  H     H_    0.666262 0.156613 0.199993 0.184140
H114  H     H_    0.833211 0.210573 0.480470 0.110692
H115  H     H_    0.840454 0.294145 0.493500 0.139572
H116  H     H_    0.907529 0.247675 0.478454 0.175731
H117  H     H_    0.462028 0.679160 0.379852 0.108212
H118  H     H_    0.339859 0.622323 0.907470 0.132992
H119  H     H_    0.381376 0.562041 0.865833 0.121259
H120  H     H_    0.316150 0.542813 0.911950 0.161649
H121  H     H_    0.779631 0.846251 0.474940 0.105607
H122  H     H_    0.695448 0.850585 0.483626 0.138104
H123  H     H_    0.739370 0.918220 0.464734 0.174350
H124  H     H_    0.447743 0.388329 0.842512 0.106462
H125  H     H_    0.498144 0.327241 0.812275 0.159117
H126  H     H_    0.480187 0.330282 0.890266 0.158155
H127  H     H_    0.192519 0.749879 0.249946 0.108444
H128  H     H_    0.310365 0.451176 0.609142 0.097953
H129  H     H_    0.181759 0.696545 0.312391 0.125058
H130  H     H_    0.125009 0.701872 0.254112 0.188348
H131  H     H_    0.616687 0.450929 0.841931 0.090658
H132  H     H_    0.677965 0.499564 0.810092 0.158537
H133  H     H_    0.676456 0.483048 0.888297 0.168153
H134  H     H_    0.269353 0.187727 0.246349 0.110801
H135  H     H_    0.329758 0.178738 0.302971 0.125420
H136  H     H_    0.323326 0.124772 0.242051 0.180205
H137  H     H_    0.624866 0.645365 0.901158 0.132049
H138  H     H_    0.562740 0.611040 0.856269 0.113697
H139  H     H_    0.701080 0.559110 0.419763 0.101709
H140  H     H_    0.546288 0.671033 0.909961 0.175940
H141  H     H_    0.334957 0.287587 0.016628 0.092064
H142  H     H_    0.341220 0.203747 0.005349 0.147012
H143  H     H_    0.408765 0.249725 0.019541 0.179172
H144  H     H_    0.640159 0.842133 0.718171 0.180646
H145  H     H_    0.704851 0.790267 0.721238 0.106224
H146  H     H_    0.711861 0.870114 0.748369 0.123642
H147  H     H_    0.278288 0.647107 0.024434 0.086331
H148  H     H_    0.194106 0.648164 0.015540 0.145030
H149  H     H_    0.233580 0.578174 0.035617 0.175813
H150  H     H_    0.464779 0.320893 0.380692 0.103159
H151  H     H_    0.792115 0.295954 0.719898 0.106909
H152  H     H_    0.871621 0.286684 0.746611 0.123673
H153  H     H_    0.845584 0.359332 0.717172 0.181331
H154  H     H_    0.690882 0.750815 0.247705 0.107465
H155  H     H_    0.680577 0.805364 0.186162 0.127307
H156  H     H_    0.624023 0.799854 0.244559 0.188607
H157  H     H_    0.299276 0.205876 0.724074 0.105505
H158  H     H_    0.291023 0.127083 0.752873 0.123702
H159  H     H_    0.363585 0.153413 0.723523 0.180460
H160  H     H_    0.768544 0.312650 0.251816 0.110714
N1    N     N_R   0.440580 0.604630 0.559510 -0.041311
N2    N     N_R   0.559420 0.604630 0.559510 -0.039361
N3    N     N_R   0.604630 0.440580 0.440490 -0.040885
N4    N     N_R   0.395370 0.559420 0.559510 -0.040765
N5    N     N_R   0.559420 0.604630 0.440490 -0.040968
N6    N     N_R   0.440580 0.395370 0.559510 -0.040663
N7    N     N_R   0.395370 0.559420 0.440490 -0.041127
N8    N     N_R   0.604630 0.440580 0.559510 -0.039782
N9    N     N_R   0.940580 0.104630 0.059510 -0.041854
N10   N     N_R   0.059420 0.895370 0.940490 -0.040602
N11   N     N_R   0.104630 0.059420 0.059510 -0.040068
N12   N     N_R   0.559420 0.395370 0.440490 -0.040684
N13   N     N_R   0.895370 0.940580 0.940490 -0.041903
N14   N     N_R   0.059420 0.895370 0.059510 -0.040373
N15   N     N_R   0.940580 0.104630 0.940490 -0.042550
N16   N     N_R   0.895370 0.940580 0.059510 -0.040133
N17   N     N_R   0.104630 0.059420 0.940490 -0.041112
N18   N     N_R   0.940580 0.895370 0.940490 -0.042059
N19   N     N_R   0.059420 0.104630 0.059510 -0.039994
N20   N     N_R   0.104630 0.940580 0.940490 -0.041331
N21   N     N_R   0.895370 0.059420 0.059510 -0.040704
N22   N     N_R   0.059420 0.104630 0.940490 -0.041457
N23   N     N_R   0.604630 0.559420 0.559510 -0.039860
N24   N     N_R   0.940580 0.895370 0.059510 -0.040894
N25   N     N_R   0.895370 0.059420 0.940490 -0.042071
N26   N     N_R   0.104630 0.940580 0.059510 -0.039643
N27   N     N_R   0.395370 0.440580 0.440490 -0.041351
N28   N     N_R   0.559420 0.395370 0.559510 -0.039180
N29   N     N_R   0.440580 0.604630 0.440490 -0.041875
N30   N     N_R   0.395370 0.440580 0.559510 -0.040699
N31   N     N_R   0.604630 0.559420 0.440490 -0.040752
N32   N     N_R   0.440580 0.395370 0.440490 -0.042794
Ni1   Ni    Ni4+2 0.500000 0.603690 0.500000 0.213028
Ni2   Ni    Ni4+2 0.500000 0.396310 0.500000 0.214217
Ni3   Ni    Ni4+2 0.603690 0.500000 0.500000 0.212277
Ni4   Ni    Ni4+2 0.396310 0.500000 0.500000 0.216755
Ni5   Ni    Ni4+2 0.000000 0.103690 0.000000 0.211612
Ni6   Ni    Ni4+2 0.000000 0.896310 0.000000 0.209261
Ni7   Ni    Ni4+2 0.103690 0.000000 0.000000 0.207975
Ni8   Ni    Ni4+2 0.896310 0.000000 0.000000 0.214266
O1    O     O_3   0.799531 0.658981 0.766857 -0.565747
O2    O     O_3   0.293732 0.585590 0.832984 -0.560211
O3    O     O_3   0.728109 0.855825 0.395882 -0.565581
O4    O     O_3   0.409594 0.298396 0.836683 -0.575578
O5    O     O_3   0.204498 0.655673 0.229998 -0.564435
O6    O     O_3   0.705518 0.410681 0.835054 -0.573074
O7    O     O_3   0.359474 0.209482 0.218965 -0.567905
O8    O     O_3   0.588822 0.701292 0.833318 -0.556968
O9    O     O_3   0.353919 0.235111 0.093223 -0.579349
O10   O     O_3   0.660209 0.810004 0.802286 -0.563480
O11   O     O_3   0.226549 0.642325 0.103545 -0.568402
O12   O     O_3   0.285015 0.416030 0.167678 -0.558266
O13   O     O_3   0.812882 0.339809 0.801230 -0.563432
O14   O     O_3   0.704238 0.844478 0.269120 -0.566155
O15   O     O_3   0.342025 0.188752 0.806407 -0.565112
O16   O     O_3   0.858491 0.290889 0.279792 -0.569392
O17   O     O_3   0.189966 0.660926 0.799701 -0.565665
O18   O     O_3   0.356322 0.771563 0.899729 -0.567743
O19   O     O_3   0.783648 0.084650 0.330983 -0.560691
O20   O     O_3   0.221003 0.357828 0.891856 -0.557403
O21   O     O_3   0.913235 0.792086 0.333796 -0.572231
O22   O     O_3   0.644532 0.224005 0.893697 -0.567532
O23   O     O_3   0.660821 0.201826 0.766207 -0.566657
O24   O     O_3   0.339952 0.810845 0.197407 -0.569956
O25   O     O_3   0.775850 0.642362 0.893232 -0.569342
O26   O     O_3   0.190735 0.332919 0.209466 -0.566351
O27   O     O_3   0.413955 0.705163 0.164250 -0.570268
O28   O     O_3   0.201047 0.336939 0.765480 -0.563947
O29   O     O_3   0.837650 0.687411 0.297760 -0.569858
O30   O     O_3   0.347017 0.796196 0.773529 -0.562109
O31   O     O_3   0.689686 0.167983 0.288384 -0.567644
O32   O     O_3   0.852954 0.264806 0.405131 -0.570672

loop_
_geom_bond_atom_site_label_1
_geom_bond_atom_site_label_2
_ccdc_geom_bond_type
C72   H148  S    
C59   H108  S    
C176  O11   S    
C44   C137  A    
C57   C145  A    
C52   O1    S    
C131  C151  S    
C88   N11   A    
C104  C157  A    
C16   C113  A    
N3    N12   A    
C90   H74   S    
C128  C139  S    
C101  N24   A    
C94   H78   S    
C2    N2    A    
C25   C164  A    
C62   O2    S    
C97   N20   A    
C68   C143  A    
C4    O14   S    
C7    C42   A    
C5    O15   S    
C74   H154  S    
C111  C142  A    
C66   H132  S    
C64   H124  S    
C77   H5    S    
N2    N23   A    
C102  H86   S    
C78   H10   S    
C161  O28   S    
C83   H21   S    
C147  C155  A    
N24   Ni6   S    
C98   H82   S    
C60   H113  S    
C32   C172  A    
C27   H44   S    
C9    O19   S    
C69   H140  S    
C25   H42   S    
N10   N20   A    
C75   H158  S    
C66   H133  S    
C112  C164  A    
C79   N9    A    
C79   H70   S    
N2    Ni1   S    
C17   H34   S    
C91   H75   S    
N5    N31   A    
C72   H149  S    
C61   H115  S    
C60   H112  S    
N23   Ni3   S    
C34   C174  A    
C27   C128  A    
C105  C158  A    
C96   C150  A    
C99   C156  A    
C76   O16   S    
C95   N18   A    
C155  N31   A    
C102  C153  A    
C70   H142  S    
C82   H19   S    
C79   C148  A    
C89   H73   S    
C103  C152  A    
C67   H134  S    
C132  C152  S    
C133  C145  A    
N1    N4    A    
C16   O26   S    
C63   H122  S    
N6    N30   A    
C64   H125  S    
N16   Ni8   S    
C33   H51   S    
C44   H62   S    
C86   H31   S    
C87   H71   S    
C38   H55   S    
C46   H46   S    
C58   O29   S    
C100  C141  A    
C174  O9    S    
C20   C125  A    
C22   C127  A    
C46   C146  A    
C112  C165  A    
C78   O18   S    
C62   H118  S    
C78   H8    S    
C38   C134  A    
C50   C131  A    
C28   C168  A    
C166  N32   A    
C24   H24   S    
C36   C175  A    
C58   H107  S    
C29   C169  A    
C21   C126  A    
C92   N15   A    
C14   C115  A    
C157  O1    S    
C23   C128  A    
C3    O13   S    
C23   H41   S    
C67   O7    S    
N27   N32   A    
C137  C148  S    
C86   H33   S    
C76   H3    S    
C45   C136  A    
C85   H29   S    
C59   H109  S    
C55   H100  S    
C105  C113  S    
C51   H69   S    
C93   N16   A    
C3    C116  A    
N8    N28   A    
C59   O30   S    
C134  C153  S    
C88   H72   S    
C106  C159  A    
C72   O11   S    
C81   H15   S    
N15   N25   A    
C85   H28   S    
C77   H7    S    
C130  C150  S    
C63   O3    S    
C166  H150  S    
C172  O7    S    
C92   C153  A    
C98   N21   A    
C17   C157  A    
C13   N3    A    
C28   C127  A    
N29   Ni1   S    
C52   H89   S    
C24   N4    A    
C30   C125  A    
C32   C123  A    
C167  O2    S    
C122  C143  A    
C12   O22   S    
C103  N26   A    
C92   H76   S    
C138  C149  S    
C61   O32   S    
C71   H145  S    
C85   O25   S    
C173  O8    S    
C69   H137  S    
C99   N22   A    
C96   H80   S    
C50   H67   S    
C87   N10   A    
C41   H59   S    
C53   H91   S    
C81   H17   S    
C19   H37   S    
C20   H38   S    
C34   H52   S    
C45   H63   S    
C164  O31   S    
C109  C168  A    
C142  C166  A    
C110  C167  A    
C62   H120  S    
C99   H83   S    
C89   C140  A    
C10   C45   A    
C80   H12   S    
C124  C143  S    
C74   H156  S    
C73   H151  S    
C32   H50   S    
N16   N24   A    
C20   C160  A    
C4    C117  A    
C40   H58   S    
C6    C119  A    
C8    O18   S    
N14   N26   A    
C55   H98   S    
C6    O16   S    
C47   C135  A    
C26   H43   S    
C82   H20   S    
C108  C161  A    
C63   H123  S    
C5    C118  A    
N6    Ni2   S    
C39   H56   S    
C125  C145  S    
C10   O20   S    
C101  C154  A    
C54   H94   S    
C74   H155  S    
C15   O25   S    
C97   C149  A    
N31   Ni3   S    
C2    H2    S    
C94   N17   A    
N12   Ni2   S    
C83   H23   S    
N13   N18   A    
C70   O9    S    
C113  C174  A    
C12   C116  A    
C60   O31   S    
C65   O5    S    
C84   H25   S    
C56   O28   S    
C26   C165  A    
C42   C138  A    
C55   O27   S    
C8    C43   A    
C111  H95   S    
C12   C48   A    
N32   Ni2   S    
C107  C160  A    
C109  C117  S    
C53   O12   S    
C39   C135  A    
C65   H127  S    
C89   N12   A    
C40   C136  A    
C135  C154  S    
C133  N29   A    
C163  O30   S    
C162  O29   S    
C73   O13   S    
C31   C124  A    
C22   H40   S    
C109  C162  A    
C91   C152  A    
C22   C162  A    
C93   H77   S    
C67   H136  S    
C175  O10   S    
C61   H114  S    
C43   C138  A    
C30   C170  A    
C73   H153  S    
C36   H53   S    
C9    C44   A    
C83   O22   S    
C21   H39   S    
N25   Ni8   S    
N13   Ni8   S    
C41   C137  A    
C1    C139  A    
C18   C123  A    
N9    N21   A    
C72   H147  S    
C56   H101  S    
C144  N30   A    
C56   H103  S    
C169  O4    S    
N18   Ni6   S    
C24   C139  A    
C52   H88   S    
C49   C132  A    
C63   H121  S    
C165  O32   S    
C64   H126  S    
C13   C140  A    
N3    Ni3   S    
C144  C146  A    
C86   H32   S    
C127  C147  S    
C75   H159  S    
C106  C116  S    
C46   N6    A    
N17   Ni7   S    
C18   C158  A    
C121  C141  S    
N19   Ni5   S    
C11   O21   S    
C66   H131  S    
C62   H119  S    
C78   H9    S    
C83   H22   S    
C122  H106  S    
C26   C129  A    
C158  O12   S    
C84   H27   S    
C17   C121  A    
C114  C175  A    
N9    Ni5   S    
N11   Ni7   S    
C95   C151  A    
C84   O24   S    
C96   N19   A    
N30   Ni4   S    
C48   C134  A    
C29   H47   S    
C16   C51   A    
C88   C150  A    
C7    C120  A    
C69   O8    S    
C90   C151  A    
C76   H4    S    
C112  C119  S    
C110  C163  A    
C104  C173  A    
C58   H105  S    
C61   H116  S    
C55   H99   S    
C60   H111  S    
C19   C159  A    
N8    Ni3   S    
C54   O23   S    
C37   C176  A    
C98   C148  A    
C82   O21   S    
C68   N8    A    
C123  C142  S    
C14   O24   S    
N27   Ni4   S    
C82   H18   S    
C111  N27   A    
C94   C156  A    
C5    C40   A    
C7    O17   S    
N11   N19   A    
C64   O4    S    
C107  C170  A    
C52   H90   S    
C100  H84   S    
C105  C172  A    
C101  H85   S    
N26   Ni7   S    
C106  C171  A    
C25   C129  A    
C49   H66   S    
C126  C146  S    
C97   H81   S    
C155  H139  S    
N15   Ni5   S    
C75   H157  S    
C31   C171  A    
N10   Ni6   S    
C93   C154  A    
C70   H143  S    
C136  C156  S    
C14   C49   A    
C13   H13   S    
C90   N13   A    
C15   C50   A    
N28   Ni2   S    
C35   H35   S    
C42   H60   S    
C76   H160  S    
C3    C38   A    
C28   H45   S    
C6    C41   A    
C122  N28   A    
C133  H117  S    
C80   O19   S    
C43   H61   S    
N17   N22   A    
C144  H128  S    
N4    Ni4   S    
C29   C126  A    
C71   O10   S    
C33   C121  A    
C35   N5    A    
C1    H1    S    
C74   O14   S    
C51   C130  A    
C85   H30   S    
C77   H6    S    
C23   C163  A    
C37   H54   S    
C59   H110  S    
C19   C124  A    
C21   C161  A    
C56   H102  S    
C108  C118  S    
C65   H130  S    
C36   C131  A    
C110  C120  S    
C30   H48   S    
C170  O5    S    
C81   O20   S    
C18   H36   S    
C81   H16   S    
C115  C176  A    
C10   C118  A    
C71   H144  S    
C54   H96   S    
C4    C39   A    
C15   C114  A    
N20   Ni7   S    
C35   C147  A    
C107  C115  S    
N7    Ni4   S    
N22   Ni5   S    
C65   H129  S    
C104  C114  S    
C171  O6    S    
C77   O17   S    
C53   H93   S    
C31   H49   S    
C159  O23   S    
C9    C119  A    
C75   O15   S    
C1    N1    A    
C11   C117  A    
C95   H79   S    
C33   C173  A    
C8    C120  A    
C102  N25   A    
C84   H26   S    
C2    C141  A    
C71   H146  S    
N21   Ni8   S    
C80   H14   S    
C69   H138  S    
C70   H141  S    
C58   H104  S    
C48   H65   S    
C57   H57   S    
N7    N29   A    
C53   H92   S    
C11   C47   A    
C37   C132  A    
N5    Ni1   S    
C160  O27   S    
N14   Ni6   S    
C129  C140  S    
C67   H135  S    
C68   H68   S    
C54   H97   S    
C86   O26   S    
C80   H11   S    
C47   H64   S    
C73   H152  S    
C57   N7    A    
C34   C130  A    
C87   C149  A    
N1    Ni1   S    
C168  O3    S    
C103  H87   S    
C108  C169  A    
C100  N23   A    
C66   O6    S    
C27   C167  A    
C91   N14   A    
