data_mof_unit_10223.cif
_audit_creation_date              2012-12-10T17:49:38-0500
_audit_creation_method            fapswitch 2.2
_symmetry_space_group_name_H-M    P1
_symmetry_Int_Tables_number       1
_space_group_crystal_system       triclinic
_cell_length_a                    10.549657
_cell_length_b                    10.666709
_cell_length_c                    9.979441
_cell_angle_alpha                 91.207887
_cell_angle_beta                  89.609423
_cell_angle_gamma                 93.774029
_cell_volume                      1120.28681436

loop_
_atom_site_label
_atom_site_type_symbol
_atom_type_description
_atom_site_fract_x
_atom_site_fract_y
_atom_site_fract_z
_atom_type_partial_charge
C1    C     C_R   0.504760 0.261206 0.499209 0.835982
C2    C     C_3   0.961428 0.480886 0.373029 0.200649
C3    C     C_3   0.035694 0.388394 0.453487 -0.183730
C4    C     C_3   0.123683 0.500726 0.499931 -0.022945
C5    C     C_R   0.692505 0.148052 0.662172 -0.183083
C6    C     C_R   0.772172 0.091433 0.749872 -0.147901
C7    C     C_R   0.766158 0.961583 0.758472 -0.150683
C8    C     C_R   0.682956 0.888073 0.676822 -0.174591
C9    C     C_R   0.598770 0.943789 0.589426 0.095937
C10   C     C_R   0.602162 0.075222 0.583938 0.098484
C11   C     C_R   0.515253 0.129684 0.499078 -0.088776
C12   C     C_R   0.257981 0.499758 0.500208 0.861270
C13   C     C_R   0.429286 0.057769 0.420003 -0.229643
C14   C     C_R   0.429010 0.929778 0.421309 -0.214480
C15   C     C_R   0.512120 0.873003 0.505210 -0.104468
C16   C     C_R   0.388670 0.295062 0.137788 -0.142939
C17   C     C_R   0.383710 0.177181 0.075663 -0.233844
C18   C     C_R   0.405430 0.168431 0.938913 -0.198018
C19   C     C_R   0.399006 0.278167 0.864467 0.230582
C20   C     C_R   0.447336 0.394911 0.926923 0.130715
C21   C     C_R   0.445301 0.398446 0.071053 0.141022
C22   C     C_R   0.551389 0.598510 0.072998 -0.125597
C23   C     C_R   0.504930 0.739677 0.501550 0.869908
C24   C     C_R   0.550307 0.598987 0.930504 -0.125951
C25   C     C_R   0.742654 0.502539 0.499347 0.856190
C26   C     C_3   0.042775 0.523007 0.625094 -0.182838
C27   C     C_3   0.951446 0.411277 0.578304 -0.243392
C28   C     C_3   0.878229 0.503069 0.496992 -0.092047
C29   C     C_3   0.969440 0.612093 0.541642 0.216769
C30   C     C_3   0.052476 0.592991 0.417231 -0.179480
H1    H     H_    0.908629 0.337503 0.643995 0.143940
H2    H     H_    0.828461 0.917411 0.826265 0.131691
H3    H     H_    0.686803 0.787963 0.683302 0.149758
H4    H     H_    0.361009 0.874563 0.359506 0.151949
H5    H     H_    0.594341 0.679030 0.127358 0.150290
H6    H     H_    0.346716 0.304733 0.235302 0.185572
H7    H     H_    0.352769 0.093924 0.129919 0.153815
H8    H     H_    0.387667 0.076717 0.891248 0.146783
H9    H     H_    0.592042 0.679955 0.879197 0.140175
H10   H     H_    0.077843 0.545357 0.727847 0.153694
H11   H     H_    0.097536 0.666219 0.351662 0.130852
H12   H     H_    0.067783 0.296477 0.417368 0.126955
H13   H     H_    0.359245 0.101001 0.360799 0.134449
H14   H     H_    0.703331 0.248904 0.656451 0.161466
H15   H     H_    0.839417 0.148448 0.810473 0.133130
N1    N     N_R   0.498800 0.498800 0.142780 -0.116870
N2    N     N_R   0.498760 0.498720 0.857170 -0.120013
O1    O     O_R   0.500000 0.316780 0.614690 -0.647870
O2    O     O_R   0.499990 0.316750 0.385360 -0.624454
O3    O     O_R   0.313960 0.499980 0.614650 -0.623746
O4    O     O_R   0.313940 0.499960 0.385310 -0.632097
O5    O     O_R   0.500010 0.683250 0.614640 -0.629768
O6    O     O_R   0.500000 0.683220 0.385310 -0.616277
O7    O     O_R   0.686060 0.500040 0.614690 -0.629738
O8    O     O_R   0.686040 0.500020 0.385350 -0.625522
Zn1   Zn    Zn3+2 0.500010 0.500020 0.653130 0.923384
Zn2   Zn    Zn3+2 0.499990 0.499980 0.346870 0.927651
C31   C     C_3   0.279950 0.267079 0.778128 -0.335203
C32   C     C_3   0.168156 0.320902 0.851609 -0.919838
H16   H     H_    0.149753 0.270670 0.946742 0.265485
H17   H     H_    0.188375 0.422561 0.873931 0.269170
H18   H     H_    0.081677 0.307036 0.789517 0.248603
H19   H     H_    0.290857 0.304341 0.678497 0.242122
H20   H     H_    0.251225 0.166785 0.753999 0.170416
N3    N     N_2   0.932902 0.732165 0.592861 -0.307783
H21   H     H_    0.885991 0.722665 0.683216 0.216641
C33   C     C_3   0.035211 0.829422 0.598299 -0.805381
H22   H     H_    0.999281 0.918068 0.638656 0.246779
H23   H     H_    0.073636 0.848106 0.496317 0.242277
H24   H     H_    0.112472 0.801295 0.664286 0.235670
C34   C     C_3   0.914317 0.457277 0.229671 -0.369520
C35   C     C_3   0.024241 0.440832 0.132680 -0.914243
H25   H     H_    0.089652 0.526775 0.132343 0.266682
H26   H     H_    0.077825 0.359391 0.161328 0.261523
H27   H     H_    0.985929 0.423899 0.030120 0.257432
H28   H     H_    0.849042 0.371194 0.226312 0.219879
H29   H     H_    0.861529 0.538328 0.198101 0.216988

loop_
_geom_bond_atom_site_label_1
_geom_bond_atom_site_label_2
_ccdc_geom_bond_type
C3    H12   S    
C16   C21   A    
C6    H15   S    
C19   C20   A    
C1    C11   S    
C34   H29   S    
C7    C8    A    
C25   C28   S    
C22   H5    S    
C26   C27   S    
C28   C29   S    
C5    C6    A    
C24   H9    S    
O2    Zn2   S    
C18   C19   A    
C8    C9    A    
N3    C33   S    
C30   H11   S    
O4    Zn2   S    
C4    C12   S    
C9    C10   A    
C15   C23   S    
C32   H16   S    
C13   C14   A    
C35   H27   S    
C23   O6    A    
C19   C31   S    
C31   H20   S    
O7    Zn1   S    
C32   H17   S    
C27   H1    S    
C33   H22   S    
C25   O7    A    
C35   H26   S    
O6    Zn2   S    
C16   C17   A    
C31   C32   S    
O3    Zn1   S    
C3    C4    S    
C33   H23   S    
C29   C30   S    
C12   O3    A    
C17   C18   A    
C17   H7    S    
C29   N3    S    
C22   N1    A    
C5    H14   S    
O8    Zn2   S    
N1    Zn2   S    
C22   C24   A    
C2    C34   S    
C13   H13   S    
C12   O4    A    
C21   N1    A    
C31   H19   S    
O1    Zn1   S    
C32   H18   S    
C7    H2    S    
C24   N2    A    
C25   O8    A    
C35   H25   S    
C14   H4    S    
C4    C26   S    
C1    O1    A    
C6    C7    A    
C2    C30   S    
C33   H24   S    
C3    C27   S    
C2    C3    S    
C18   H8    S    
C5    C10   A    
C16   H6    S    
C11   C13   A    
C26   H10   S    
C23   O5    A    
C34   H28   S    
C8    H3    S    
C9    C15   A    
C20   N2    A    
C10   C11   A    
C34   C35   S    
C20   C21   A    
C26   C29   S    
N3    H21   S    
C27   C28   S    
C14   C15   A    
C2    C28   S    
C1    O2    A    
C4    C30   S    
O5    Zn1   S    
N2    Zn1   S    
