data_mof_unit_37331.cif
_audit_creation_date              2012-12-11T14:03:22-0500
_audit_creation_method            fapswitch 2.2
_symmetry_space_group_name_H-M    P1
_symmetry_Int_Tables_number       1
_space_group_crystal_system       triclinic
_cell_length_a                    6.993303
_cell_length_b                    11.321723
_cell_length_c                    18.969981
_cell_angle_alpha                 89.999927
_cell_angle_beta                  92.883152
_cell_angle_gamma                 90.000013
_cell_volume                      1500.07054812

loop_
_atom_site_label
_atom_site_type_symbol
_atom_type_description
_atom_site_fract_x
_atom_site_fract_y
_atom_site_fract_z
_atom_type_partial_charge
O1    O     O_R   0.330540 0.606360 0.598870 -0.545689
O2    O     O_R   0.669460 0.106360 0.401130 -0.545689
O3    O     O_R   0.026770 0.620470 0.750430 -0.544054
O4    O     O_R   0.973230 0.120470 0.249570 -0.544054
O5    O     O_R   0.856460 0.393640 0.750930 -0.542056
O6    O     O_R   0.143540 0.893640 0.249070 -0.542056
C1    C     C_R   0.197957 0.640419 0.777896 0.736144
C2    C     C_R   0.802043 0.140419 0.222104 0.736144
O7    O     O_R   0.000920 0.620350 0.599420 -0.542387
O8    O     O_R   0.999080 0.120350 0.400580 -0.542387
O9    O     O_R   0.830430 0.393520 0.598850 -0.531178
O10   O     O_R   0.169570 0.893520 0.401150 -0.531177
C3    C     C_R   0.167049 0.651222 0.576675 0.743447
C4    C     C_R   0.832951 0.151222 0.423325 0.743448
O11   O     O_R   0.356570 0.606480 0.750960 -0.544145
O12   O     O_R   0.643430 0.106480 0.249040 -0.544145
O13   O     O_3   0.176990 0.425580 0.674890 -0.377259
O14   O     O_3   0.823010 0.925580 0.325110 -0.377259
V1    V     V_3+5 0.902170 0.513810 0.674910 1.397536
V2    V     V_3+5 0.097830 0.013810 0.325090 1.397536
O15   O     O_R   0.500800 0.379530 0.599380 -0.549365
O16   O     O_R   0.499200 0.879530 0.400620 -0.549365
C5    C     C_R   0.667319 0.353521 0.573957 0.774231
C6    C     C_R   0.332680 0.853521 0.426043 0.774232
O17   O     O_R   0.526650 0.379650 0.750390 -0.545506
O18   O     O_R   0.473350 0.879650 0.249610 -0.545506
C7    C     C_R   0.698508 0.354022 0.775053 0.683617
C8    C     C_R   0.301492 0.854023 0.224947 0.683618
V3    V     V_3+5 0.402160 0.486190 0.674900 1.380661
V4    V     V_3+5 0.597840 0.986190 0.325100 1.380661
O19   O     O_3   0.677210 0.574420 0.674910 -0.372457
O20   O     O_3   0.322790 0.074420 0.325090 -0.372457
C9    C     C_R   0.642628 0.079744 0.878229 -0.177948
C10   C     C_R   0.357378 0.579746 0.121771 -0.177951
H1    H     H_    0.566952 0.135525 0.773285 0.126527
H2    H     H_    0.433054 0.635528 0.226714 0.126529
H3    H     H_    0.587031 0.992434 0.866380 0.156344
H4    H     H_    0.412979 0.492437 0.133620 0.156346
C11   C     C_R   0.712219 0.271630 0.834347 -0.105788
C12   C     C_R   0.287780 0.771631 0.165653 -0.105791
C13   C     C_R   0.818212 0.343310 0.179957 0.103941
C14   C     C_R   0.181788 0.843310 0.820043 0.103941
C15   C     C_R   0.832384 0.427534 0.126457 0.147989
C16   C     C_R   0.167617 0.927534 0.873543 0.147987
C17   C     C_R   0.794676 0.395266 0.054939 0.173503
C18   C     C_R   0.205325 0.895266 0.945061 0.173497
C19   C     C_R   0.781218 0.271669 0.034372 -0.017798
C20   C     C_R   0.218783 0.771669 0.965628 -0.017795
C21   C     C_R   0.768575 0.184582 0.089756 -0.099808
C22   C     C_R   0.231426 0.684582 0.910244 -0.099809
C23   C     C_R   0.763038 0.231565 0.961477 0.020646
C24   C     C_R   0.236962 0.731565 0.038523 0.020650
C25   C     C_R   0.713235 0.112160 0.946575 0.013554
C26   C     C_R   0.286767 0.612161 0.053425 0.013557
C27   C     C_R   0.729263 0.026276 0.999380 0.178209
C28   C     C_R   0.270739 0.526276 0.000621 0.178208
C29   C     C_R   0.734383 0.062009 0.070680 0.124030
C30   C     C_R   0.265617 0.562008 0.929320 0.124031
C31   C     C_R   0.795797 0.303126 0.901337 0.278963
C32   C     C_R   0.204201 0.803125 0.098662 0.278964
C33   C     C_R   0.630527 0.161169 0.824308 -0.240446
C34   C     C_R   0.369477 0.661171 0.175691 -0.240445
C35   C     C_R   0.787885 0.223396 0.162361 -0.107737
C36   C     C_R   0.212115 0.723396 0.837639 -0.107738
C37   C     C_2   0.831811 0.247430 0.476655 -0.029321
C38   C     C_2   0.168190 0.747430 0.523345 -0.029320
C39   C     C_2   0.675326 0.265610 0.515850 -0.354884
C40   C     C_2   0.324673 0.765610 0.484149 -0.354884
H5    H     H_    0.548639 0.211312 0.506133 0.122653
H6    H     H_    0.451359 0.711310 0.493866 0.122652
C41   C     C_3   0.733091 0.895900 0.978116 -0.745559
H7    H     H_    0.586675 0.861800 0.967735 0.196289
H8    H     H_    0.812684 0.883533 0.929640 0.208372
H9    H     H_    0.806382 0.838382 0.017909 0.256166
C42   C     C_3   0.266909 0.395901 0.021885 -0.745572
H10   H     H_    0.413325 0.361797 0.032257 0.196293
H11   H     H_    0.187332 0.383534 0.070364 0.208370
H12   H     H_    0.193600 0.338386 0.982095 0.256171
O21   O     O_3   0.925598 0.393976 0.907270 -0.660316
H13   H     H_    0.893317 0.455014 0.871377 0.283309
O22   O     O_3   0.074397 0.893974 0.092729 -0.660315
H14   H     H_    0.106674 0.955011 0.128623 0.283309
C43   C     C_3   0.832716 0.384519 0.256881 -0.754905
H15   H     H_    0.790968 0.317613 0.295747 0.190953
H16   H     H_    0.981866 0.411859 0.271543 0.203296
H17   H     H_    0.734354 0.459910 0.264359 0.199972
C44   C     C_3   0.167285 0.884518 0.743119 -0.754905
H18   H     H_    0.209033 0.817613 0.704252 0.190953
H19   H     H_    0.018133 0.911858 0.728457 0.203296
H20   H     H_    0.265645 0.959910 0.735640 0.199973
C45   C     C_3   0.737484 0.497483 0.006523 -0.715011
H21   H     H_    0.864955 0.545566 0.989223 0.235616
H22   H     H_    0.643536 0.470321 0.961639 0.210783
H23   H     H_    0.651881 0.563301 0.034028 0.201482
C46   C     C_3   0.262515 0.997482 0.993477 -0.715009
H24   H     H_    0.135044 0.045565 0.010776 0.235616
H25   H     H_    0.356461 0.970321 0.038361 0.210784
H26   H     H_    0.348120 0.063300 0.965972 0.201482
C47   C     C_3   0.880141 0.554693 0.147474 -0.743840
H27   H     H_    0.005294 0.556733 0.185595 0.220686
H28   H     H_    0.919546 0.611206 0.103039 0.221826
H29   H     H_    0.757029 0.596337 0.172239 0.210316
C48   C     C_3   0.119862 0.054693 0.852525 -0.743839
H30   H     H_    0.994711 0.056733 0.814404 0.220686
H31   H     H_    0.080457 0.111206 0.896960 0.221826
H32   H     H_    0.242976 0.096336 0.827761 0.210317
C49   C     C_3   0.667504 0.971152 0.122889 -0.668823
H33   H     H_    0.616391 0.886676 0.099748 0.189549
H34   H     H_    0.781568 0.946200 0.162583 0.223149
H35   H     H_    0.538147 0.006963 0.146294 0.189121
C50   C     C_3   0.332491 0.471149 0.877112 -0.668824
H36   H     H_    0.383599 0.386673 0.900253 0.189552
H37   H     H_    0.218425 0.446200 0.837417 0.223150
H38   H     H_    0.461848 0.506959 0.853706 0.189120
C51   C     C_3   0.007211 0.326839 0.482684 -0.698498
H39   H     H_    0.104253 0.312957 0.438926 0.188758
H40   H     H_    0.963725 0.421147 0.479668 0.199270
H41   H     H_    0.091274 0.308865 0.532734 0.223867
C52   C     C_3   0.992793 0.826842 0.517318 -0.698500
H42   H     H_    0.895752 0.812961 0.561077 0.188758
H43   H     H_    0.036282 0.921149 0.520334 0.199270
H44   H     H_    0.908726 0.808869 0.467268 0.223867

loop_
_geom_bond_atom_site_label_1
_geom_bond_atom_site_label_2
_ccdc_geom_bond_type
C38   C40   D    
C44   H18   S    
C21   C35   A    
C22   C36   A    
C25   C27   A    
C46   H24   S    
O4    C2    A    
V1    O19   S    
O22   H14   S    
C46   H26   S    
C21   C29   A    
C19   C21   A    
O9    V1    S    
C12   C32   A    
C15   C47   S    
O3    C1    A    
C8    C12   S    
O12   V4    S    
C51   H39   S    
C13   C43   S    
C10   C34   A    
C12   C34   A    
O7    V1    S    
C5    C39   S    
O7    C3    A    
C24   C32   A    
O5    C7    A    
C48   H31   S    
O6    C8    A    
C18   C46   S    
C50   H36   S    
C7    C11   S    
C51   H40   S    
C49   H33   S    
O3    V1    S    
O14   V4    S    
C48   H32   S    
C52   H43   S    
O2    C4    A    
C2    O12   A    
C28   C42   S    
C9    C25   A    
C13   C15   A    
C14   C16   A    
H2    C34   S    
C16   C48   S    
C24   C26   A    
O11   V3    S    
C18   C20   A    
C3    C38   S    
C17   C19   A    
O17   V3    S    
C11   C33   A    
C26   C28   A    
C30   C50   S    
C22   C30   A    
H1    C33   S    
O8    C4    A    
C31   O21   S    
C45   H21   S    
C41   H8    S    
C19   C23   A    
C1    O11   A    
C16   C18   A    
C37   C39   D    
O15   V3    S    
C9    H3    S    
C23   C25   A    
C42   H10   S    
C45   H22   S    
C42   H11   S    
C32   O22   S    
C43   H15   S    
C51   H41   S    
C11   C31   A    
O10   V2    S    
O1    V3    S    
C43   H17   S    
C50   H37   S    
C20   C22   A    
C15   C17   A    
C9    C33   A    
C43   H16   S    
C10   C26   A    
C38   C52   S    
O15   C5    A    
C49   H35   S    
O16   C6    A    
O1    C3    A    
C13   C35   A    
C14   C36   A    
V2    O20   S    
C52   H44   S    
O16   V4    S    
C29   C49   S    
C10   H4    S    
C41   H9    S    
C52   H42   S    
C46   H25   S    
O18   V4    S    
O5    V1    S    
O17   C7    A    
O6    V2    S    
O10   C6    A    
O18   C8    A    
C47   H27   S    
O2    V4    S    
C27   C29   A    
C37   C51   S    
C41   H7    S    
V3    O19   S    
O13   V3    S    
C45   H23   S    
V4    O20   S    
C49   H34   S    
O8    V2    S    
O9    C5    A    
O13   V1    S    
C4    C37   S    
C28   C30   A    
C50   H38   S    
O14   V2    S    
C17   C45   S    
C42   H12   S    
C1    C36   S    
C6    C40   S    
C2    C35   S    
O21   H13   S    
O4    V2    S    
C20   C24   A    
C47   H29   S    
C23   C31   A    
C40   H6    S    
C44   H20   S    
C48   H30   S    
C44   H19   S    
C14   C44   S    
C39   H5    S    
C47   H28   S    
C27   C41   S    
