data_mof_unit_27715.cif
_audit_creation_date              2012-12-11T14:40:12-0500
_audit_creation_method            fapswitch 2.2
_symmetry_space_group_name_H-M    P1
_symmetry_Int_Tables_number       1
_space_group_crystal_system       triclinic
_cell_length_a                    19.418569
_cell_length_b                    11.008215
_cell_length_c                    19.453809
_cell_angle_alpha                 89.443774
_cell_angle_beta                  97.659728
_cell_angle_gamma                 89.644076
_cell_volume                      4121.10145377

loop_
_atom_site_label
_atom_site_type_symbol
_atom_type_description
_atom_site_fract_x
_atom_site_fract_y
_atom_site_fract_z
_atom_type_partial_charge
C1    C     C_R   0.726654 0.948802 0.359437 0.566951
C2    C     C_R   0.275584 0.956191 0.637387 0.558698
C3    C     C_R   0.226562 0.449576 0.359829 0.564071
C4    C     C_R   0.772760 0.448984 0.640575 0.569429
C5    C     C_3   0.697755 0.277492 0.499952 -0.134090
C6    C     C_3   0.276494 0.266756 0.504549 -0.074311
C7    C     C_3   0.177489 0.852420 0.487701 -0.131697
C8    C     C_3   0.743792 0.769739 0.506795 -0.126018
C9    C     C_3   0.729997 0.341188 0.441103 -0.008729
C10   C     C_3   0.268916 0.357451 0.561910 0.006861
C11   C     C_3   0.232927 0.846484 0.438642 -0.000456
C12   C     C_3   0.767770 0.862936 0.562455 0.006239
C13   C     C_3   0.710442 0.466258 0.467030 -0.002530
C14   C     C_3   0.309435 0.454047 0.526475 -0.008488
C15   C     C_3   0.259170 0.973166 0.458938 -0.000319
C16   C     C_3   0.822862 0.911225 0.519524 0.004693
C17   C     C_3   0.782825 0.470812 0.511119 -0.169963
C18   C     C_3   0.239152 0.500894 0.488108 -0.194924
C19   C     C_3   0.312485 0.915393 0.515785 -0.162382
C20   C     C_3   0.768486 0.003573 0.485596 -0.184024
C21   C     C_3   0.801636 0.344806 0.485632 -0.131829
C22   C     C_3   0.199352 0.404338 0.524357 -0.128795
C23   C     C_3   0.286310 0.788046 0.494345 -0.147283
C24   C     C_3   0.713749 0.955478 0.529850 -0.151796
C25   C     C_3   0.769857 0.282249 0.545300 -0.175950
C26   C     C_3   0.206034 0.313611 0.466351 -0.100930
C27   C     C_3   0.230992 0.793388 0.544909 -0.180574
C28   C     C_3   0.689623 0.862495 0.473463 -0.143133
C29   C     C_3   0.751360 0.407262 0.570620 0.058665
C30   C     C_3   0.246043 0.409162 0.430368 0.047317
C31   C     C_3   0.256999 0.919841 0.565914 0.064184
C32   C     C_3   0.744832 0.909690 0.430163 0.063050
C33   C     C_3   0.577788 0.197378 0.961526 -0.205186
C34   C     C_3   0.549242 0.283579 0.013806 -0.184292
C35   C     C_3   0.077847 0.697585 0.961506 -0.205762
C36   C     C_3   0.049217 0.783646 0.013805 -0.183903
C37   C     C_3   0.575029 0.088363 0.012810 -0.160225
C38   C     C_3   0.473836 0.256157 0.982071 -0.129903
C39   C     C_3   0.075192 0.588513 0.012774 -0.160283
C40   C     C_3   0.973841 0.756024 0.982058 -0.129603
C41   C     C_3   0.545684 0.175205 0.063472 -0.008051
C42   C     C_3   0.502680 0.169822 0.930493 0.004102
C43   C     C_3   0.045756 0.675213 0.063454 -0.009600
C44   C     C_3   0.002764 0.669827 0.930463 0.003302
C45   C     C_R   0.536903 0.180194 0.338945 0.532231
C46   C     C_R   0.464832 0.180343 0.662248 0.538106
C47   C     C_R   0.035366 0.679835 0.338004 0.560464
C48   C     C_R   0.964655 0.680222 0.662045 0.536224
C49   C     C_3   0.471453 0.148004 0.031616 0.426842
C50   C     C_3   0.499582 0.062707 0.980425 0.423166
C51   C     C_3   0.971557 0.647814 0.031577 0.429170
C52   C     C_3   0.999772 0.562656 0.980375 0.422809
C53   C     C_1   0.773610 0.451294 0.910598 0.046726
C54   C     C_1   0.243642 0.409517 0.100697 0.000453
C55   C     C_1   0.273810 0.951814 0.910687 0.045558
C56   C     C_1   0.743601 0.909597 0.100671 0.013644
C57   C     C_1   0.742691 0.387165 0.031335 -0.003259
C58   C     C_1   0.266778 0.358457 0.974765 -0.012293
C59   C     C_1   0.242923 0.887858 0.031460 -0.005431
C60   C     C_1   0.766711 0.858623 0.974725 -0.012373
C61   C     C_1   0.758396 0.421482 0.965905 0.010980
C62   C     C_1   0.256386 0.383182 0.043713 -0.003552
C63   C     C_1   0.258639 0.922151 0.966033 0.009623
C64   C     C_1   0.756315 0.883344 0.043666 -0.001168
C65   C     C_1   0.731980 0.356114 0.088032 0.013591
C66   C     C_1   0.272903 0.338233 0.915080 -0.003634
C67   C     C_1   0.232155 0.856673 0.088114 0.010833
C68   C     C_1   0.772861 0.838347 0.915056 -0.003438
C69   C     C_R   0.723950 0.308146 0.367787 0.556597
C70   C     C_R   0.275233 0.314327 0.632447 0.568391
C71   C     C_R   0.224107 0.808041 0.367381 0.556665
C72   C     C_R   0.774659 0.816877 0.632238 0.557500
C73   C     C_R   0.722976 0.951144 0.164562 0.527003
C74   C     C_R   0.292666 0.989758 0.845828 0.551671
C75   C     C_R   0.222956 0.451207 0.164533 0.510662
C76   C     C_R   0.792569 0.489515 0.845828 0.549397
C77   C     C_R   0.564769 0.182956 0.137852 0.560727
C78   C     C_R   0.470550 0.178301 0.858851 0.549534
C79   C     C_R   0.064789 0.682959 0.137853 0.562212
C80   C     C_R   0.970577 0.678301 0.858836 0.546796
C81   C     C_R   0.723086 0.315268 0.155692 0.530860
C82   C     C_R   0.278137 0.310415 0.844048 0.541436
C83   C     C_R   0.223156 0.815507 0.155681 0.531922
C84   C     C_R   0.778127 0.810444 0.844049 0.542380
C85   C     C_1   0.487257 0.173167 0.595672 0.020930
C86   C     C_1   0.516993 0.172249 0.406658 0.008356
C87   C     C_1   0.986333 0.672161 0.595048 0.004777
C88   C     C_1   0.014302 0.670638 0.405297 0.015963
C89   C     C_1   0.507214 0.169248 0.466223 0.005563
C90   C     C_1   0.498251 0.169733 0.536516 0.001961
C91   C     C_1   0.004604 0.666400 0.464950 -0.015673
C92   C     C_1   0.996513 0.667292 0.535604 -0.026008
C93   C     C_3   0.679876 0.403406 0.526967 0.378253
C94   C     C_3   0.315510 0.363929 0.467732 0.351778
C95   C     C_3   0.204703 0.979309 0.509367 0.357236
C96   C     C_3   0.798657 0.818942 0.463109 0.344193
Cr1   Cr    Cr6+3 0.765830 0.160660 0.268180 1.037746
Cr2   Cr    Cr6+3 0.234170 0.160660 0.731820 1.040503
Cr3   Cr    Cr6+3 0.265830 0.660660 0.268180 1.032098
Cr4   Cr    Cr6+3 0.734170 0.660660 0.731820 1.046636
Cr5   Cr    Cr6+3 0.612110 0.009150 0.248770 1.014995
Cr6   Cr    Cr6+3 0.387890 0.009150 0.751230 1.035706
Cr7   Cr    Cr6+3 0.112110 0.509150 0.248770 1.040824
Cr8   Cr    Cr6+3 0.887890 0.509150 0.751230 1.056989
Cr9   Cr    Cr6+3 0.615930 0.324050 0.248450 1.034362
Cr10  Cr    Cr6+3 0.384070 0.324050 0.751550 1.034649
Cr11  Cr    Cr6+3 0.115930 0.824050 0.248450 1.023917
Cr12  Cr    Cr6+3 0.884070 0.824050 0.751550 1.023127
H1    H     H_    0.661772 0.199535 0.492916 0.108683
H2    H     H_    0.297191 0.175213 0.519037 0.118432
H3    H     H_    0.122491 0.825972 0.473996 0.106706
H4    H     H_    0.729664 0.679073 0.523713 0.121443
H5    H     H_    0.367667 0.941823 0.529552 0.119410
H6    H     H_    0.781580 0.096258 0.470364 0.133933
H7    H     H_    0.820186 0.547117 0.517178 0.152067
H8    H     H_    0.217033 0.591792 0.475412 0.111531
H9    H     H_    0.852304 0.319677 0.468963 0.159784
H10   H     H_    0.151752 0.422208 0.548691 0.149711
H11   H     H_    0.320737 0.712934 0.482592 0.150116
H12   H     H_    0.680041 0.011053 0.559249 0.137781
H13   H     H_    0.793435 0.209018 0.580208 0.125423
H14   H     H_    0.160894 0.261972 0.441507 0.177124
H15   H     H_    0.218217 0.721894 0.581593 0.114053
H16   H     H_    0.634837 0.841035 0.453578 0.145180
H17   H     H_    0.616370 0.019237 0.027032 0.134857
H18   H     H_    0.431747 0.324723 0.969408 0.145241
H19   H     H_    0.116600 0.519503 0.026979 0.136631
H20   H     H_    0.931686 0.824473 0.969410 0.146176
H21   H     H_    0.620977 0.217460 0.931190 0.145781
H22   H     H_    0.570011 0.374607 0.028957 0.154241
H23   H     H_    0.121020 0.717830 0.931179 0.144327
H24   H     H_    0.069905 0.874721 0.028968 0.155111
O1    O     O_R   0.783230 0.287800 0.346510 -0.506233
O2    O     O_R   0.216770 0.287800 0.653490 -0.490939
O3    O     O_R   0.283230 0.787800 0.346510 -0.505942
O4    O     O_R   0.716770 0.787800 0.653490 -0.503206
O5    O     O_R   0.554500 0.081650 0.170370 -0.448697
O6    O     O_R   0.445500 0.081650 0.829630 -0.465932
O7    O     O_R   0.054500 0.581650 0.170370 -0.440411
O8    O     O_R   0.945500 0.581650 0.829630 -0.466418
O9    O     O_R   0.545430 0.285140 0.163100 -0.490268
O10   O     O_R   0.454570 0.285140 0.836900 -0.521636
O11   O     O_R   0.045430 0.785140 0.163100 -0.484913
O12   O     O_R   0.954570 0.785140 0.836900 -0.523641
O13   O     O_R   0.677850 0.374730 0.185500 -0.503167
O14   O     O_R   0.322150 0.374730 0.814500 -0.482395
O15   O     O_R   0.177850 0.874730 0.185500 -0.501983
O16   O     O_R   0.822150 0.874730 0.814500 -0.478694
O17   O     O_3   0.664630 0.164620 0.255130 -0.329324
O18   O     O_3   0.335370 0.164620 0.744870 -0.324260
O19   O     O_3   0.164630 0.664620 0.255130 -0.331900
O20   O     O_3   0.835370 0.664620 0.744870 -0.322492
O21   O     O_R   0.760130 0.037060 0.338610 -0.515775
O22   O     O_R   0.239870 0.037060 0.661390 -0.473150
O23   O     O_R   0.260130 0.537060 0.338610 -0.499227
O24   O     O_R   0.739870 0.537060 0.661390 -0.484672
O25   O     O_R   0.666620 0.921370 0.332440 -0.532087
O26   O     O_R   0.333380 0.921370 0.667560 -0.539838
O27   O     O_R   0.166620 0.421370 0.332440 -0.540646
O28   O     O_R   0.833380 0.421370 0.667560 -0.522700
O29   O     O_R   0.557170 0.082420 0.312350 -0.503897
O30   O     O_R   0.442830 0.082420 0.687650 -0.514345
O31   O     O_R   0.057170 0.582420 0.312350 -0.483773
O32   O     O_R   0.942830 0.582420 0.687650 -0.501384
O33   O     O_R   0.548310 0.285980 0.316250 -0.490834
O34   O     O_R   0.451690 0.285980 0.683750 -0.488127
O35   O     O_R   0.048310 0.785980 0.316250 -0.515824
O36   O     O_R   0.951690 0.785980 0.683750 -0.505969
O37   O     O_R   0.680520 0.375500 0.327470 -0.485353
O38   O     O_R   0.319480 0.375500 0.672530 -0.503684
O39   O     O_R   0.180520 0.875500 0.327470 -0.499309
O40   O     O_R   0.819480 0.875500 0.672530 -0.505659
O41   O     O_R   0.780350 0.286970 0.193350 -0.466481
O42   O     O_R   0.219650 0.286970 0.806650 -0.496220
O43   O     O_R   0.280350 0.786970 0.193350 -0.473442
O44   O     O_R   0.719650 0.786970 0.806650 -0.493903
O45   O     O_R   0.757460 0.036290 0.196640 -0.504596
O46   O     O_R   0.242540 0.036290 0.803360 -0.518905
O47   O     O_R   0.257460 0.536290 0.196640 -0.506635
O48   O     O_R   0.742540 0.536290 0.803360 -0.514313
O49   O     O_R   0.663740 0.920540 0.179290 -0.525798
O50   O     O_R   0.336260 0.920540 0.820710 -0.468954
O51   O     O_R   0.163740 0.420540 0.179290 -0.521227
O52   O     O_R   0.836260 0.420540 0.820710 -0.462763
F1    F     F_    0.619115 0.430912 0.553400 -0.663506
F2    F     F_    0.372229 0.339356 0.434049 -0.666643
F3    F     F_    0.164955 0.079246 0.520437 -0.700585
F4    F     F_    0.840949 0.748222 0.427712 -0.683514
C97   C     C_R   0.674333 0.559082 0.416510 0.033824
C98   C     C_R   0.602177 0.578380 0.411774 -0.088082
C99   C     C_R   0.566665 0.642582 0.355459 -0.129667
C100  C     C_R   0.602435 0.685341 0.302559 -0.063712
C101  C     C_R   0.674254 0.667921 0.307173 -0.051340
C102  C     C_R   0.710366 0.608135 0.364750 -0.038337
H25   H     H_    0.572403 0.538956 0.449217 0.170522
H26   H     H_    0.511004 0.655790 0.351760 0.117583
H27   H     H_    0.574619 0.732512 0.258139 0.129475
H28   H     H_    0.701962 0.700589 0.266019 0.139629
H29   H     H_    0.765319 0.589980 0.365821 0.189205
C103  C     C_R   0.366989 0.531998 0.562751 0.034409
C104  C     C_R   0.432284 0.538892 0.539046 -0.071306
C105  C     C_R   0.484488 0.612293 0.572951 -0.094716
C106  C     C_R   0.472686 0.677699 0.631374 -0.100671
C107  C     C_R   0.408289 0.671301 0.655456 -0.086914
C108  C     C_R   0.355282 0.601081 0.620550 -0.062781
H30   H     H_    0.443246 0.489421 0.494113 0.195533
H31   H     H_    0.534277 0.618532 0.554110 0.164297
H32   H     H_    0.513439 0.733304 0.657968 0.125700
H33   H     H_    0.399470 0.720640 0.701324 0.147764
H34   H     H_    0.305455 0.598713 0.639576 0.127982
C109  C     C_R   0.272666 0.058232 0.400612 0.047117
C110  C     C_R   0.216512 0.111199 0.357309 -0.058475
C111  C     C_R   0.227086 0.172047 0.296321 -0.088819
C112  C     C_R   0.293909 0.181854 0.278188 -0.059218
C113  C     C_R   0.350014 0.129271 0.320595 -0.027989
C114  C     C_R   0.339703 0.067785 0.381661 -0.037076
H35   H     H_    0.163948 0.099697 0.368971 0.133322
H36   H     H_    0.183246 0.209791 0.262561 0.143421
H37   H     H_    0.302085 0.228141 0.230651 0.134384
H38   H     H_    0.401118 0.133493 0.304856 0.130644
H39   H     H_    0.383435 0.023552 0.412418 0.100676
C115  C     C_R   0.894190 0.961968 0.541232 0.045527
C116  C     C_R   0.945542 0.951281 0.497267 -0.099112
C117  C     C_R   0.008517 0.012215 0.512208 -0.104798
C118  C     C_R   0.020773 0.084851 0.571077 -0.072484
C119  C     C_R   0.969558 0.098195 0.614289 -0.121180
C120  C     C_R   0.906186 0.038913 0.598823 -0.066006
H40   H     H_    0.936157 0.899818 0.449969 0.181175
H41   H     H_    0.046786 0.005249 0.476907 0.170321
H42   H     H_    0.068989 0.133564 0.582635 0.199835
H43   H     H_    0.978243 0.157083 0.658798 0.117298
H44   H     H_    0.865994 0.057117 0.630675 0.135446
F5    F     F_    0.417143 0.122283 0.068626 -0.596820
F6    F     F_    0.473251 0.949323 0.962328 -0.589230
F7    F     F_    0.917251 0.621873 0.068544 -0.586902
F8    F     F_    0.973552 0.449206 0.962259 -0.587445

loop_
_geom_bond_atom_site_label_1
_geom_bond_atom_site_label_2
_ccdc_geom_bond_type
C58   C62   S    
C20   H6    S    
C79   O7    A    
C106  C107  A    
Cr2   O22   S    
C67   C83   S    
C98   C99   A    
Cr10  O18   S    
C83   O43   A    
C93   F1    S    
C17   C29   S    
C104  C105  A    
C14   C18   S    
C7    C27   S    
C16   C115  S    
C35   C36   S    
C8    C96   S    
Cr1   O1    S    
C19   C31   S    
C117  C118  A    
Cr6   O26   S    
C48   O32   A    
C95   F3    S    
C38   C49   S    
Cr11  O39   S    
C111  C112  A    
C10   C22   S    
C15   C19   S    
C119  H43   S    
C28   C32   S    
C52   F8    S    
C5    C9    S    
C103  C108  A    
Cr9   O37   S    
C37   C41   S    
Cr7   O51   S    
C33   C42   S    
C72   O40   A    
C120  H44   S    
C9    C69   S    
C38   C42   S    
C112  H37   S    
C36   H24   S    
C15   C95   S    
Cr2   O42   S    
C41   C77   S    
C11   C71   S    
C72   O4    A    
C110  H35   S    
C19   H5    S    
C43   C79   S    
C101  H28   S    
C40   H20   S    
Cr4   O48   S    
C13   C97   S    
C51   F7    S    
C75   O51   A    
Cr6   O6    S    
Cr5   O17   S    
C57   C61   S    
C50   F6    S    
C9    C13   S    
C99   H26   S    
C7    C11   S    
C49   F5    S    
C59   C67   T    
C43   C51   S    
C114  H39   S    
C55   C74   S    
C11   C15   S    
C97   C102  A    
C58   C66   T    
C79   O11   A    
C12   C16   S    
Cr9   O33   S    
C103  C104  A    
C6    C94   S    
C55   C63   T    
C107  H33   S    
Cr4   O44   S    
C15   C109  S    
C104  H30   S    
C56   C64   T    
C9    C21   S    
C18   C30   S    
Cr1   O21   S    
Cr2   O46   S    
C18   C22   S    
C75   O47   A    
C73   O49   A    
C4    C29   S    
C8    C12   S    
C46   C85   S    
Cr11  O19   S    
C44   C52   S    
C39   C52   S    
Cr12  O36   S    
Cr5   O25   S    
Cr5   O29   S    
C2    O22   A    
Cr12  O20   S    
C87   C92   T    
C3    O27   A    
C107  C108  A    
Cr10  O38   S    
Cr8   O52   S    
C97   C98   A    
C34   C41   S    
C53   C61   T    
Cr8   O28   S    
C78   O6    A    
C45   O29   A    
C41   C49   S    
C38   H18   S    
Cr10  O10   S    
C37   H17   S    
Cr9   O17   S    
C84   O16   A    
C25   C29   S    
Cr11  O35   S    
C16   C96   S    
C39   H19   S    
C105  C106  A    
C29   C93   S    
C27   C31   S    
C99   C100  A    
Cr6   O50   S    
C20   C24   S    
C117  H41   S    
C36   C40   S    
Cr1   O41   S    
C116  C117  A    
C10   C14   S    
C18   H8    S    
C91   C92   S    
C27   H15   S    
C112  C113  A    
C39   C43   S    
C54   C62   T    
C80   O12   A    
Cr11  O15   S    
C80   O8    A    
Cr3   O19   S    
C1    C32   S    
Cr4   O20   S    
Cr8   O8    S    
Cr3   O23   S    
C2    C31   S    
C68   C84   S    
C6    H2    S    
C3    C30   S    
C35   C39   S    
C113  C114  A    
Cr3   O47   S    
Cr7   O7    S    
C66   C82   S    
C47   O35   A    
Cr1   O45   S    
C109  C110  A    
C74   O46   A    
C88   C91   T    
C44   C80   S    
C16   C20   S    
Cr9   O13   S    
C23   H11   S    
C3    O23   A    
C33   C34   S    
C6    C26   S    
C48   C87   S    
Cr3   O3    S    
C1    O25   A    
C69   O37   A    
C100  H27   S    
C110  C111  A    
C1    O21   A    
C35   C44   S    
C69   O1    A    
C25   H13   S    
C98   H25   S    
C42   C50   S    
C83   O15   A    
C10   C70   S    
C32   C96   S    
Cr6   O18   S    
C48   O36   A    
C119  C120  A    
Cr2   O18   S    
C23   C27   S    
C105  H31   S    
Cr12  O40   S    
C46   O30   A    
C8    C28   S    
C49   C50   S    
C5    C25   S    
C59   C63   S    
C53   C76   S    
Cr4   O24   S    
C82   O14   A    
Cr11  O11   S    
C4    O24   A    
C35   H23   S    
Cr12  O12   S    
Cr5   O49   S    
Cr6   O30   S    
C17   H7    S    
C24   C28   S    
C20   C32   S    
C33   H21   S    
C22   H10   S    
C21   C25   S    
Cr5   O5    S    
C56   C73   S    
C46   O34   A    
C118  C119  A    
C34   C38   S    
C115  C120  A    
Cr7   O31   S    
C73   O45   A    
C94   F2    S    
C77   O5    A    
C76   O48   A    
C86   C89   T    
Cr2   O2    S    
Cr8   O32   S    
C5    C93   S    
C85   C90   T    
C28   H16   S    
C42   C78   S    
C74   O50   A    
Cr7   O19   S    
C40   C51   S    
C7    C95   S    
C106  H32   S    
C12   C24   S    
C81   O13   A    
C118  H42   S    
Cr10  O14   S    
C13   C17   S    
C60   C64   S    
C111  H36   S    
C100  C101  A    
Cr8   O20   S    
C78   O10   A    
C45   C86   S    
C24   H12   S    
C82   O42   A    
C47   O31   A    
C51   C52   S    
C30   C94   S    
C76   O52   A    
C113  H38   S    
C47   C88   S    
C71   O3    A    
C37   C50   S    
C116  H40   S    
Cr7   O27   S    
C4    O28   A    
C14   C103  S    
C108  H34   S    
Cr10  O34   S    
C31   C95   S    
C5    H1    S    
C11   C23   S    
C8    H4    S    
C7    H3    S    
C109  C114  A    
C71   O39   A    
C70   O38   A    
C115  C116  A    
C12   C72   S    
Cr9   O9    S    
C33   C37   S    
C21   H9    S    
C60   C68   T    
C6    C10   S    
C54   C75   S    
C102  H29   S    
C19   C23   S    
C40   C44   S    
Cr3   O43   S    
C2    O26   A    
C34   H22   S    
C77   O9    A    
C101  C102  A    
C22   C26   S    
C13   C93   S    
C70   O2    A    
Cr1   O17   S    
C65   C81   S    
C36   C43   S    
C26   H14   S    
Cr12  O16   S    
C89   C90   S    
C84   O44   A    
C45   O33   A    
C96   F4    S    
C14   C94   S    
Cr4   O4    S    
C81   O41   A    
C57   C65   T    
C26   C30   S    
C17   C21   S    
