data_mof_unit_21022.cif
_audit_creation_date              2012-12-10T16:59:13-0500
_audit_creation_method            fapswitch 2.2
_symmetry_space_group_name_H-M    P1
_symmetry_Int_Tables_number       1
_space_group_crystal_system       triclinic
_cell_length_a                    7.741626
_cell_length_b                    8.560736
_cell_length_c                    27.655134
_cell_angle_alpha                 90.767522
_cell_angle_beta                  86.137046
_cell_angle_gamma                 93.801041
_cell_volume                      1824.55678137

loop_
_atom_site_label
_atom_site_type_symbol
_atom_type_description
_atom_site_fract_x
_atom_site_fract_y
_atom_site_fract_z
_atom_type_partial_charge
C1    C     C_R   0.545984 0.794860 0.498725 0.973362
C2    C     C_R   0.594987 0.627498 0.124589 -0.014949
C3    C     C_R   0.510522 0.490546 0.646500 -0.066369
C4    C     C_R   0.494536 0.509579 0.353421 -0.076501
C5    C     C_R   0.641365 0.609082 0.022629 0.067173
C6    C     C_R   0.526117 0.330584 0.974011 0.064700
C7    C     C_R   0.524324 0.334066 0.025400 0.019779
C8    C     C_R   0.658383 0.600730 0.971366 0.024618
C9    C     C_R   0.573667 0.475558 0.049443 0.072787
C10   C     C_R   0.591632 0.465054 0.947321 0.073255
C11   C     C_R   0.684010 0.749100 0.048078 -0.221909
C12   C     C_R   0.454017 0.205141 0.501276 0.974700
C13   C     C_R   0.458257 0.198937 0.948261 -0.229813
C14   C     C_R   0.662872 0.757167 0.098005 -0.163732
C15   C     C_R   0.452249 0.200563 0.898364 -0.151855
C16   C     C_R   0.502767 0.498392 0.593962 0.883782
C17   C     C_R   0.497646 0.501703 0.406047 0.888576
C18   C     C_R   0.737719 0.725311 0.943183 -0.272421
C19   C     C_R   0.470500 0.201318 0.053672 -0.256990
C20   C     C_2   0.570209 0.958412 0.497997 -0.367170
C21   C     C_2   0.429794 0.041589 0.502008 -0.367177
C22   C     C_R   0.631346 0.597641 0.818889 0.593281
C23   C     C_R   0.586640 0.465149 0.896154 -0.083349
C24   C     C_R   0.468647 0.368580 0.179136 0.567208
C25   C     C_R   0.497492 0.338332 0.822174 0.565297
C26   C     C_R   0.567654 0.638242 0.174840 0.544498
C27   C     C_R   0.670689 0.435275 0.715357 -0.073134
C28   C     C_R   0.650621 0.541163 0.275473 -0.072981
C29   C     C_R   0.661309 0.443480 0.665748 -0.186047
C30   C     C_R   0.650824 0.535550 0.325377 -0.154129
C31   C     C_R   0.368456 0.528659 0.677572 -0.251854
C32   C     C_R   0.337135 0.492819 0.330938 -0.259491
C33   C     C_R   0.376452 0.522816 0.728075 -0.002518
C34   C     C_R   0.552979 0.484717 0.100748 -0.079747
C35   C     C_R   0.335332 0.498639 0.280326 0.031842
C36   C     C_R   0.530847 0.475151 0.746540 0.236109
C37   C     C_R   0.495183 0.520563 0.252600 0.222759
C38   C     C_2   0.224214 0.568430 0.760049 0.942811
C39   C     C_2   0.167158 0.480423 0.257340 0.946229
C40   C     C_R   0.651917 0.597913 0.869060 -0.039779
C41   C     C_R   0.489153 0.352378 0.128247 -0.040328
C42   C     C_R   0.733828 0.725877 0.892952 0.123637
C43   C     C_R   0.450031 0.209006 0.104193 0.129437
C44   C     C_R   0.512904 0.333235 0.872115 -0.005969
H1    H     H_    0.252441 0.565138 0.662318 0.197752
H2    H     H_    0.395933 0.097753 0.880518 0.195673
H3    H     H_    0.729101 0.857222 0.030609 0.142438
H4    H     H_    0.402045 0.093807 0.965458 0.145675
H5    H     H_    0.805928 0.825089 0.958933 0.141810
H6    H     H_    0.444999 0.087879 0.037527 0.136848
H7    H     H_    0.702694 0.009802 0.494176 0.181784
H8    H     H_    0.297309 0.990198 0.505830 0.181575
H9    H     H_    0.118877 0.607208 0.827621 0.348828
H10   H     H_    0.030740 0.520629 0.199511 0.337964
H11   H     H_    0.944405 0.870457 0.874212 0.188896
H12   H     H_    0.216081 0.474752 0.352804 0.186512
H13   H     H_    0.754550 0.958470 0.879697 0.196837
H14   H     H_    0.343665 0.981426 0.107502 0.180968
H15   H     H_    0.491206 0.030084 0.147683 0.243943
H16   H     H_    0.014047 0.383275 0.463457 0.196321
H17   H     H_    0.985954 0.616738 0.536538 0.195863
H18   H     H_    0.773749 0.551027 0.341943 0.185500
H19   H     H_    0.772243 0.412302 0.642505 0.169996
H20   H     H_    0.772383 0.558785 0.254117 0.170987
H21   H     H_    0.788015 0.398965 0.729897 0.171355
H22   H     H_    0.699596 0.866809 0.115663 0.181718
N1    N     N_R   0.551780 0.470723 0.797247 -0.345127
N2    N     N_R   0.505498 0.510119 0.200850 -0.338460
N3    N     N_2   0.950320 0.457960 0.486880 -0.174701
N4    N     N_2   0.049680 0.542040 0.513120 -0.175098
N5    N     N_3   0.813505 0.858241 0.866771 -0.363577
N6    N     N_3   0.386726 0.071013 0.130727 -0.360259
O1    O     O_R   0.389250 0.738570 0.503220 -0.611469
O2    O     O_2   0.413604 0.244832 0.207101 -0.518197
O3    O     O_2   0.602986 0.775731 0.197798 -0.546823
O4    O     O_2   0.426539 0.213275 0.798637 -0.541014
O5    O     O_2   0.091340 0.601727 0.742102 -0.622730
O6    O     O_R   0.230962 0.574793 0.810437 -0.810932
O7    O     O_2   0.042281 0.410159 0.278514 -0.643343
O8    O     O_R   0.150533 0.543692 0.211640 -0.797188
O9    O     O_R   0.610750 0.261430 0.496780 -0.611375
O10   O     O_R   0.678390 0.711630 0.494810 -0.629322
O11   O     O_R   0.321610 0.288370 0.505190 -0.628877
O12   O     O_R   0.355440 0.513440 0.575450 -0.617844
O13   O     O_R   0.644560 0.486560 0.424550 -0.617513
O14   O     O_R   0.644590 0.486500 0.567040 -0.631443
O15   O     O_R   0.355410 0.513500 0.432960 -0.628086
O16   O     O_2   0.687142 0.723110 0.791725 -0.487866
Zn1   Zn    Zn3+2 0.306940 0.517990 0.505620 0.957128
Zn2   Zn    Zn3+2 0.693060 0.482010 0.494380 0.957241

loop_
_geom_bond_atom_site_label_1
_geom_bond_atom_site_label_2
_ccdc_geom_bond_type
H17   N4    S    
C29   H19   S    
C43   N6    S    
C27   C29   A    
C11   H3    S    
C25   N1    A    
C24   O2    S    
C36   N1    S    
C17   O13   A    
H16   N3    S    
C35   C37   A    
C15   C44   A    
C5    C11   A    
C20   H7    S    
C18   C42   A    
C11   C14   A    
C23   C40   A    
C37   N2    S    
C16   O12   A    
C33   C36   A    
C3    C29   A    
C31   C33   A    
C22   O16   S    
H15   N6    S    
C2    C34   A    
C40   C42   A    
C16   O14   A    
C24   C41   A    
C41   C43   A    
C34   C41   A    
C25   C44   A    
C19   C43   A    
H10   O8    S    
O11   Zn1   S    
C32   C35   A    
O14   Zn2   S    
C38   O6    S    
C1    O10   A    
C12   C21   S    
C8    C18   A    
C23   C44   A    
C12   O11   A    
C39   O7    D    
C35   C39   S    
C5    C9    A    
C27   H21   S    
C5    C8    A    
C22   C40   A    
C26   O3    S    
C14   H22   S    
C2    C26   A    
H13   N5    S    
C3    C31   A    
C4    C32   A    
C4    C17   S    
C28   H20   S    
C7    C19   A    
C13   C15   A    
C9    C34   A    
C10   C23   A    
N4    Zn1   S    
O12   Zn1   S    
O9    Zn2   S    
N3    Zn2   S    
C7    C9    A    
C1    C20   S    
C17   O15   A    
C6    C10   A    
C13   H4    S    
O13   Zn2   S    
C6    C7    A    
C38   O5    D    
C27   C36   A    
C33   C38   S    
O10   Zn2   S    
C25   O4    S    
C26   N2    A    
C39   O8    S    
C30   H18   S    
H9    O6    S    
C1    O1    A    
C6    C13   A    
C19   H6    S    
H14   N6    S    
C28   C37   A    
C28   C30   A    
C42   N5    S    
C12   O9    A    
N3    N4    D    
C2    C14   A    
H11   N5    S    
C22   N1    A    
C24   N2    A    
O1    Zn1   S    
C20   C21   D    
C8    C10   A    
C31   H1    S    
O15   Zn1   S    
C15   H2    S    
C32   H12   S    
C21   H8    S    
C4    C30   A    
C3    C16   S    
C18   H5    S    
