data_mof_unit_21280.cif
_audit_creation_date              2012-10-26T19:52:47-0400
_audit_creation_method            fapswitch 2.2
_symmetry_space_group_name_H-M    P1
_symmetry_Int_Tables_number       1
_space_group_crystal_system       triclinic
_cell_length_a                    15.040787
_cell_length_b                    10.842799
_cell_length_c                    9.614212
_cell_angle_alpha                 89.825676
_cell_angle_beta                  90.024814
_cell_angle_gamma                 91.352931
_cell_volume                      1567.48190526

loop_
_atom_site_label
_atom_site_type_symbol
_atom_type_description
_atom_site_fract_x
_atom_site_fract_y
_atom_site_fract_z
_atom_type_partial_charge
C1    C     C_R   0.499439 0.262728 0.500058 0.518445
C2    C     C_R   0.184833 0.400248 0.573115 0.251825
C3    C     C_R   0.232733 0.493109 0.500002 0.010873
C4    C     C_R   0.329207 0.497581 0.499925 0.530497
C5    C     C_R   0.188790 0.586890 0.430652 -0.134106
C6    C     C_R   0.478150 0.061521 0.618635 0.095211
C7    C     C_R   0.496032 0.129489 0.498178 -0.065250
C8    C     C_R   0.510121 0.067023 0.372833 -0.089417
C9    C     C_R   0.518133 0.939527 0.371445 0.221780
C10   C     C_R   0.504454 0.871409 0.496624 -0.013998
C11   C     C_R   0.481604 0.934503 0.617474 -0.025451
C12   C     C_R   0.908975 0.596904 0.439195 0.012526
C13   C     C_3   0.524061 0.930465 0.758114 -0.215934
C14   C     C_3   0.520383 0.070384 0.758999 0.108041
C15   C     C_R   0.561766 0.568750 0.073475 0.043501
C16   C     C_R   0.503628 0.737511 0.499318 0.536455
C17   C     C_R   0.433181 0.443181 0.073637 0.398716
C18   C     C_R   0.433173 0.443283 0.926687 0.397025
C19   C     C_R   0.562124 0.567948 0.926406 0.156691
C20   C     C_3   0.661169 0.554214 0.925026 0.428852
C21   C     C_3   0.660366 0.559074 0.083142 -0.205527
C22   C     C_R   0.670727 0.500769 0.500121 0.522294
C23   C     C_R   0.950824 0.320106 0.662111 0.258159
C24   C     C_R   0.815957 0.599270 0.439151 0.203083
C25   C     C_R   0.767305 0.500711 0.501448 0.011554
C26   C     C_R   0.811076 0.403109 0.568903 0.219684
C27   C     C_R   0.904292 0.409153 0.583591 0.043893
C28   C     C_R   0.953349 0.502972 0.511851 -0.072025
C29   C     C_R   0.042979 0.317088 0.655051 -0.024400
C30   C     C_R   0.091897 0.406075 0.579780 0.022113
C31   C     C_R   0.047184 0.501849 0.510578 -0.027908
C32   C     C_R   0.096182 0.594759 0.437588 0.011487
C33   C     C_R   0.050856 0.691646 0.371234 0.240339
C34   C     C_R   0.958425 0.689794 0.370159 0.001777
Cu1   Cu    Cu3+1 0.500000 0.499980 0.640670 1.043681
Cu2   Cu    Cu3+1 0.500000 0.500020 0.359330 0.968965
H1    H     H_    0.925520 0.763676 0.315958 0.211373
H2    H     H_    0.752010 0.435607 0.889296 0.340647
H3    H     H_    0.683389 0.731435 0.895955 0.304779
H4    H     H_    0.681329 0.471675 0.132729 0.161118
H5    H     H_    0.707009 0.290040 0.566739 0.331574
H6    H     H_    0.692034 0.644041 0.126953 0.153301
H7    H     H_    0.864193 0.281246 0.803175 0.362199
H8    H     H_    0.076254 0.245691 0.712886 0.216872
H9    H     H_    0.285155 0.290232 0.592569 0.331523
H10   H     H_    0.228444 0.653496 0.372142 0.148235
H11   H     H_    0.147561 0.812194 0.359640 0.333163
H12   H     H_    0.713625 0.705864 0.412012 0.327909
H13   H     H_    0.522318 0.117444 0.276943 0.170574
H14   H     H_    0.592322 0.828668 0.270915 0.336881
H15   H     H_    0.480128 0.884404 0.836530 0.192354
H16   H     H_    0.593050 0.895917 0.754643 0.116030
H17   H     H_    0.493935 0.118165 0.946814 0.339653
H18   H     H_    0.586283 0.119601 0.758893 0.152266
H19   H     H_    0.389087 0.337723 0.219804 0.356911
H20   H     H_    0.389776 0.337823 0.781524 0.381105
N1    N     N_R   0.500570 0.500930 0.147930 -0.278589
N2    N     N_R   0.500570 0.500890 0.852020 -0.270378
O1    O     O_R   0.500000 0.319640 0.618810 -0.506994
O2    O     O_3   0.544544 0.886878 0.248430 -0.678187
O3    O     O_3   0.460484 0.113791 0.857935 -0.648263
O4    O     O_3   0.364707 0.378902 0.137611 -0.618030
O5    O     O_3   0.364892 0.378893 0.863034 -0.582646
O6    O     O_3   0.686828 0.439184 0.874532 -0.626639
O7    O     O_3   0.707514 0.653139 0.860243 -0.660197
O8    O     O_3   0.765108 0.298298 0.614467 -0.658806
O9    O     O_3   0.909283 0.236120 0.749620 -0.629427
O10   O     O_3   0.226188 0.301690 0.635632 -0.663424
O11   O     O_3   0.093694 0.789458 0.305529 -0.666239
O12   O     O_R   0.500010 0.319680 0.381230 -0.546282
O13   O     O_R   0.370250 0.499950 0.618800 -0.485243
O14   O     O_R   0.370260 0.499990 0.381220 -0.485407
O15   O     O_R   0.499990 0.680320 0.618770 -0.502622
O16   O     O_R   0.500000 0.680360 0.381190 -0.477189
O17   O     O_R   0.629740 0.500010 0.618780 -0.415484
O18   O     O_R   0.629750 0.500050 0.381200 -0.530612
O19   O     O_3   0.775196 0.698937 0.377483 -0.721263

loop_
_geom_bond_atom_site_label_1
_geom_bond_atom_site_label_2
_ccdc_geom_bond_type
C34   H1    S    
H3    O7    S    
Cu1   Cu2   S    
C22   O18   A    
C7    C8    A    
C15   C19   A    
Cu1   O17   S    
C26   C27   A    
C12   C28   A    
Cu1   N2    S    
C16   O16   A    
C23   C29   A    
C2    O10   S    
C1    O1    A    
C30   C31   A    
C18   O5    S    
H19   O4    S    
Cu1   O1    S    
C23   O9    S    
H11   O11   S    
Cu2   O18   S    
C13   H15   S    
H17   O3    S    
C18   N2    A    
C19   C20   S    
C8    C9    A    
C22   C25   S    
C23   C27   A    
C9    C10   A    
C33   O11   S    
C5    C32   A    
Cu1   O13   S    
C13   C14   S    
C15   N1    A    
C22   O17   A    
Cu2   O12   S    
C17   C18   A    
H2    O6    S    
C19   N2    A    
C16   O15   A    
C26   O8    S    
C20   O7    S    
C24   C25   A    
Cu2   N1    S    
C6    C11   A    
C25   C26   A    
C14   O3    S    
H12   O19   S    
C20   O6    S    
C29   C30   A    
C17   O4    S    
C6    C14   S    
C13   H16   S    
C31   C32   A    
H9    O10   S    
C33   C34   A    
H20   O5    S    
C6    C7    A    
Cu2   O16   S    
C14   H18   S    
C29   H8    S    
C12   C34   A    
C3    C4    S    
C4    O14   A    
Cu1   O15   S    
C1    C7    S    
C28   C31   A    
C3    C5    A    
H5    O8    S    
C5    H10   S    
C12   C24   A    
C1    O12   A    
C2    C30   A    
C9    O2    S    
H14   O2    S    
C32   C33   A    
C2    C3    A    
C10   C16   S    
C11   C13   S    
C21   H4    S    
C10   C11   A    
C21   H6    S    
C24   O19   S    
C15   C21   S    
C20   C21   S    
H7    O9    S    
C27   C28   A    
C8    H13   S    
C4    O13   A    
Cu2   O14   S    
C17   N1    A    
