data_mof_unit_48707.cif
_audit_creation_date              2012-12-11T14:52:34-0500
_audit_creation_method            fapswitch 2.2
_symmetry_space_group_name_H-M    P1
_symmetry_Int_Tables_number       1
_space_group_crystal_system       triclinic
_cell_length_a                    18.869374
_cell_length_b                    10.866599
_cell_length_c                    18.75164
_cell_angle_alpha                 89.680343
_cell_angle_beta                  90.84152
_cell_angle_gamma                 89.644127
_cell_volume                      3844.39660797

loop_
_atom_site_label
_atom_site_type_symbol
_atom_type_description
_atom_site_fract_x
_atom_site_fract_y
_atom_site_fract_z
_atom_type_partial_charge
C1    C     C_R   0.271915 0.042467 0.853462 0.546782
C2    C     C_R   0.725661 0.037884 0.144242 0.546029
C3    C     C_R   0.771915 0.542468 0.853461 0.548273
C4    C     C_R   0.225660 0.537882 0.144241 0.548771
C5    C     C_3   0.510246 0.731986 0.974381 -0.102912
C6    C     C_3   0.458747 0.722405 0.037184 -0.118400
C7    C     C_3   0.010244 0.231984 0.974382 -0.102981
C8    C     C_3   0.958744 0.222408 0.037184 -0.118475
C9    C     C_R   0.307567 0.540566 0.963212 -0.151030
C10   C     C_R   0.700543 0.526200 0.037977 -0.145464
C11   C     C_R   0.807567 0.040568 0.963213 -0.151228
C12   C     C_R   0.200547 0.026193 0.037979 -0.145068
C13   C     C_R   0.301059 0.528110 0.036729 -0.153948
C14   C     C_R   0.704520 0.510052 0.964532 -0.146222
C15   C     C_R   0.801059 0.028112 0.036730 -0.153802
C16   C     C_R   0.204524 0.010044 0.964534 -0.146238
C17   C     C_R   0.237329 0.561142 0.069034 0.030597
C18   C     C_R   0.752283 0.580538 0.924612 0.028177
C19   C     C_R   0.737331 0.061148 0.069036 0.031049
C20   C     C_R   0.252284 0.080535 0.924613 0.027854
C21   C     C_R   0.178766 0.597531 0.026792 -0.145758
C22   C     C_R   0.792925 0.671070 0.957897 -0.134593
C23   C     C_R   0.678768 0.097544 0.026795 -0.145796
C24   C     C_R   0.292922 0.171072 0.957897 -0.134877
C25   C     C_R   0.184458 0.605897 0.953966 -0.142851
C26   C     C_R   0.790389 0.684662 0.030647 -0.138783
C27   C     C_R   0.684460 0.105908 0.953968 -0.142862
C28   C     C_R   0.290387 0.184664 0.030647 -0.139058
C29   C     C_R   0.249712 0.583777 0.921979 0.031046
C30   C     C_R   0.745151 0.611192 0.071544 0.025935
C31   C     C_R   0.749713 0.083783 0.921980 0.030896
C32   C     C_R   0.245152 0.111190 0.071545 0.025988
C33   C     C_R   0.440433 0.726883 0.520076 -0.107990
C34   C     C_R   0.458757 0.729358 0.448754 -0.095380
C35   C     C_R   0.941468 0.226115 0.520422 -0.113894
C36   C     C_R   0.959912 0.228468 0.449174 -0.102379
C37   C     C_R   0.490800 0.834100 0.419839 0.023321
C38   C     C_R   0.452542 0.829405 0.563197 0.019567
C39   C     C_R   0.991482 0.333606 0.420105 0.022810
C40   C     C_R   0.953423 0.328900 0.563414 0.020231
C41   C     C_R   0.497590 0.940615 0.461328 -0.138356
C42   C     C_R   0.478335 0.938408 0.532734 -0.131752
C43   C     C_R   0.998730 0.439889 0.461671 -0.140721
C44   C     C_R   0.979873 0.437504 0.533125 -0.136103
C45   C     C_R   0.438279 0.817112 0.862567 0.560608
C46   C     C_R   0.527066 0.822374 0.145776 0.538505
C47   C     C_R   0.938279 0.317112 0.862567 0.561200
C48   C     C_R   0.027066 0.322375 0.145776 0.538393
C49   C     C_R   0.187014 0.627799 0.538643 -0.154734
C50   C     C_R   0.816299 0.594994 0.456354 -0.153316
C51   C     C_R   0.709201 0.181289 0.527789 -0.155374
C52   C     C_R   0.317100 0.103747 0.457156 -0.154026
C53   C     C_R   0.187472 0.630174 0.466162 -0.131576
C54   C     C_R   0.820420 0.597375 0.529010 -0.114205
C55   C     C_R   0.709685 0.173528 0.455514 -0.147759
C56   C     C_R   0.319284 0.106914 0.529842 -0.121344
C57   C     C_R   0.241082 0.569391 0.429698 0.004606
C58   C     C_R   0.761387 0.566637 0.569552 0.017609
C59   C     C_R   0.750118 0.083381 0.423700 -0.001703
C60   C     C_R   0.261519 0.065311 0.568947 0.009610
C61   C     C_R   0.294527 0.504797 0.467386 -0.151894
C62   C     C_R   0.698615 0.528682 0.536523 -0.142590
C63   C     C_R   0.795186 0.006014 0.464468 -0.142551
C64   C     C_R   0.202214 0.015825 0.534058 -0.134169
C65   C     C_R   0.295517 0.504105 0.541726 0.020092
C66   C     C_R   0.693159 0.526464 0.462625 0.032162
C67   C     C_R   0.794804 0.011530 0.538379 0.017205
C68   C     C_R   0.198902 0.013622 0.459958 0.040990
C69   C     C_R   0.244310 0.576118 0.576953 0.014043
C70   C     C_R   0.751472 0.571158 0.422728 0.002673
C71   C     C_R   0.751490 0.101503 0.570079 0.010712
C72   C     C_R   0.254593 0.069691 0.421828 0.005583
C73   C     C_R   0.260449 0.634056 0.851114 0.544969
C74   C     C_R   0.738225 0.641067 0.146541 0.542484
C75   C     C_R   0.760449 0.134056 0.851114 0.548481
C76   C     C_R   0.238225 0.141066 0.146542 0.544229
C77   C     C_R   0.273053 0.042319 0.643847 0.564262
C78   C     C_R   0.729479 0.046620 0.353376 0.559044
C79   C     C_R   0.772983 0.542810 0.644136 0.568219
C80   C     C_R   0.227694 0.543432 0.355552 0.564599
C81   C     C_R   0.437597 0.820110 0.639358 0.555584
C82   C     C_R   0.528104 0.823985 0.352270 0.543333
C83   C     C_R   0.937839 0.320058 0.639345 0.553599
C84   C     C_R   0.028226 0.323903 0.352309 0.542393
C85   C     C_R   0.258479 0.631316 0.645747 0.564353
C86   C     C_R   0.740645 0.631450 0.354577 0.559718
C87   C     C_R   0.759905 0.136748 0.643398 0.574181
C88   C     C_R   0.241352 0.130622 0.354075 0.564585
C89   C     C_3   0.446497 0.923887 0.037772 -0.127532
C90   C     C_3   0.497817 0.933361 0.974164 -0.107813
C91   C     C_3   0.946499 0.423891 0.037771 -0.127707
C92   C     C_3   0.997820 0.433360 0.974163 -0.107865
C93   C     C_3   0.407670 0.815817 0.000419 -0.142480
C94   C     C_3   0.548662 0.839908 0.010836 -0.109432
C95   C     C_3   0.907670 0.315823 0.000419 -0.142584
C96   C     C_3   0.048662 0.339904 0.010836 -0.109471
C97   C     C_3   0.459621 0.825010 0.938317 0.049017
C98   C     C_3   0.497051 0.830129 0.073212 0.051370
C99   C     C_3   0.959621 0.325011 0.938318 0.049199
C100  C     C_3   0.997051 0.330130 0.073213 0.051357
Cr1   Cr    Cr6+3 0.229630 0.835900 0.747350 1.015955
Cr2   Cr    Cr6+3 0.770370 0.835900 0.252650 1.014724
Cr3   Cr    Cr6+3 0.729630 0.335900 0.747350 1.017464
Cr4   Cr    Cr6+3 0.270370 0.335900 0.252650 1.017491
Cr5   Cr    Cr6+3 0.387410 0.989850 0.750850 1.036386
Cr6   Cr    Cr6+3 0.612590 0.989850 0.249150 1.034548
Cr7   Cr    Cr6+3 0.887410 0.489850 0.750850 1.030039
Cr8   Cr    Cr6+3 0.112590 0.489850 0.249150 1.034162
Cr9   Cr    Cr6+3 0.385800 0.677120 0.749340 1.056234
Cr10  Cr    Cr6+3 0.614200 0.677120 0.250660 1.072002
Cr11  Cr    Cr6+3 0.885800 0.177120 0.749340 1.051051
Cr12  Cr    Cr6+3 0.114200 0.177120 0.250660 1.067609
H1    H     H_    0.349321 0.806101 0.994643 0.120520
H2    H     H_    0.607060 0.849605 0.016217 0.125477
H3    H     H_    0.849321 0.306111 0.994643 0.120163
H4    H     H_    0.107061 0.349597 0.016217 0.125164
H5    H     H_    0.144429 0.677469 0.564193 0.155078
H6    H     H_    0.862353 0.623679 0.426755 0.148412
H7    H     H_    0.676317 0.253124 0.550046 0.157128
H8    H     H_    0.362140 0.140342 0.428926 0.152893
H9    H     H_    0.143466 0.675574 0.438931 0.174445
H10   H     H_    0.870890 0.620795 0.553215 0.153192
H11   H     H_    0.674204 0.231846 0.424730 0.186164
H12   H     H_    0.367578 0.139219 0.555147 0.163516
H13   H     H_    0.332894 0.449671 0.439048 0.169414
H14   H     H_    0.655025 0.496336 0.568519 0.170909
H15   H     H_    0.825750 0.933961 0.439262 0.174417
H16   H     H_    0.160167 0.974186 0.564523 0.173203
H17   H     H_    0.420540 0.002125 0.065091 0.122425
H18   H     H_    0.514032 0.019742 0.947254 0.119740
H19   H     H_    0.920544 0.502131 0.065090 0.122033
H20   H     H_    0.014037 0.519739 0.947252 0.119307
H21   H     H_    0.536828 0.653212 0.948142 0.134151
H22   H     H_    0.443363 0.636110 0.064525 0.118199
H23   H     H_    0.036824 0.153207 0.948143 0.133785
H24   H     H_    0.943359 0.136115 0.064526 0.117858
H25   H     H_    0.358565 0.522892 0.939424 0.130587
H26   H     H_    0.663760 0.471599 0.068449 0.129763
H27   H     H_    0.858565 0.022890 0.939425 0.130250
H28   H     H_    0.163766 0.971587 0.068451 0.130307
H29   H     H_    0.345639 0.494289 0.068275 0.113774
H30   H     H_    0.672943 0.438726 0.939753 0.136276
H31   H     H_    0.845639 0.994287 0.068275 0.113598
H32   H     H_    0.172950 0.938714 0.939756 0.136260
H33   H     H_    0.127621 0.617767 0.049650 0.138410
H34   H     H_    0.829669 0.727233 0.928266 0.137928
H35   H     H_    0.627624 0.117783 0.049652 0.138554
H36   H     H_    0.329665 0.227238 0.928265 0.138159
H37   H     H_    0.138679 0.637385 0.923254 0.131020
H38   H     H_    0.823577 0.754611 0.054567 0.138845
H39   H     H_    0.638681 0.137400 0.923258 0.131485
H40   H     H_    0.323572 0.254617 0.054566 0.138827
H41   H     H_    0.419126 0.643374 0.542347 0.165169
H42   H     H_    0.451674 0.646821 0.417392 0.148244
H43   H     H_    0.920284 0.142384 0.542736 0.161361
H44   H     H_    0.953240 0.145563 0.418011 0.153768
H45   H     H_    0.521929 0.022800 0.440098 0.141773
H46   H     H_    0.486805 0.019918 0.564619 0.135703
H47   H     H_    0.023132 0.522009 0.440437 0.132422
H48   H     H_    0.988931 0.518688 0.565129 0.130014
O1    O     O_R   0.214270 0.709000 0.827470 -0.523644
O2    O     O_R   0.785730 0.709000 0.172530 -0.531994
O3    O     O_R   0.714270 0.209000 0.827470 -0.521577
O4    O     O_R   0.285730 0.209000 0.172530 -0.531820
O5    O     O_R   0.445950 0.919440 0.676520 -0.499619
O6    O     O_R   0.554050 0.919440 0.323480 -0.507020
O7    O     O_R   0.945950 0.419440 0.676520 -0.501869
O8    O     O_R   0.054050 0.419440 0.323480 -0.510024
O9    O     O_R   0.456730 0.717630 0.669840 -0.485813
O10   O     O_R   0.543270 0.717630 0.330160 -0.500050
O11   O     O_R   0.956730 0.217630 0.669840 -0.489818
O12   O     O_R   0.043270 0.217630 0.330160 -0.505276
O13   O     O_R   0.320620 0.625640 0.672920 -0.488234
O14   O     O_R   0.679380 0.625640 0.327080 -0.452703
O15   O     O_R   0.820620 0.125640 0.672920 -0.490506
O16   O     O_R   0.179380 0.125640 0.327080 -0.457492
O17   O     O_3   0.334280 0.834290 0.749180 -0.301289
O18   O     O_3   0.665720 0.834290 0.250820 -0.256789
O19   O     O_3   0.834280 0.334290 0.749180 -0.301773
O20   O     O_3   0.165720 0.334290 0.250820 -0.257698
O21   O     O_R   0.236160 0.958490 0.823130 -0.504969
O22   O     O_R   0.763840 0.958490 0.176870 -0.509288
O23   O     O_R   0.736160 0.458490 0.823130 -0.504445
O24   O     O_R   0.263840 0.458490 0.176870 -0.508408
O25   O     O_R   0.332080 0.075470 0.831280 -0.520503
O26   O     O_R   0.667920 0.075470 0.168720 -0.521928
O27   O     O_R   0.832080 0.575470 0.831280 -0.520857
O28   O     O_R   0.167920 0.575470 0.168720 -0.519133
O29   O     O_R   0.446300 0.918110 0.826620 -0.492827
O30   O     O_R   0.553700 0.918110 0.173380 -0.509396
O31   O     O_R   0.946300 0.418110 0.826620 -0.493286
O32   O     O_R   0.053700 0.418110 0.173380 -0.509506
O33   O     O_R   0.457110 0.716200 0.831760 -0.512781
O34   O     O_R   0.542890 0.716200 0.168240 -0.520826
O35   O     O_R   0.957110 0.216200 0.831760 -0.513512
O36   O     O_R   0.042890 0.216200 0.168240 -0.521435
O37   O     O_R   0.320980 0.624310 0.823030 -0.514684
O38   O     O_R   0.679020 0.624310 0.176970 -0.497470
O39   O     O_R   0.820980 0.124310 0.823030 -0.514333
O40   O     O_R   0.179020 0.124310 0.176970 -0.496520
O41   O     O_R   0.213890 0.710430 0.665540 -0.529818
O42   O     O_R   0.786110 0.710430 0.334460 -0.530271
O43   O     O_R   0.713890 0.210430 0.665540 -0.527688
O44   O     O_R   0.286110 0.210430 0.334460 -0.530409
O45   O     O_R   0.235810 0.959820 0.673020 -0.508108
O46   O     O_R   0.764190 0.959820 0.326980 -0.510757
O47   O     O_R   0.735810 0.459820 0.673020 -0.512801
O48   O     O_R   0.264190 0.459820 0.326980 -0.509149
O49   O     O_R   0.331700 0.076900 0.669350 -0.505143
O50   O     O_R   0.668300 0.076900 0.330650 -0.503054
O51   O     O_R   0.831700 0.576900 0.669350 -0.507001
O52   O     O_R   0.168300 0.576900 0.330650 -0.500938
C101  C     C_2   0.348130 0.424808 0.580202 0.566301
O53   O     O_2   0.335484 0.385483 0.639891 -0.496943
O54   O     O_R   0.411218 0.391164 0.547021 -0.733882
H49   H     H_    0.442563 0.336589 0.578335 0.339084
C102  C     C_2   0.626383 0.477248 0.430667 0.569112
O55   O     O_2   0.626831 0.425779 0.372835 -0.525506
O56   O     O_R   0.563247 0.484489 0.468632 -0.700317
H50   H     H_    0.521905 0.445422 0.442285 0.347822
C103  C     C_2   0.838047 0.920720 0.579819 0.571015
O57   O     O_2   0.817554 0.882217 0.637306 -0.496792
O58   O     O_R   0.901802 0.877107 0.552085 -0.723111
H51   H     H_    0.927246 0.817467 0.585577 0.335083
C104  C     C_2   0.138061 0.950656 0.425019 0.572953
O59   O     O_2   0.145575 0.899719 0.367588 -0.519706
O60   O     O_R   0.072734 0.945420 0.459195 -0.704886
H52   H     H_    0.035718 0.898870 0.430584 0.339020

loop_
_geom_bond_atom_site_label_1
_geom_bond_atom_site_label_2
_ccdc_geom_bond_type
C58   C62   A    
C82   O10   A    
C48   O36   A    
C55   C59   A    
Cr10  O38   S    
C34   C37   A    
C41   C42   A    
C14   C18   A    
Cr9   O37   S    
O58   H51   S    
C40   C83   S    
C81   O5    A    
C43   C44   A    
C14   H30   S    
C5    C94   S    
C94   H2    S    
C47   C99   S    
C7    C8    S    
Cr4   O20   S    
C101  O53   D    
C46   C98   S    
C79   O51   A    
C7    C96   S    
C50   C54   A    
C7    C99   S    
C51   H7    S    
Cr11  O15   S    
C64   C68   A    
C29   C73   S    
C75   O3    A    
C92   H20   S    
C35   H43   S    
C39   C84   S    
C38   C42   A    
C66   C102  S    
C43   H47   S    
C71   C87   S    
C5    C6    S    
C30   C74   S    
C33   H41   S    
C79   O47   A    
Cr3   O19   S    
C8    H24   S    
C94   C98   S    
C95   C99   S    
C2    O26   A    
Cr6   O50   S    
Cr7   O27   S    
C92   C96   S    
Cr5   O49   S    
Cr8   O20   S    
C3    C18   S    
C25   H37   S    
C2    O22   A    
Cr5   O25   S    
C67   C103  S    
C9    C13   A    
Cr12  O36   S    
C11   H27   S    
C75   O39   A    
Cr11  O39   S    
C9    H25   S    
C8    C100  S    
C49   H5    S    
C22   H34   S    
C95   H3    S    
Cr11  O35   S    
C64   H16   S    
C83   O11   A    
Cr10  O34   S    
C85   O13   A    
C12   H28   S    
Cr9   O33   S    
C23   C27   A    
C91   C100  S    
C78   O50   A    
C90   C97   S    
C67   C71   A    
C56   H12   S    
C85   O41   A    
C80   O52   A    
Cr7   O19   S    
Cr2   O42   S    
Cr10  O14   S    
Cr8   O8    S    
C11   C31   A    
C49   C69   A    
C12   C32   A    
Cr11  O19   S    
C47   O35   A    
C57   C80   S    
C42   H46   S    
C8    C95   S    
C11   C15   A    
C46   O30   A    
Cr3   O47   S    
C59   C78   S    
C87   O43   A    
Cr8   O52   S    
Cr9   O9    S    
C60   C64   A    
C90   C94   S    
C55   H11   S    
C34   H42   S    
C45   O33   A    
C48   C100  S    
Cr7   O7    S    
C60   C77   S    
C62   C66   A    
C27   C31   A    
Cr2   O22   S    
C12   C16   A    
C28   C32   A    
Cr6   O26   S    
C24   H36   S    
C91   C92   S    
C62   H14   S    
C53   C57   A    
C68   C104  S    
C39   C43   A    
C51   C55   A    
C102  O55   D    
C86   O42   A    
C23   H35   S    
C1    O21   A    
C89   C93   S    
C88   O44   A    
C74   O38   A    
C56   C60   A    
C46   O34   A    
C73   O37   A    
C68   C72   A    
C86   O14   A    
C35   C36   A    
C21   H33   S    
C15   C19   A    
O54   H49   S    
C78   O46   A    
C63   C67   A    
C65   C101  S    
C103  O57   D    
C52   C72   A    
C77   O45   A    
C10   C30   A    
C93   C97   S    
C73   O1    A    
O60   H52   S    
C26   H38   S    
C16   C20   A    
C6    C93   S    
C54   C58   A    
C33   C34   A    
C5    H21   S    
C93   H1    S    
C4    O24   A    
C57   C61   A    
Cr12  O12   S    
Cr2   O46   S    
Cr1   O45   S    
C58   C79   S    
C54   H10   S    
C15   H31   S    
C4    C17   S    
C52   H8    S    
C6    C98   S    
C80   O48   A    
C5    C97   S    
C26   C30   A    
C81   O9    A    
C38   C81   S    
C76   O40   A    
C44   H48   S    
Cr3   O23   S    
C37   C82   S    
C76   O4    A    
Cr6   O30   S    
Cr12  O16   S    
C70   C86   S    
Cr4   O44   S    
C31   C75   S    
O56   H50   S    
C69   C85   S    
Cr2   O2    S    
C36   H44   S    
C74   O2    A    
C82   O6    A    
C45   O29   A    
C65   C69   A    
C21   C25   A    
C1    C20   S    
C27   H39   S    
C16   H32   S    
C2    C19   S    
C50   H6    S    
C59   C63   A    
C13   H29   S    
Cr8   O28   S    
C36   C39   A    
Cr8   O32   S    
C24   C28   A    
Cr5   O17   S    
C84   O12   A    
C3    O27   A    
C32   C76   S    
C61   H13   S    
C51   C71   A    
C47   O31   A    
C28   H40   S    
C77   O49   A    
C102  O56   S    
Cr12  O40   S    
C87   O15   A    
Cr3   O3    S    
C33   C38   A    
C88   O16   A    
Cr12  O20   S    
C89   C98   S    
C72   C88   S    
C1    O25   A    
C4    O28   A    
C18   C22   A    
C35   C40   A    
C50   C70   A    
C101  O54   S    
C6    H22   S    
Cr1   O41   S    
Cr7   O51   S    
C9    C29   A    
C25   C29   A    
Cr4   O4    S    
C66   C70   A    
C83   O7    A    
Cr6   O6    S    
Cr2   O18   S    
C96   C100  S    
Cr1   O1    S    
C104  O60   S    
Cr5   O29   S    
Cr5   O5    S    
C41   H45   S    
Cr9   O13   S    
Cr4   O48   S    
C37   C41   A    
C20   C24   A    
Cr1   O21   S    
Cr3   O43   S    
C48   O32   A    
C49   C53   A    
Cr1   O17   S    
C7    H23   S    
C53   H9    S    
C13   C17   A    
C90   H18   S    
C61   C65   A    
C19   C23   A    
C40   C44   A    
C91   H19   S    
C84   O8    A    
Cr10  O10   S    
C91   C95   S    
C103  O58   S    
C22   C26   A    
Cr7   O31   S    
Cr9   O17   S    
Cr10  O18   S    
C96   H4    S    
Cr4   O24   S    
C45   C97   S    
C10   H26   S    
C89   C90   S    
C89   H17   S    
C3    O23   A    
Cr6   O18   S    
C63   H15   S    
C52   C56   A    
C92   C99   S    
C10   C14   A    
C104  O59   D    
Cr11  O11   S    
C17   C21   A    
