data_mof_unit_19854.cif
_audit_creation_date              2012-12-10T20:27:58-0500
_audit_creation_method            fapswitch 2.2
_symmetry_space_group_name_H-M    P1
_symmetry_Int_Tables_number       1
_space_group_crystal_system       triclinic
_cell_length_a                    12.835301
_cell_length_b                    10.679831
_cell_length_c                    9.861388
_cell_angle_alpha                 90.11903
_cell_angle_beta                  97.375248
_cell_angle_gamma                 90.148688
_cell_volume                      1340.59547623

loop_
_atom_site_label
_atom_site_type_symbol
_atom_type_description
_atom_site_fract_x
_atom_site_fract_y
_atom_site_fract_z
_atom_type_partial_charge
C1    C     C_R   0.502484 0.260069 0.500409 0.902514
C2    C     C_R   0.547909 0.935149 0.392664 -0.186095
C3    C     C_R   0.515865 0.871687 0.504696 -0.168990
C4    C     C_R   0.298298 0.499616 0.472945 0.871860
C5    C     C_R   0.501553 0.936644 0.623420 0.124467
C6    C     C_3   0.412550 0.930565 0.707607 0.235049
C7    C     C_3   0.412840 0.072628 0.707036 -0.523042
C8    C     C_R   0.441192 0.414477 0.061300 0.231181
C9    C     C_R   0.565849 0.575828 0.083181 -0.049066
C10   C     C_R   0.566125 0.575488 0.939192 -0.041137
C11   C     C_R   0.440983 0.414699 0.918738 0.211432
C12   C     C_R   0.027656 0.524909 0.553283 0.130564
C13   C     C_3   0.324501 0.400185 0.894005 -0.481981
C14   C     C_3   0.324879 0.399427 0.048015 -0.518432
C15   C     C_R   0.502299 0.740019 0.500601 0.878845
C16   C     C_R   0.701688 0.495789 0.526976 0.938238
C17   C     C_R   0.813980 0.492445 0.544251 -0.128890
C18   C     C_R   0.186520 0.491285 0.456162 -0.037666
C19   C     C_R   0.027411 0.396958 0.347445 -0.144034
C20   C     C_R   0.133871 0.419220 0.350530 -0.233224
C21   C     C_R   0.133781 0.545521 0.555653 -0.254073
C22   C     C_R   0.973301 0.448403 0.449374 0.097537
C23   C     C_R   0.866175 0.427658 0.448935 0.296281
C24   C     C_R   0.868635 0.564401 0.648767 -0.250453
C25   C     C_R   0.975769 0.579452 0.654238 -0.200515
C26   C     C_R   0.501435 0.064360 0.622803 0.085537
C27   C     C_R   0.516197 0.128622 0.504255 -0.111581
C28   C     C_R   0.548128 0.064697 0.392475 -0.160833
Cl1   Cl    Cl    0.797999 0.318303 0.333220 -0.642567
Cl2   Cl    Cl    0.452513 0.866873 0.873205 -0.631687
H1    H     H_    0.340646 0.113478 0.649729 0.167148
H2    H     H_    0.988779 0.339656 0.265331 0.201272
H3    H     H_    0.017384 0.637096 0.734316 0.157755
H4    H     H_    0.175740 0.376147 0.274037 0.156200
H5    H     H_    0.176000 0.602389 0.636215 0.149910
H6    H     H_    0.567163 0.113872 0.302823 0.201559
H7    H     H_    0.566801 0.885556 0.303054 0.190254
H8    H     H_    0.340020 0.887820 0.652544 0.104850
H9    H     H_    0.437840 0.116234 0.808521 0.242432
H10   H     H_    0.617225 0.639169 0.146253 0.150410
H11   H     H_    0.617816 0.638416 0.893545 0.162626
H12   H     H_    0.284540 0.483503 0.844201 0.227285
H13   H     H_    0.300436 0.309062 0.844865 0.203732
H14   H     H_    0.285042 0.482075 0.086630 0.226309
H15   H     H_    0.301532 0.307634 0.087877 0.203885
H16   H     H_    0.827797 0.613084 0.722736 0.176494
N1    N     N_R   0.499290 0.499140 0.142710 -0.112291
N2    N     N_R   0.499290 0.499180 0.857070 -0.111970
O1    O     O_R   0.500010 0.316790 0.614690 -0.614867
O2    O     O_R   0.500000 0.316760 0.385350 -0.611400
O3    O     O_R   0.346360 0.499990 0.595720 -0.623606
O4    O     O_R   0.346350 0.499960 0.366370 -0.625245
O5    O     O_R   0.500000 0.683240 0.614650 -0.592175
O6    O     O_R   0.499990 0.683210 0.385310 -0.621796
O7    O     O_R   0.653650 0.500040 0.633630 -0.633575
O8    O     O_R   0.653640 0.500010 0.404280 -0.577652
Zn1   Zn    Zn3+2 0.500010 0.500020 0.653130 0.976514
Zn2   Zn    Zn3+2 0.499990 0.499980 0.346870 0.986704

loop_
_geom_bond_atom_site_label_1
_geom_bond_atom_site_label_2
_ccdc_geom_bond_type
C8    C14   S    
C6    H8    S    
C6    C7    S    
C21   H5    S    
C1    O2    A    
C12   C22   A    
C18   C21   A    
C9    C10   A    
C19   C20   A    
C12   C25   A    
C4    C18   S    
C16   O8    A    
C2    C3    A    
C26   C27   A    
C16   O7    A    
C24   H16   S    
N2    Zn1   S    
C13   C14   S    
C10   H11   S    
C11   C13   S    
C2    H7    S    
C11   N2    A    
C17   C23   A    
C7    C26   S    
O4    Zn2   S    
C4    O4    A    
C8    C11   A    
O3    Zn1   S    
C19   H2    S    
C15   O5    A    
C13   H12   S    
C6    Cl2   S    
O8    Zn2   S    
C9    N1    A    
C14   H15   S    
C18   C20   A    
O7    Zn1   S    
C10   N2    A    
C5    C6    S    
C8    N1    A    
C17   C24   A    
C7    H1    S    
C4    O3    A    
C20   H4    S    
O2    Zn2   S    
C15   O6    A    
C23   Cl1   S    
C13   H13   S    
C19   C22   A    
O1    Zn1   S    
C24   C25   A    
C28   H6    S    
C14   H14   S    
O6    Zn2   S    
C27   C28   A    
C1    C27   S    
C7    H9    S    
C22   C23   A    
C3    C15   S    
C2    C28   A    
C3    C5    A    
C1    O1    A    
C12   C21   A    
C9    H10   S    
C5    C26   A    
C25   H3    S    
C16   C17   S    
N1    Zn2   S    
O5    Zn1   S    
