data_mof_unit_47524.cif
_audit_creation_date              2013-03-05T16:35:15-0500
_audit_creation_method            fapswitch 2.2
_symmetry_space_group_name_H-M    P1
_symmetry_Int_Tables_number       1
_space_group_crystal_system       triclinic
_cell_length_a                    10.852397
_cell_length_b                    9.04194
_cell_length_c                    8.020089
_cell_angle_alpha                 90.07334
_cell_angle_beta                  88.614743
_cell_angle_gamma                 90.06869
_cell_volume                      786.753864983

loop_
_atom_site_label
_atom_site_type_symbol
_atom_site_description
_atom_site_fract_x
_atom_site_fract_y
_atom_site_fract_z
_atom_type_partial_charge
O1    O     O_R   0.500000 0.288400 0.642760 -0.595220
O2    O     O_R   0.500000 0.288400 0.357240 -0.575877
C1    C     C_R   0.499753 0.221052 0.499967 0.799499
O3    O     O_R   0.317700 0.499990 0.642790 -0.550663
O4    O     O_R   0.317700 0.499990 0.357210 -0.569347
O5    O     O_R   0.682300 0.499990 0.642790 -0.531938
O6    O     O_R   0.682300 0.499990 0.357210 -0.564963
N1    N     N_1   0.500000 0.499970 0.076820 -0.059852
N2    N     N_1   0.500000 0.499970 0.923180 -0.054484
C2    C     C_R   0.260360 0.508193 0.500356 0.862865
C3    C     C_R   0.739416 0.501323 0.498192 0.880268
Cu1   Cu    Cu3+1 0.500000 0.500010 0.669080 1.027679
Cu2   Cu    Cu3+1 0.500000 0.500010 0.330920 1.023290
O7    O     O_R   0.500000 0.711620 0.642810 -0.558996
O8    O     O_R   0.500000 0.711620 0.357190 -0.570150
C4    C     C_R   0.499371 0.778949 0.500124 0.877894
C5    C     C_1   0.499407 0.065697 0.500050 -0.138393
C6    C     C_3   0.070276 0.396188 0.625831 0.253987
C7    C     C_3   0.071336 0.455137 0.325956 0.217353
C8    C     C_3   0.928448 0.381131 0.607355 0.215253
C9    C     C_3   0.929634 0.470324 0.318918 0.182327
H1    H     H_    0.107404 0.287116 0.581423 0.038327
H2    H     H_    0.081846 0.332989 0.332674 0.093701
H3    H     H_    0.915841 0.276720 0.533748 0.037930
H4    H     H_    0.888459 0.359281 0.289970 0.048242
C10   C     C_1   0.499228 0.934318 0.500271 -0.088559
C11   C     C_3   0.067684 0.677580 0.540018 0.215726
C12   C     C_3   0.920622 0.673244 0.542413 0.263115
C13   C     C_3   0.122291 0.515331 0.498176 -0.258104
C14   C     C_3   0.876714 0.510025 0.495549 -0.215526
O9    O     O_3   0.105647 0.422582 0.792654 -0.538218
C15   C     C_3   0.165580 0.296417 0.859510 -0.120311
H5    H     H_    0.230245 0.240376 0.769989 0.133249
H6    H     H_    0.096333 0.216509 0.909339 0.165170
H7    H     H_    0.226583 0.330195 0.960661 0.213190
O10   O     O_3   0.137373 0.471860 0.173121 -0.587961
C16   C     C_3   0.166058 0.614852 0.119425 -0.055494
H8    H     H_    0.241804 0.667111 0.185096 0.179782
H9    H     H_    0.085208 0.688241 0.110963 0.224345
H10   H     H_    0.210755 0.598872 0.996969 0.212517
O11   O     O_3   0.865135 0.366603 0.761601 -0.575147
C17   C     C_3   0.821898 0.220524 0.789125 -0.252865
H11   H     H_    0.899480 0.140239 0.787358 0.191194
H12   H     H_    0.752865 0.189065 0.695083 0.177941
H13   H     H_    0.775472 0.214937 0.913689 0.179098
O12   O     O_3   0.896215 0.575004 0.200047 -0.554747
C18   C     C_3   0.884610 0.507152 0.044996 0.019031
H14   H     H_    0.921795 0.392514 0.036871 0.173405
H15   H     H_    0.941869 0.568930 0.954552 0.241806
H16   H     H_    0.786156 0.508710 0.010645 0.201864
I1    I     I_    0.144512 0.779051 0.754777 -0.358556
I2    I     I_    0.148051 0.863369 0.402959 -0.390609
I3    I     I_    0.827067 0.768410 0.760930 -0.305100
I4    I     I_    0.834000 0.840707 0.383765 -0.278963

loop_
_geom_bond_atom_site_label_1
_geom_bond_atom_site_label_2
_geom_bond_distance
_ccdc_geom_bond_type
C7    H2    1.111973 S    
C12   I3    2.180548 S    
N1    Cu2   2.037903 S    
O2    C1    1.297215 A    
C11   C13   1.614688 S    
C9    C14   1.557336 S    
O4    Cu2   1.984522 S    
C18   H14   1.114041 S    
C18   H16   1.109954 S    
C15   H5    1.113683 S    
C12   C14   1.597473 S    
C8    O11   1.406700 S    
O4    C2    1.294638 A    
C18   H15   1.096695 S    
C6    C13   1.581385 S    
C8    C14   1.583078 S    
C11   I2    2.178502 S    
O6    C3    1.302555 A    
C2    C13   1.500371 S    
C16   H8    1.093509 S    
O1    Cu1   1.924706 S    
C17   H12   1.112332 S    
C5    C10   1.187927 T    
O10   C16   1.395706 S    
C7    C9    1.546492 S    
C11   I1    2.137090 S    
C1    C5    1.404706 S    
C16   H10   1.094288 S    
C6    C8    1.555647 S    
C7    O10   1.413030 S    
Cu2   O8    1.924661 S    
O5    Cu1   1.984521 S    
N2    Cu1   2.037904 S    
O7    C4    1.297071 A    
O3    Cu1   1.994659 S    
C17   H11   1.112164 S    
O3    C2    1.316187 A    
O8    C4    1.297156 A    
C7    C13   1.595020 S    
C15   H7    1.102056 S    
C8    H3    1.122791 S    
O6    Cu2   1.994658 S    
Cu1   Cu2   2.712074 S    
C16   H9    1.104175 S    
C9    O12   1.398626 S    
O11   C17   1.416962 S    
O5    C3    1.301724 A    
O2    Cu2   1.925243 S    
C12   I4    2.204897 S    
O12   C18   1.394293 S    
C9    H4    1.124733 S    
C6    O9    1.420619 S    
O1    C1    1.296423 A    
C6    H1    1.120241 S    
C17   H13   1.109131 S    
O9    C15   1.425523 S    
C3    C14   1.491632 S    
Cu1   O7    1.925197 S    
N1    N2    1.232207 T    
C11   C12   1.596066 S    
C4    C10   1.404832 S    
C15   H6    1.109689 S    
