data_mof_unit_36940.cif
_audit_creation_date              2013-03-05T16:15:15-0500
_audit_creation_method            fapswitch 2.2
_symmetry_space_group_name_H-M    P1
_symmetry_Int_Tables_number       1
_space_group_crystal_system       triclinic
_cell_length_a                    27.769877
_cell_length_b                    10.645462
_cell_length_c                    9.491903
_cell_angle_alpha                 89.319969
_cell_angle_beta                  91.149408
_cell_angle_gamma                 90.270112
_cell_volume                      2805.23612798

loop_
_atom_site_label
_atom_site_type_symbol
_atom_site_description
_atom_site_fract_x
_atom_site_fract_y
_atom_site_fract_z
_atom_type_partial_charge
O1    O     O_R   0.500020 0.316850 0.620870 -0.507396
O2    O     O_R   0.499980 0.683150 0.379130 -0.507434
O3    O     O_R   0.500000 0.316860 0.379090 -0.597772
O4    O     O_R   0.500000 0.683140 0.620910 -0.597677
C1    C     C_R   0.500623 0.260235 0.500567 0.929019
C2    C     C_R   0.499375 0.739763 0.499433 0.929000
O5    O     O_R   0.430270 0.500020 0.620880 -0.581795
O6    O     O_R   0.569730 0.499980 0.379120 -0.580957
O7    O     O_R   0.430250 0.500030 0.379090 -0.554582
O8    O     O_R   0.569750 0.499970 0.620910 -0.554879
C3    C     C_R   0.407602 0.500131 0.498893 0.842030
C4    C     C_R   0.592365 0.499706 0.501201 0.841269
Cu1   Cu    Cu3+1 0.500010 0.499990 0.643150 1.060031
Cu2   Cu    Cu3+1 0.499990 0.500010 0.356850 1.060526
C5    C     C_R   0.177948 0.386726 0.520894 0.572078
C6    C     C_R   0.822420 0.604842 0.528803 0.572644
O9    O     O_2   0.203095 0.279890 0.543442 -0.476817
O10   O     O_2   0.797972 0.712999 0.544013 -0.466807
N1    N     N_R   0.201726 0.496657 0.493298 -0.478685
N2    N     N_R   0.797852 0.494661 0.511533 -0.482200
C7    C     C_R   0.177350 0.606217 0.467415 0.583138
C8    C     C_R   0.821154 0.382934 0.496512 0.581390
C9    C     C_R   0.278263 0.524807 0.370646 -0.072076
C10   C     C_R   0.721035 0.461425 0.629384 -0.080691
C11   C     C_R   0.328485 0.526111 0.371912 -0.150491
C12   C     C_R   0.670836 0.462821 0.627122 -0.146878
C13   C     C_R   0.329483 0.473325 0.621223 -0.137348
C14   C     C_R   0.670910 0.532878 0.382890 -0.135413
C15   C     C_R   0.279285 0.472299 0.619803 -0.075197
C16   C     C_R   0.721141 0.532099 0.385684 -0.075278
C17   C     C_R   0.253451 0.497664 0.494482 0.318285
C18   C     C_R   0.746269 0.496282 0.508863 0.325133
C19   C     C_R   0.101519 0.495416 0.498707 -0.087461
C20   C     C_R   0.898019 0.492345 0.516701 -0.087205
C21   C     C_R   0.127567 0.384410 0.526238 -0.039153
C22   C     C_R   0.872863 0.606051 0.530342 -0.043015
C23   C     C_R   0.103102 0.274280 0.563385 -0.137245
C24   C     C_R   0.898383 0.718334 0.548685 -0.141723
C25   C     C_R   0.126434 0.607476 0.463812 -0.129415
C26   C     C_R   0.872069 0.378108 0.502208 -0.132165
C27   C     C_R   0.354569 0.499771 0.497061 -0.024782
C28   C     C_R   0.645332 0.498701 0.503886 -0.028247
H1    H     H_    0.348589 0.452795 0.719340 0.183502
H2    H     H_    0.652149 0.561039 0.286571 0.187758
H3    H     H_    0.260389 0.452021 0.716199 0.156644
H4    H     H_    0.740585 0.558917 0.292186 0.154381
H5    H     H_    0.122926 0.190090 0.592448 0.217818
H6    H     H_    0.879478 0.805210 0.567525 0.229052
C29   C     C_R   0.974539 0.378509 0.514069 0.011368
C30   C     C_R   0.024857 0.608296 0.492718 0.009364
C31   C     C_R   0.974574 0.609490 0.517945 0.078956
C32   C     C_R   0.025611 0.379255 0.529715 0.080151
C33   C     C_R   0.949135 0.493420 0.516733 0.018718
C34   C     C_R   0.050562 0.494231 0.506888 0.018075
C35   C     C_R   0.948203 0.267220 0.490107 -0.213243
C36   C     C_R   0.049710 0.715781 0.445137 -0.211763
C37   C     C_R   0.897982 0.264861 0.488122 0.348820
C38   C     C_R   0.099565 0.716560 0.429071 0.342620
O11   O     O_2   0.794848 0.278118 0.473676 -0.429991
O12   O     O_2   0.202530 0.713786 0.450581 -0.436601
C39   C     C_R   0.052895 0.270981 0.568867 0.125436
C40   C     C_R   0.948613 0.721212 0.545407 0.123004
H7    H     H_    0.652063 0.434173 0.721052 0.203351
H8    H     H_    0.346768 0.549065 0.275427 0.200723
H9    H     H_    0.740391 0.433210 0.724658 0.156300
H10   H     H_    0.258564 0.544925 0.273437 0.162662
H11   H     H_    0.966047 0.180134 0.467831 0.196144
H12   H     H_    0.030403 0.798294 0.409259 0.199322
C41   C     C_3   0.534166 0.037856 0.589352 0.276489
C42   C     C_3   0.465827 0.962134 0.410650 0.275237
C43   C     C_3   0.542098 0.957931 0.459470 0.256892
C44   C     C_3   0.457895 0.042063 0.540530 0.256567
C45   C     C_3   0.498910 0.875736 0.499148 -0.287379
C46   C     C_3   0.501084 0.124259 0.500853 -0.287122
C47   C     C_3   0.490718 0.955642 0.632489 -0.272998
C48   C     C_3   0.509275 0.044351 0.367510 -0.272819
H13   H     H_    0.483100 0.920015 0.740232 0.242703
H14   H     H_    0.516892 0.079976 0.259766 0.242750
C49   C     C_3   0.514648 0.605287 0.048213 0.385578
C50   C     C_3   0.485371 0.394708 0.951766 0.384908
C51   C     C_3   0.471755 0.588114 0.945369 -0.164696
C52   C     C_3   0.528254 0.411877 0.054623 -0.164552
H15   H     H_    0.448208 0.660936 0.895906 0.182436
H16   H     H_    0.551790 0.339031 0.104083 0.182967
N3    N     N_3   0.500040 0.499970 0.858290 -0.232903
N4    N     N_3   0.499960 0.500030 0.141710 -0.232735
C53   C     C_3   0.542266 0.519260 0.953777 0.139361
C54   C     C_3   0.457752 0.480715 0.046176 0.141098
N5    N     N_R   0.572839 0.075911 0.686113 0.185537
O13   O     O_R   0.595052 0.991587 0.763004 -0.252077
O14   O     O_R   0.586624 0.192610 0.692621 -0.340544
N6    N     N_R   0.427152 0.924051 0.313906 0.185557
O15   O     O_R   0.404955 0.008349 0.236938 -0.252159
O16   O     O_R   0.413323 0.807374 0.307576 -0.336164
N7    N     N_R   0.533266 0.722890 0.104012 0.146169
O17   O     O_R   0.510827 0.827634 0.076996 -0.298922
O18   O     O_R   0.574354 0.724626 0.171998 -0.316142
N8    N     N_R   0.466730 0.277138 0.895937 0.145963
O19   O     O_R   0.489141 0.172355 0.922957 -0.299035
O20   O     O_R   0.425653 0.275483 0.827879 -0.313841
N9    N     N_3   0.590126 0.544143 0.900254 -0.521378
H17   H     H_    0.613975 0.546446 0.986753 0.227421
H18   H     H_    0.589805 0.634517 0.855988 0.266115
N10   N     N_3   0.409911 0.455539 0.099533 -0.523936
H19   H     H_    0.386090 0.453118 0.012976 0.226262
H20   H     H_    0.410294 0.365168 0.143809 0.265024
N11   N     N_R   0.874475 0.145226 0.475442 0.159602
O21   O     O_R   0.884377 0.073075 0.370301 -0.342097
O22   O     O_R   0.852739 0.097093 0.583748 -0.283827
N12   N     N_R   0.121451 0.827043 0.369828 0.171366
O23   O     O_R   0.109940 0.937377 0.415831 -0.349197
O24   O     O_R   0.144684 0.819274 0.252564 -0.281520
N13   N     N_3   0.030721 0.161538 0.629206 -0.592748
H21   H     H_    0.044533 0.148910 0.731672 0.248453
H22   H     H_    0.040533 0.083557 0.570415 0.257660
N14   N     N_3   0.972727 0.835589 0.583841 -0.589356
H23   H     H_    0.962562 0.858975 0.685690 0.251802
H24   H     H_    0.960722 0.907085 0.515410 0.250718
N15   N     N_R   0.588921 0.911153 0.418579 0.183287
O25   O     O_R   0.608988 0.954220 0.305109 -0.248688
O26   O     O_R   0.612009 0.831399 0.499445 -0.315866
N16   N     N_R   0.411072 0.088844 0.581421 0.183618
O27   O     O_R   0.391012 0.045804 0.694913 -0.249320
O28   O     O_R   0.387983 0.168589 0.500549 -0.315848

loop_
_geom_bond_atom_site_label_1
_geom_bond_atom_site_label_2
_geom_bond_distance
_ccdc_geom_bond_type
N9    H17   1.044897 S    
C13   C15   1.393793 A    
N11   O22   1.301227 A    
N7    O17   1.300274 A    
C12   H7    1.081839 S    
N1    C17   1.436225 S    
N10   H20   1.045262 S    
O5    C3    1.306784 A    
C19   C25   1.415464 A    
C46   C48   1.554424 S    
O1    C1    1.297945 A    
C9    H10   1.082889 S    
C21   C23   1.397369 A    
C10   C12   1.393904 A    
C32   C39   1.423904 A    
C43   C48   1.547903 S    
N4    C54   1.482533 S    
C52   C53   1.535976 S    
C1    C46   1.447614 S    
N14   H23   1.045732 S    
C14   C28   1.405805 A    
O4    Cu1   1.958619 S    
C41   C43   1.526387 S    
N12   O23   1.301443 A    
C4    C28   1.470692 S    
C54   N10   1.453881 S    
C53   N9    1.454393 S    
C36   C38   1.395864 A    
N11   O21   1.301047 A    
C41   C47   1.546205 S    
C24   C40   1.396044 A    
C23   H5    1.084012 S    
C24   H6    1.084062 S    
C6    N2    1.364062 A    
C44   N16   1.456124 S    
N3    C53   1.482625 S    
N9    H18   1.045248 S    
Cu1   Cu2   2.717517 S    
C45   C47   1.554400 S    
O2    C2    1.297940 A    
C31   C40   1.423081 A    
C44   C47   1.547901 S    
C41   N5    1.458140 S    
C5    C21   1.401117 A    
N10   H19   1.044898 S    
C51   H15   1.110312 S    
C32   C34   1.420179 A    
N15   O26   1.300378 A    
Cu2   N4    2.042070 S    
C7    O12   1.348462 S    
C44   C46   1.531771 S    
C11   C27   1.404947 A    
C8    O11   1.348104 S    
C49   C51   1.536467 S    
C52   N4    1.494231 S    
C25   C38   1.415339 A    
C14   H2    1.083052 S    
C30   C36   1.407963 A    
C15   H3    1.082896 S    
C31   C33   1.420454 A    
C11   H8    1.080921 S    
C9    C17   1.400871 A    
C5    N1    1.366203 A    
O7    Cu2   1.952349 S    
C10   C18   1.398954 A    
C49   N7    1.453899 S    
C50   N3    1.481703 S    
C47   H13   1.110501 S    
C13   C27   1.405940 A    
C35   H11   1.078372 S    
C7    C25   1.413773 A    
O6    C4    1.307131 A    
C29   C32   1.423032 A    
C8    C26   1.415012 A    
C42   C45   1.534353 S    
N6    O16   1.300069 A    
C30   C31   1.421606 A    
C41   C46   1.534370 S    
C6    O10   1.350070 S    
C30   C34   1.415121 A    
O7    C3    1.310503 A    
C49   C53   1.511320 S    
O3    Cu2   1.958618 S    
O8    C4    1.309277 A    
C10   H9    1.082836 S    
C50   C52   1.536321 S    
C37   N11   1.433614 S    
N2    C8    1.366999 A    
N8    O20   1.299744 A    
C35   C37   1.394498 A    
C42   C48   1.546223 S    
C20   C26   1.417337 A    
O4    C2    1.294589 A    
N5    O14   1.300035 A    
N16   O28   1.300383 A    
C12   C28   1.405174 A    
C2    C45   1.447580 S    
C43   C45   1.531755 S    
N13   H21   1.045736 S    
N2    C18   1.432332 S    
C19   C34   1.418728 A    
C5    O9    1.350058 S    
O6    Cu2   1.943954 S    
C26   C37   1.415964 A    
C50   N8    1.453922 S    
C38   N12   1.435327 S    
C16   H4    1.082800 S    
C42   N6    1.458160 S    
C48   H14   1.110500 S    
O3    C1    1.294600 A    
O8    Cu1   1.952349 S    
C23   C39   1.396530 A    
N15   O25   1.300260 A    
N7    O18   1.299708 A    
C52   H16   1.110310 S    
C43   N15   1.456127 S    
C36   H12   1.079359 S    
C22   C24   1.397610 A    
N5    O13   1.300231 A    
C15   C17   1.400897 A    
C29   C35   1.407742 A    
C6    C22   1.400562 A    
C16   C18   1.399485 A    
C29   C33   1.415740 A    
C14   C16   1.394677 A    
N6    O15   1.300232 A    
C19   C21   1.407519 A    
N14   H24   1.046090 S    
C3    C27   1.472478 S    
C20   C22   1.409008 A    
C9    C11   1.394500 A    
O2    Cu2   1.963542 S    
N12   O24   1.301352 A    
C51   C54   1.535806 S    
C40   N14   1.434245 S    
C39   N13   1.433915 S    
C13   H1    1.083085 S    
O5    Cu1   1.943954 S    
O1    Cu1   1.963543 S    
C20   C33   1.419485 A    
C50   C54   1.511050 S    
N8    O19   1.300272 A    
Cu1   N3    2.042070 S    
C42   C44   1.526398 S    
N13   H22   1.045948 S    
N16   O27   1.300262 A    
C49   N4    1.481932 S    
C51   N3    1.494003 S    
N1    C7    1.368513 A    
