data_mof_unit_17160.cif
_audit_creation_date              2013-03-05T15:45:12-0500
_audit_creation_method            fapswitch 2.2
_symmetry_space_group_name_H-M    P1
_symmetry_Int_Tables_number       1
_space_group_crystal_system       triclinic
_cell_length_a                    11.501193
_cell_length_b                    11.508703
_cell_length_c                    19.510514
_cell_angle_alpha                 90.764529
_cell_angle_beta                  90.378366
_cell_angle_gamma                 60.244804
_cell_volume                      2241.79551622

loop_
_atom_site_label
_atom_site_type_symbol
_atom_site_description
_atom_site_fract_x
_atom_site_fract_y
_atom_site_fract_z
_atom_type_partial_charge
O1    O     O_R   0.267740 0.231990 0.575440 -0.486901
O2    O     O_R   0.527280 0.186680 0.570530 -0.493734
C1    C     C_R   0.640883 0.117629 0.599078 0.554612
O3    O     O_R   0.728090 0.003480 0.576380 -0.489664
O4    O     O_R   0.682970 0.789220 0.570490 -0.483469
C2    C     C_R   0.612907 0.745480 0.598509 0.562672
O5    O     O_R   0.499290 0.771920 0.575530 -0.496103
O6    O     O_R   0.285330 0.030900 0.569730 -0.488624
C3    C     C_R   0.240591 0.145480 0.598071 0.563710
O7    O     O_R   0.270980 0.227040 0.423900 -0.467431
O8    O     O_R   0.530280 0.182090 0.430050 -0.517754
C4    C     C_R   0.644757 0.113827 0.403200 0.567877
O9    O     O_R   0.731330 0.998530 0.424830 -0.461519
O10   O     O_R   0.685970 0.784630 0.430010 -0.469433
C5    C     C_R   0.580925 0.803966 0.395595 0.554952
O11   O     O_R   0.502530 0.766960 0.423990 -0.488185
O12   O     O_R   0.288330 0.026310 0.429250 -0.515242
C6    C     C_R   0.237721 0.143087 0.403350 0.576362
Cr1   Cr    Cr6+3 0.404720 0.198220 0.499960 1.085867
Cr2   Cr    Cr6+3 0.698290 0.897110 0.500380 1.113865
Cr3   Cr    Cr6+3 0.396970 0.904720 0.499610 1.078602
O13   O     O_3   0.499990 0.000020 0.499980 -0.315806
C7    C     C_1   0.669943 0.647077 0.860224 0.010504
C8    C     C_1   0.655277 0.683618 0.728413 -0.027185
C9    C     C_1   0.663364 0.667042 0.799735 -0.027147
C10   C     C_1   0.641980 0.703556 0.667897 0.010788
C11   C     C_1   0.126883 0.198476 0.859337 0.009146
C12   C     C_1   0.171193 0.170391 0.727615 -0.026003
C13   C     C_1   0.150133 0.182066 0.798910 -0.026813
C14   C     C_1   0.194850 0.161215 0.667239 0.013202
C15   C     C_1   0.677938 0.191110 0.860898 0.010548
C16   C     C_1   0.658780 0.167482 0.728985 -0.026718
C17   C     C_1   0.665270 0.180914 0.800346 -0.027266
C18   C     C_1   0.653596 0.149977 0.668492 0.011472
C19   C     C_R   0.502060 0.770630 0.284537 -0.157406
H1    H     H_    0.413269 0.780815 0.308622 0.164221
C20   C     C_R   0.521993 0.736557 0.216313 -0.176456
H2    H     H_    0.444829 0.725716 0.189737 0.173602
C21   C     C_R   0.645939 0.699806 0.185824 0.028627
C22   C     C_R   0.740510 0.720908 0.221397 0.373565
C23   C     C_R   0.716333 0.763304 0.289549 -0.066131
H3    H     H_    0.791478 0.775276 0.317489 0.205723
C24   C     C_R   0.600538 0.779529 0.322309 -0.045904
C25   C     C_R   0.103187 0.304161 0.312476 0.198816
C26   C     C_R   0.085992 0.321648 0.242096 -0.075232
H4    H     H_    0.039468 0.422296 0.222153 0.225700
C27   C     C_R   0.120031 0.212152 0.198046 -0.012052
C28   C     C_R   0.165435 0.084941 0.225181 -0.153186
H5    H     H_    0.184569 0.000625 0.192347 0.152304
C29   C     C_R   0.186912 0.065907 0.295193 -0.134584
H6    H     H_    0.225482 0.966891 0.315339 0.174830
C30   C     C_R   0.165100 0.172770 0.338466 0.033356
C31   C     C_R   0.790277 0.108198 0.308986 0.193818
C32   C     C_R   0.800785 0.126188 0.240013 -0.137041
H7    H     H_    0.900422 0.088950 0.219245 0.177112
C33   C     C_R   0.686122 0.193615 0.198303 -0.019994
C34   C     C_R   0.557508 0.249444 0.226748 0.177730
C35   C     C_R   0.547172 0.232625 0.296481 -0.154086
H8    H     H_    0.448086 0.269103 0.317788 0.188862
C36   C     C_R   0.662488 0.158009 0.336960 -0.028047
O14   O     O_R   0.821500 0.119550 0.952820 -0.498630
O15   O     O_R   0.037130 0.162750 0.957360 -0.495758
C37   C     C_R   0.082074 0.231080 0.928655 0.550092
O16   O     O_R   0.056440 0.344950 0.951330 -0.493941
O17   O     O_R   0.797900 0.560570 0.957460 -0.495932
C38   C     C_R   0.683600 0.605080 0.929580 0.540138
O18   O     O_R   0.596140 0.579600 0.952720 -0.505183
O19   O     O_R   0.639070 0.321380 0.958660 -0.484949
C39   C     C_R   0.707894 0.206565 0.930293 0.556120
O20   O     O_R   0.821240 0.124490 0.104360 -0.515230
O21   O     O_R   0.036900 0.167320 0.097830 -0.514935
C40   C     C_R   0.079138 0.238891 0.126764 0.559909
O22   O     O_R   0.056190 0.349890 0.102870 -0.464632
O23   O     O_R   0.797670 0.565150 0.097930 -0.440553
C41   C     C_R   0.680226 0.617833 0.123811 0.559450
O24   O     O_R   0.595880 0.584540 0.104260 -0.527024
O25   O     O_R   0.638830 0.325960 0.099140 -0.449356
C42   C     C_R   0.710086 0.212556 0.127693 0.593491
Cr4   Cr    Cr6+3 0.926180 0.152240 0.028110 1.055655
Cr5   Cr    Cr6+3 0.921340 0.452070 0.027460 1.114554
Cr6   Cr    Cr6+3 0.626260 0.447120 0.028700 1.091055
O26   O     O_3   0.824590 0.350480 0.028090 -0.290129
N1    N     N_R   0.438071 0.315297 0.185686 0.086341
O27   O     O_R   0.434501 0.269601 0.124800 -0.322735
O28   O     O_R   0.327180 0.409119 0.212543 -0.295623
F1    F     F_    0.858696 0.692575 0.192265 -0.590525
N2    N     N_R   0.056633 0.419759 0.356799 0.092481
O29   O     O_R   0.004073 0.422218 0.416069 -0.298932
O30   O     O_R   0.052340 0.528302 0.335062 -0.275125
N3    N     N_R   0.909625 0.038241 0.349465 0.093238
O31   O     O_R   0.918631 0.085725 0.408943 -0.310474
O32   O     O_R   0.012657 0.930977 0.325169 -0.320183

loop_
_geom_bond_atom_site_label_1
_geom_bond_atom_site_label_2
_geom_bond_distance
_ccdc_geom_bond_type
N2    O29   1.301869 A    
O11   Cr3   2.053046 S    
O20   C42   1.256211 A    
O16   Cr5   2.054416 S    
C23   H3    1.083079 S    
C19   H1    1.078633 S    
O21   Cr4   1.921515 S    
Cr6   O26   1.980423 S    
C34   C35   1.390906 A    
C6    C30   1.459859 S    
O4    Cr2   1.926023 S    
C31   C32   1.379421 A    
O8    Cr1   1.932217 S    
O15   C37   1.272124 A    
O19   Cr6   1.929105 S    
C7    C38   1.424319 S    
C12   C13   1.406681 S    
C19   C20   1.370764 A    
C8    C10   1.200041 T    
O4    C2    1.271756 A    
C11   C13   1.202182 T    
C35   C36   1.412077 A    
C5    O11   1.302038 A    
C33   C42   1.447080 S    
C33   C34   1.402444 A    
C22   F1    1.357334 S    
C27   C28   1.398047 A    
O19   C39   1.275532 A    
C29   C30   1.398982 A    
C34   N1    1.439267 S    
C21   C41   1.454624 S    
C25   N2    1.439714 S    
C19   C24   1.392292 A    
O25   C42   1.279477 A    
C25   C30   1.413388 A    
C28   C29   1.387328 A    
C38   O18   1.266473 A    
O2    Cr1   1.921908 S    
O17   Cr5   1.923617 S    
O23   Cr5   1.935934 S    
Cr3   O13   1.973936 S    
C23   C24   1.406520 A    
C31   C36   1.397341 A    
C29   H6    1.075988 S    
C26   C27   1.402061 A    
O7    C6    1.262963 A    
C32   C33   1.410825 A    
O1    Cr1   2.051673 S    
O23   C41   1.278684 A    
O10   Cr2   1.926883 S    
O15   Cr4   1.931139 S    
Cr1   O13   1.980618 S    
O1    C3    1.267213 A    
C8    C9    1.403272 S    
Cr5   O26   1.974134 S    
C21   C22   1.404088 A    
O6    C3    1.272869 A    
C1    C18   1.425503 S    
C35   H8    1.083736 S    
O5    Cr3   2.041311 S    
O12   Cr3   1.922747 S    
O3    Cr2   2.043547 S    
C41   O24   1.262352 A    
C20   H2    1.083572 S    
N3    O32   1.301018 A    
N1    O27   1.301358 A    
O25   Cr6   1.924166 S    
O7    Cr1   2.038315 S    
C15   C17   1.200707 T    
O12   C6    1.279900 A    
C11   C37   1.428003 S    
C3    C14   1.427936 S    
C28   H5    1.083392 S    
N1    O28   1.301487 A    
Cr2   O13   1.980700 S    
O18   Cr6   2.042409 S    
N2    O30   1.302077 A    
C1    O3    1.269013 A    
C25   C26   1.389036 A    
O14   C39   1.268318 A    
C32   H7    1.084005 S    
C22   C23   1.391516 A    
O9    Cr2   2.042813 S    
O20   Cr4   2.047161 S    
C40   O22   1.264309 A    
O6    Cr3   1.936103 S    
O24   Cr6   2.047610 S    
Cr4   O26   1.981013 S    
O8    C4    1.263551 A    
C2    O5    1.265851 A    
C16   C17   1.404379 S    
C12   C14   1.202164 T    
O2    C1    1.272977 A    
C5    C24   1.450852 S    
O21   C40   1.270545 A    
C20   C21   1.403887 A    
N3    O31   1.301416 A    
C2    C10   1.424303 S    
O14   Cr4   2.039687 S    
O22   Cr5   2.039283 S    
C7    C9    1.200051 T    
C27   C40   1.452309 S    
C37   O16   1.266010 A    
C4    C36   1.447161 S    
C26   H4    1.083275 S    
C15   C39   1.425373 S    
C4    O9    1.276007 A    
O17   C38   1.271219 A    
C31   N3    1.435894 S    
O10   C5    1.298619 A    
C16   C18   1.200749 T    
