data_mof_unit_51646.cif
_audit_creation_date              2012-12-10T20:48:20-0500
_audit_creation_method            fapswitch 2.2
_symmetry_space_group_name_H-M    P1
_symmetry_Int_Tables_number       1
_space_group_crystal_system       triclinic
_cell_length_a                    10.664653
_cell_length_b                    8.916423
_cell_length_c                    8.117503
_cell_angle_alpha                 89.949741
_cell_angle_beta                  90.264444
_cell_angle_gamma                 89.91153
_cell_volume                      771.888440624

loop_
_atom_site_label
_atom_site_type_symbol
_atom_type_description
_atom_site_fract_x
_atom_site_fract_y
_atom_site_fract_z
_atom_type_partial_charge
C1    C     C_R   0.499667 0.218070 0.500041 0.959546
C2    C     C_1   0.499606 0.934785 0.499896 -0.212216
C3    C     C_3   0.072393 0.643308 0.441039 -0.610529
C4    C     C_3   0.928320 0.641617 0.439139 -0.639993
C5    C     C_3   0.121692 0.488224 0.501639 -0.132461
C6    C     C_3   0.878945 0.488385 0.504225 -0.110037
C7    C     C_3   0.143392 0.217792 0.736041 -0.098990
C8    C     C_3   0.173087 0.171703 0.241754 -0.307841
C9    C     C_3   0.857063 0.340512 0.920670 -0.256906
C10   C     C_3   0.827522 0.130342 0.334235 -0.273684
C11   C     C_R   0.257413 0.493900 0.500126 0.938628
C12   C     C_R   0.742780 0.494570 0.500902 0.945801
C13   C     C_R   0.499876 0.781927 0.499945 0.928482
C14   C     C_1   0.499504 0.065259 0.500039 -0.203197
C15   C     C_3   0.070960 0.468344 0.683713 0.326828
C16   C     C_3   0.070731 0.370106 0.374386 0.323594
C17   C     C_3   0.927126 0.464263 0.685165 0.363882
C18   C     C_3   0.926264 0.359491 0.389624 0.372288
H1    H     H_    0.093489 0.577538 0.743845 0.083209
H2    H     H_    0.158017 0.143253 0.843816 0.116131
H3    H     H_    0.228963 0.207569 0.659887 0.183933
H4    H     H_    0.252154 0.241042 0.195946 0.200946
H5    H     H_    0.097049 0.166947 0.147779 0.156472
H6    H     H_    0.208568 0.055992 0.261178 0.185980
H7    H     H_    0.777139 0.417754 0.943688 0.165952
H8    H     H_    0.941749 0.379057 0.988553 0.156136
H9    H     H_    0.831037 0.228567 0.968899 0.166965
H10   H     H_    0.890692 0.103798 0.229970 0.148537
H11   H     H_    0.741224 0.187456 0.289098 0.159398
H12   H     H_    0.089751 0.418106 0.249194 0.069117
H13   H     H_    0.798942 0.022751 0.391488 0.185120
H14   H     H_    0.893449 0.563001 0.758405 0.031112
H15   H     H_    0.886535 0.380972 0.264364 0.005254
H16   H     H_    0.106358 0.735375 0.522392 0.208949
H17   H     H_    0.107352 0.669625 0.315194 0.222605
H18   H     H_    0.892386 0.735168 0.516613 0.213268
H19   H     H_    0.894439 0.661639 0.311005 0.220501
H20   H     H_    0.058783 0.175763 0.672110 0.259014
N1    N     N_1   0.500000 0.500030 0.073640 -0.051537
N2    N     N_1   0.500000 0.500030 0.926360 -0.041521
O1    O     O_R   0.500000 0.285340 0.636850 -0.608503
O2    O     O_3   0.128638 0.227524 0.393342 -0.620484
O3    O     O_3   0.880683 0.327346 0.750539 -0.541516
O4    O     O_3   0.889837 0.217606 0.453925 -0.539964
O5    O     O_R   0.500000 0.285340 0.363150 -0.636707
O6    O     O_R   0.314790 0.499970 0.636880 -0.597187
O7    O     O_R   0.314790 0.499970 0.363120 -0.633900
O8    O     O_R   0.685210 0.499970 0.636880 -0.610022
O9    O     O_R   0.685210 0.499970 0.363120 -0.655213
O10   O     O_R   0.500000 0.714650 0.636900 -0.621842
O11   O     O_R   0.500000 0.714650 0.363100 -0.619392
O12   O     O_3   0.130675 0.365474 0.794229 -0.623189
Zn1   Zn    Zn3+2 0.500000 0.499990 0.682780 0.995634
Zn2   Zn    Zn3+2 0.500000 0.499990 0.317220 0.953550

loop_
_geom_bond_atom_site_label_1
_geom_bond_atom_site_label_2
_ccdc_geom_bond_type
C7    O12   S    
C1    O1    A    
C8    H4    S    
C17   O3    S    
C18   O4    S    
C9    H8    S    
O9    Zn2   S    
C11   O7    A    
C3    H17   S    
C12   O8    A    
O11   Zn2   S    
O1    Zn1   S    
C4    H18   S    
C12   O9    A    
C9    H7    S    
C13   O11   A    
C15   O12   S    
C15   H1    S    
C2    C13   S    
C10   H11   S    
C1    O5    A    
O7    Zn2   S    
C6    C18   S    
O6    Zn1   S    
C16   C18   S    
C8    H6    S    
C7    H20   S    
C8    O2    S    
O5    Zn2   S    
C5    C11   S    
C6    C12   S    
O8    Zn1   S    
C2    C14   T    
C18   H15   S    
C9    O3    S    
O10   Zn1   S    
C5    C15   S    
C17   H14   S    
C16   H12   S    
C13   O10   A    
N1    Zn2   S    
C16   O2    S    
C8    H5    S    
C4    H19   S    
C9    H9    S    
C4    C6    S    
C7    H2    S    
N2    Zn1   S    
C10   H10   S    
N1    N2    T    
C15   C17   S    
C6    C17   S    
C11   O6    A    
C1    C14   S    
C3    H16   S    
C3    C5    S    
C7    H3    S    
C10   O4    S    
C10   H13   S    
C3    C4    S    
C5    C16   S    
