data_mof_unit_42118.cif
_audit_creation_date              2013-03-05T16:15:22-0500
_audit_creation_method            fapswitch 2.2
_symmetry_space_group_name_H-M    P1
_symmetry_Int_Tables_number       1
_space_group_crystal_system       triclinic
_cell_length_a                    27.868006
_cell_length_b                    10.750042
_cell_length_c                    9.522558
_cell_angle_alpha                 89.615465
_cell_angle_beta                  90.354889
_cell_angle_gamma                 89.800223
_cell_volume                      2852.65247848

loop_
_atom_site_label
_atom_site_type_symbol
_atom_site_description
_atom_site_fract_x
_atom_site_fract_y
_atom_site_fract_z
_atom_type_partial_charge
O1    O     O_R   0.500020 0.316850 0.620870 -0.547839
O2    O     O_R   0.499980 0.683150 0.379130 -0.532216
O3    O     O_R   0.500000 0.316860 0.379090 -0.564145
O4    O     O_R   0.500000 0.683140 0.620910 -0.569127
C1    C     C_R   0.500397 0.260212 0.500357 0.900124
C2    C     C_R   0.500714 0.740193 0.500110 0.921602
O5    O     O_R   0.430270 0.500020 0.620880 -0.540571
O6    O     O_R   0.569730 0.499980 0.379120 -0.532857
O7    O     O_R   0.430250 0.500030 0.379090 -0.552972
O8    O     O_R   0.569750 0.499970 0.620910 -0.582156
C3    C     C_R   0.407406 0.498097 0.500129 0.903842
C4    C     C_R   0.592246 0.497798 0.500660 0.946324
Cu1   Cu    Cu3+1 0.500010 0.499990 0.643150 1.067891
Cu2   Cu    Cu3+1 0.499990 0.500010 0.356850 1.086522
C5    C     C_R   0.176538 0.374782 0.536336 0.661637
C6    C     C_R   0.822862 0.606923 0.495750 0.662031
O9    O     O_2   0.200868 0.269151 0.508998 -0.432950
O10   O     O_2   0.798886 0.702605 0.435310 -0.428093
N1    N     N_R   0.201162 0.484554 0.544512 -0.439462
N2    N     N_R   0.797991 0.503080 0.536136 -0.440570
C7    C     C_R   0.177648 0.595595 0.557935 0.608387
C8    C     C_R   0.821480 0.398029 0.581050 0.603386
C9    C     C_R   0.273729 0.543286 0.418466 -0.178359
C10   C     C_R   0.723370 0.416499 0.442041 -0.184034
C11   C     C_R   0.323624 0.550073 0.403820 0.299042
C12   C     C_R   0.673247 0.409828 0.432934 0.264427
C13   C     C_R   0.331966 0.424261 0.617830 0.162078
C14   C     C_R   0.668430 0.589674 0.589742 0.163393
C15   C     C_R   0.281711 0.424459 0.633998 0.289501
C16   C     C_R   0.718799 0.589227 0.604192 0.289505
C17   C     C_R   0.252689 0.484309 0.533133 0.115153
C18   C     C_R   0.746274 0.503049 0.528024 0.117766
C19   C     C_R   0.101261 0.487713 0.556814 -0.083598
C20   C     C_R   0.897975 0.501803 0.550478 -0.085562
C21   C     C_R   0.126083 0.372789 0.552054 -0.147810
C22   C     C_R   0.873228 0.612378 0.513333 -0.144868
C23   C     C_R   0.099496 0.260969 0.557780 0.370638
C24   C     C_R   0.899746 0.722633 0.490738 0.364493
C25   C     C_R   0.127432 0.599641 0.559086 -0.032709
C26   C     C_R   0.871727 0.393625 0.582751 -0.022937
C27   C     C_R   0.353810 0.490089 0.504734 -0.310864
C28   C     C_R   0.645295 0.499714 0.504761 -0.296727
C29   C     C_R   0.973249 0.384021 0.578304 0.072971
C30   C     C_R   0.025942 0.607492 0.549230 0.067671
C31   C     C_R   0.975172 0.609760 0.534691 -0.009625
C32   C     C_R   0.024047 0.379178 0.567157 -0.010823
C33   C     C_R   0.948935 0.498654 0.554638 0.084421
C34   C     C_R   0.050284 0.491359 0.557992 0.084284
C35   C     C_R   0.945784 0.278161 0.613420 -0.173777
C36   C     C_R   0.053350 0.717616 0.556369 -0.170902
C37   C     C_R   0.896030 0.283478 0.617037 -0.085976
C38   C     C_R   0.103090 0.713436 0.562558 -0.080058
O11   O     O_2   0.796232 0.297716 0.623277 -0.492025
O12   O     O_2   0.202899 0.702099 0.568764 -0.483708
C39   C     C_R   0.049472 0.265518 0.564050 -0.243105
C40   C     C_R   0.949764 0.719700 0.500305 -0.246822
H1    H     H_    0.745333 0.350797 0.385232 0.224817
H2    H     H_    0.250438 0.588438 0.342080 0.221421
H3    H     H_    0.876625 0.199733 0.644673 0.218797
H4    H     H_    0.122473 0.800471 0.567710 0.236632
H5    H     H_    0.961807 0.190356 0.643065 0.158013
H6    H     H_    0.037307 0.808852 0.561487 0.166655
H7    H     H_    0.031243 0.177251 0.564379 0.173290
H8    H     H_    0.967998 0.805866 0.478475 0.176436
C41   C     C_3   0.543684 0.042543 0.550535 0.183405
C42   C     C_3   0.460472 0.960342 0.453776 0.113321
C43   C     C_3   0.538576 0.959431 0.418430 -0.201324
C44   C     C_3   0.465794 0.042429 0.585376 -0.262754
H9    H     H_    0.567993 0.926043 0.350253 0.234341
H10   H     H_    0.437011 0.073331 0.656655 0.258214
C45   C     C_3   0.502402 0.877015 0.501539 -0.209501
C46   C     C_3   0.501334 0.124159 0.501498 -0.201728
C47   C     C_3   0.508685 0.960300 0.632072 0.314715
C48   C     C_3   0.495551 0.041464 0.372192 0.310642
C49   C     C_3   0.507431 0.609302 0.047227 0.383349
C50   C     C_3   0.492365 0.391272 0.952520 0.371846
C51   C     C_3   0.467151 0.571735 0.948301 0.225400
C52   C     C_3   0.532748 0.429289 0.049980 0.192389
N3    N     N_3   0.500040 0.499970 0.858290 -0.259636
N4    N     N_3   0.499960 0.500030 0.141710 -0.261121
C53   C     C_3   0.541119 0.539008 0.948852 -0.184657
C54   C     C_3   0.458544 0.462013 0.050553 -0.151999
H11   H     H_    0.575265 0.571920 0.902805 0.225345
H12   H     H_    0.424461 0.428319 0.096743 0.210380
N5    N     N_R   0.360724 0.353719 0.714833 0.186524
O13   O     O_R   0.357878 0.373406 0.849173 -0.289186
O14   O     O_R   0.387283 0.263402 0.668872 -0.362343
N6    N     N_R   0.640614 0.681873 0.661415 0.149624
O15   O     O_R   0.607906 0.744696 0.593393 -0.399632
O16   O     O_R   0.647276 0.701998 0.794699 -0.286959
N7    N     N_2   0.587406 0.098458 0.603587 -0.411231
H13   H     H_    0.582780 0.154889 0.689275 0.283524
C55   C     C_3   0.629879 0.021638 0.611094 -0.348685
H14   H     H_    0.661690 0.081848 0.627353 0.226185
H15   H     H_    0.635077 0.970289 0.511612 0.248570
H16   H     H_    0.627543 0.956473 0.701368 0.281562
N8    N     N_2   0.415660 0.916738 0.395173 -0.380592
H17   H     H_    0.418446 0.896564 0.290020 0.336135
C56   C     C_3   0.373752 0.991006 0.426350 -0.451632
H18   H     H_    0.341942 0.951463 0.372085 0.255824
H19   H     H_    0.378808 0.088517 0.389961 0.240368
H20   H     H_    0.366700 0.989419 0.541000 0.236809
N9    N     N_R   0.515399 0.917521 0.776208 0.158775
O17   O     O_R   0.483830 0.945966 0.870675 -0.239864
O18   O     O_R   0.552596 0.850901 0.811371 -0.267750
N10   N     N_R   0.487016 0.085515 0.229540 0.156611
O19   O     O_R   0.517129 0.057801 0.130830 -0.225734
O20   O     O_R   0.448358 0.148495 0.199451 -0.324950
N11   N     N_2   0.432425 0.652625 0.880103 -0.408236
H21   H     H_    0.447183 0.729837 0.833284 0.299870
C57   C     C_3   0.388874 0.677555 0.955190 -0.421793
H22   H     H_    0.363497 0.729018 0.885552 0.229190
H23   H     H_    0.396643 0.735447 0.048286 0.277238
H24   H     H_    0.371725 0.588885 0.986669 0.267594
N12   N     N_2   0.569473 0.348272 0.107457 -0.350706
H25   H     H_    0.555811 0.269170 0.153120 0.326298
C58   C     C_3   0.609911 0.326224 0.016043 -0.472214
H26   H     H_    0.629927 0.242301 0.051413 0.275449
H27   H     H_    0.634354 0.407512 0.018850 0.233393
H28   H     H_    0.598042 0.310832 0.906034 0.207490
N13   N     N_R   0.516902 0.732659 0.101580 0.182109
O21   O     O_R   0.481650 0.809189 0.123558 -0.317268
O22   O     O_R   0.560606 0.765610 0.131629 -0.295310
N14   N     N_R   0.483878 0.266421 0.900254 0.182424
O23   O     O_R   0.520052 0.195734 0.868934 -0.346260
O24   O     O_R   0.441621 0.217016 0.912539 -0.211808
N15   N     N_R   0.260101 0.362212 0.751610 0.178111
O25   O     O_R   0.270813 0.246836 0.780177 -0.219893
O26   O     O_R   0.227763 0.418593 0.826145 -0.306978
N16   N     N_R   0.742127 0.677393 0.694282 0.181851
O27   O     O_R   0.733050 0.795747 0.681112 -0.239761
O28   O     O_R   0.774323 0.640270 0.784957 -0.306355
N17   N     N_R   0.122311 0.141231 0.565042 0.162136
O29   O     O_R   0.107812 0.052477 0.482986 -0.352428
O30   O     O_R   0.149788 0.113642 0.671857 -0.250190
N18   N     N_R   0.876807 0.840833 0.467554 0.162333
O31   O     O_R   0.892140 0.914545 0.368744 -0.318166
O32   O     O_R   0.848121 0.885165 0.562392 -0.252808
N19   N     N_R   0.652226 0.307384 0.357295 0.142951
O33   O     O_R   0.678813 0.239361 0.275976 -0.338959
O34   O     O_R   0.609453 0.267786 0.386785 -0.382615
N20   N     N_R   0.341988 0.623524 0.289818 0.128762
O35   O     O_R   0.314903 0.646198 0.180715 -0.357156
O36   O     O_R   0.380109 0.690544 0.307592 -0.386781

loop_
_geom_bond_atom_site_label_1
_geom_bond_atom_site_label_2
_geom_bond_distance
_ccdc_geom_bond_type
C9    H2    1.083142 S    
C42   C44   1.544210 S    
Cu1   N3    2.048678 S    
C55   H14   1.110157 S    
C13   C15   1.409862 A    
C52   N12   1.444293 S    
C52   C53   1.537019 S    
C50   N3    1.485391 S    
N1    C17   1.440712 S    
C10   C18   1.396922 A    
N8    H17   1.029310 S    
C57   H23   1.107274 S    
N5    O13   1.300904 A    
C5    N1    1.369568 A    
C19   C25   1.409405 A    
O1    C1    1.302794 A    
C50   C52   1.513349 S    
C42   N8    1.445560 S    
N1    C7    1.366857 A    
C10   C12   1.401103 A    
C1    C46   1.462683 S    
C58   H27   1.110219 S    
C7    O12   1.350184 S    
C52   N4    1.479932 S    
N7    C55   1.442017 S    
N10   O19   1.299363 A    
N12   H25   1.027854 S    
C42   C48   1.525117 S    
C41   C47   1.530360 S    
C41   N7    1.450064 S    
C31   C33   1.414921 A    
C14   C28   1.419198 A    
O4    Cu1   1.978813 S    
C13   N5    1.431013 S    
C4    C28   1.478857 S    
C38   H4    1.083232 S    
C53   H11   1.108331 S    
C56   H18   1.110630 S    
C31   C40   1.411191 A    
C10   H1    1.082760 S    
C35   C37   1.388171 A    
C39   H7    1.077859 S    
C32   C39   1.410867 A    
C14   N6    1.435048 S    
C36   C38   1.387601 A    
C40   H8    1.077696 S    
C24   N18   1.435541 S    
C49   N4    1.490824 S    
C43   C45   1.560204 S    
O6    C4    1.313135 A    
N5    O14   1.298751 A    
C25   C38   1.397417 A    
C55   H15   1.109627 S    
Cu1   Cu2   2.726303 S    
C19   C34   1.421164 A    
O2    C2    1.308791 A    
C5    C21   1.415162 A    
N8    C56   1.445846 S    
O5    C3    1.311460 A    
C8    O11   1.350049 S    
C51   N3    1.477695 S    
C2    C45   1.471910 S    
C32   C34   1.414935 A    
C35   H5    1.077950 S    
C50   N14   1.454217 S    
N4    C54   1.499432 S    
C12   N19   1.443858 S    
C58   H28   1.110220 S    
C50   C54   1.534128 S    
N7    H13   1.028510 S    
N3    C53   1.492080 S    
C49   C53   1.531476 S    
N12   C58   1.448082 S    
C44   C47   1.544898 S    
C16   N16   1.437068 S    
C44   C46   1.548321 S    
C43   H9    1.109088 S    
C9    C17   1.392574 A    
N16   O28   1.301218 A    
O7    Cu2   1.956322 S    
N15   O26   1.301213 A    
C48   N10   1.453503 S    
O7    C3    1.320254 A    
C13   C27   1.425523 A    
C42   C45   1.534697 S    
C7    C25   1.400048 A    
C47   N9    1.455371 S    
C6    N2    1.370189 A    
C8    C26   1.400892 A    
C24   C40   1.396545 A    
N9    O18   1.298806 A    
C43   C48   1.545982 S    
C51   N11   1.446786 S    
C49   C51   1.518453 S    
N13   O21   1.298060 A    
O3    Cu2   1.978812 S    
O8    C4    1.309183 A    
C46   C48   1.531550 S    
C56   H19   1.111530 S    
N6    O16   1.301238 A    
C55   H16   1.107651 S    
Cu2   N4    2.048678 S    
C15   N15   1.437321 S    
N17   O29   1.301129 A    
C36   H6    1.077992 S    
C23   N17   1.434722 S    
O4    C2    1.300272 A    
O1    Cu1   1.981577 S    
C11   C27   1.422959 A    
N15   O25   1.301284 A    
C41   C46   1.536607 S    
N20   O36   1.296551 A    
C30   C31   1.420877 A    
C12   C28   1.420741 A    
N18   O32   1.301490 A    
N14   O24   1.299131 A    
N2    C18   1.442831 S    
C30   C36   1.412882 A    
C5    O9    1.348237 S    
O6    Cu2   1.953743 S    
C57   H22   1.110171 S    
C21   C23   1.415184 A    
C49   N13   1.451219 S    
C29   C35   1.413091 A    
N2    C8    1.368087 A    
N18   O31   1.301214 A    
O3    C1    1.301854 A    
O8    Cu1   1.956322 S    
N19   O33   1.301639 A    
C26   C37   1.397792 A    
C54   H12   1.110066 S    
C41   C43   1.553953 S    
N11   C57   1.437769 S    
N16   O27   1.301423 A    
C14   C16   1.409580 A    
C15   C17   1.403238 A    
C58   H26   1.108432 S    
C6    C22   1.413993 A    
C16   C18   1.407667 A    
N19   O34   1.298836 A    
C11   N20   1.436006 S    
N10   O20   1.299836 A    
C51   C54   1.544779 S    
C22   C24   1.414882 A    
C19   C21   1.414930 A    
C3    C27   1.497286 S    
C57   H24   1.108137 S    
C20   C22   1.413970 A    
C9    C11   1.400416 A    
O2    Cu2   1.981576 S    
C29   C32   1.421068 A    
N13   O22   1.300290 A    
C23   C39   1.396414 A    
O5    Cu1   1.953743 S    
C56   H20   1.110535 S    
C37   H3    1.083587 S    
N6    O15   1.299612 A    
C6    O10   1.348397 S    
C45   C47   1.546167 S    
N9    O17   1.299349 A    
N17   O30   1.301394 A    
C44   H10   1.105622 S    
N20   O35   1.301588 A    
C20   C26   1.409195 A    
C20   C33   1.420737 A    
N11   H21   1.027886 S    
C29   C33   1.420235 A    
C30   C34   1.420468 A    
N14   O23   1.297719 A    
