data_mof_unit_8181.cif
_audit_creation_date              2012-12-11T16:23:27-0500
_audit_creation_method            fapswitch 2.2
_symmetry_space_group_name_H-M    P1
_symmetry_Int_Tables_number       1
_space_group_crystal_system       triclinic
_cell_length_a                    19.956862
_cell_length_b                    7.213846
_cell_length_c                    19.804063
_cell_angle_alpha                 91.60514
_cell_angle_beta                  98.612395
_cell_angle_gamma                 91.262525
_cell_volume                      2816.85877064

loop_
_atom_site_label
_atom_site_type_symbol
_atom_type_description
_atom_site_fract_x
_atom_site_fract_y
_atom_site_fract_z
_atom_type_partial_charge
O1    O     O_R   0.188410 0.619490 0.310050 -0.517493
O2    O     O_R   0.811590 0.380510 0.689950 -0.524475
O3    O     O_R   0.311590 0.119490 0.189950 -0.505315
O4    O     O_R   0.688410 0.880510 0.810050 -0.519955
O5    O     O_R   0.327280 0.288800 0.321740 -0.538292
O6    O     O_R   0.672720 0.711200 0.678260 -0.527476
O7    O     O_R   0.172720 0.788800 0.178260 -0.547517
O8    O     O_R   0.827280 0.211200 0.821740 -0.537580
C1    C     C_R   0.351575 0.462428 0.338548 0.710803
C2    C     C_R   0.648407 0.537598 0.661493 0.682717
C3    C     C_R   0.148733 0.954393 0.160383 0.660958
C4    C     C_R   0.851451 0.045643 0.839400 0.678507
O9    O     O_R   0.189900 0.289710 0.318190 -0.554205
O10   O     O_R   0.810100 0.710290 0.681810 -0.546662
O11   O     O_R   0.310100 0.789710 0.181810 -0.540427
O12   O     O_R   0.689900 0.210290 0.818190 -0.549194
O13   O     O_R   0.173230 0.120350 0.186370 -0.540694
O14   O     O_R   0.826770 0.879650 0.813630 -0.536753
O15   O     O_R   0.326770 0.620350 0.313630 -0.531478
O16   O     O_R   0.673230 0.379650 0.686370 -0.542833
C5    C     C_R   0.169953 0.458874 0.334309 0.748570
C6    C     C_R   0.830688 0.541384 0.666565 0.758427
C7    C     C_R   0.328480 0.958545 0.163880 0.730055
C8    C     C_R   0.669025 0.042040 0.833022 0.763001
O17   O     O_3   0.244690 0.453290 0.206760 -0.371178
O18   O     O_3   0.755310 0.546710 0.793240 -0.379175
O19   O     O_3   0.255310 0.953290 0.293240 -0.374253
O20   O     O_3   0.744690 0.046710 0.706760 -0.377395
V1    V     V_3+5 0.250980 0.178070 0.258020 1.418613
V2    V     V_3+5 0.749020 0.821930 0.741980 1.427547
V3    V     V_3+5 0.249020 0.678070 0.241980 1.438922
V4    V     V_3+5 0.750980 0.321930 0.758020 1.415923
C9    C     C_R   0.438744 0.154268 0.039515 -0.245922
C10   C     C_R   0.508502 0.915213 0.903440 -0.234341
C11   C     C_R   0.079310 0.622283 0.481223 -0.316779
C12   C     C_R   0.989745 0.435942 0.589407 -0.312838
H1    H     H_    0.455025 0.288487 0.024607 0.211208
H2    H     H_    0.461608 0.840621 0.885644 0.152505
H3    H     H_    0.085224 0.727756 0.521825 0.143565
H4    H     H_    0.038691 0.375315 0.604491 0.145721
C13   C     C_R   0.388939 0.143465 0.082301 0.459672
C14   C     C_R   0.558919 0.916837 0.861016 0.432421
C15   C     C_R   0.126760 0.614342 0.434991 0.457293
C16   C     C_R   0.942201 0.439178 0.635395 0.458056
C17   C     C_R   0.372665 0.970600 0.109171 -0.223134
C18   C     C_R   0.616998 0.032473 0.878763 -0.196388
C19   C     C_R   0.121152 0.470292 0.384340 -0.190230
C20   C     C_R   0.880419 0.529964 0.617885 -0.176648
C21   C     C_R   0.398439 0.809503 0.081900 -0.330749
C22   C     C_R   0.624957 0.137822 0.940218 -0.336047
C23   C     C_R   0.066767 0.340871 0.379768 -0.351677
C24   C     C_R   0.865300 0.604094 0.552713 -0.365514
H5    H     H_    0.384876 0.674490 0.098928 0.208719
H6    H     H_    0.669478 0.227258 0.954321 0.155688
H7    H     H_    0.060720 0.232427 0.340202 0.152139
H8    H     H_    0.817817 0.673399 0.539179 0.141526
C25   C     C_R   0.441167 0.820118 0.031309 0.503873
C26   C     C_R   0.577067 0.123305 0.985353 0.498073
C27   C     C_R   0.018551 0.352843 0.424732 0.521456
C28   C     C_R   0.910391 0.585261 0.504318 0.502754
C29   C     C_R   0.465548 0.994399 0.013537 -0.043182
C30   C     C_R   0.517685 0.011496 0.966893 -0.013086
C31   C     C_R   0.024455 0.495037 0.475533 0.008984
C32   C     C_R   0.974291 0.507923 0.523999 0.008327
C33   C     C_R   0.089290 0.947613 0.104232 -0.059965
C34   C     C_R   0.911315 0.052336 0.895076 -0.071922
C35   C     C_R   0.412541 0.490826 0.391741 -0.063403
C36   C     C_R   0.587292 0.509400 0.608506 -0.057252
C37   C     C_R   0.003326 0.234276 0.964228 -0.202222
C38   C     C_R   0.997678 0.765339 0.034648 -0.198957
C39   C     C_R   0.491718 0.306759 0.558075 -0.183348
C40   C     C_R   0.507961 0.693787 0.442346 -0.192846
C41   C     C_R   0.950038 0.218743 0.909514 -0.155303
C42   C     C_R   0.050766 0.780975 0.089511 -0.161772
C43   C     C_R   0.545002 0.350952 0.610727 -0.160848
C44   C     C_R   0.454745 0.649520 0.389648 -0.147229
C45   C     C_R   0.928280 0.899927 0.936664 -0.230408
C46   C     C_R   0.072588 0.099884 0.062455 -0.241765
C47   C     C_R   0.573851 0.625900 0.552639 -0.228278
C48   C     C_R   0.425901 0.374429 0.447668 -0.229885
C49   C     C_R   0.981642 0.915466 0.992407 0.157187
C50   C     C_R   0.019349 0.084254 0.006557 0.158711
C51   C     C_R   0.520456 0.580976 0.498944 0.153779
C52   C     C_R   0.479236 0.419473 0.501433 0.153227
H9    H     H_    0.101821 0.228791 0.072378 0.119200
H10   H     H_    0.899060 0.770996 0.926804 0.127607
H11   H     H_    0.393569 0.253028 0.450510 0.125024
H12   H     H_    0.606207 0.747226 0.549755 0.120512
H13   H     H_    0.061741 0.660876 0.120492 0.131199
H14   H     H_    0.939006 0.338711 0.878472 0.149746
H15   H     H_    0.446076 0.741837 0.347183 0.129666
H16   H     H_    0.553681 0.258763 0.653235 0.136379
H17   H     H_    0.031786 0.364440 0.973643 0.120058
H18   H     H_    0.969294 0.635079 0.025125 0.120630
H19   H     H_    0.460712 0.183084 0.561401 0.128187
H20   H     H_    0.538936 0.817550 0.439065 0.119400
O21   O     O_3   0.357218 0.304615 0.097350 -0.543742
C53   C     C_3   0.292934 0.306219 0.055942 -0.219133
H21   H     H_    0.271767 0.446260 0.060225 0.150452
H22   H     H_    0.256717 0.205144 0.073054 0.135328
H23   H     H_    0.295941 0.276500 0.000983 0.091281
O22   O     O_3   0.548436 0.821144 0.798541 -0.557359
C54   C     C_3   0.549329 0.628677 0.809635 -0.169804
H24   H     H_    0.596601 0.589235 0.842917 0.140158
H25   H     H_    0.547920 0.554043 0.759709 0.137689
H26   H     H_    0.504001 0.581296 0.831518 0.124832
O23   O     O_3   0.182731 0.734476 0.443342 -0.552305
C55   C     C_3   0.161532 0.917007 0.430249 -0.163049
H27   H     H_    0.206960 0.006122 0.427359 0.166508
H28   H     H_    0.136601 0.974904 0.472425 0.105023
H29   H     H_    0.127633 0.924684 0.380362 0.120102
O24   O     O_3   0.958460 0.369721 0.700077 -0.557250
C56   C     C_3   0.959197 0.174334 0.694723 -0.206431
H30   H     H_    0.910535 0.115027 0.666667 0.137444
H31   H     H_    0.965623 0.119179 0.746963 0.150774
H32   H     H_    0.002532 0.126617 0.670028 0.123429
O25   O     O_3   0.461500 0.660067 0.001188 -0.538566
C57   C     C_3   0.405410 0.581909 0.956637 -0.303061
H33   H     H_    0.423754 0.474965 0.922960 0.159255
H34   H     H_    0.377557 0.685631 0.923312 0.117369
H35   H     H_    0.369457 0.514440 0.985977 0.166522
O26   O     O_3   0.587520 0.224518 0.046431 -0.543118
C58   C     C_3   0.626943 0.119049 0.095649 -0.222066
H36   H     H_    0.677924 0.093548 0.081432 0.129198
H37   H     H_    0.600765 0.985233 0.103590 0.142943
H38   H     H_    0.634497 0.198540 0.145078 0.164320
O27   O     O_3   0.963222 0.231674 0.416672 -0.552897
C59   C     C_3   0.982460 0.065730 0.449184 -0.242037
H39   H     H_    0.012634 0.089958 0.500931 0.104258
H40   H     H_    0.010728 0.978656 0.416513 0.150651
H41   H     H_    0.935779 0.988027 0.456414 0.214420
O28   O     O_3   0.895057 0.652478 0.439072 -0.562584
C60   C     C_3   0.834663 0.566744 0.404961 -0.207703
H42   H     H_    0.789552 0.629923 0.422042 0.120018
H43   H     H_    0.833598 0.413732 0.411386 0.161249
H44   H     H_    0.831563 0.590563 0.349502 0.165630

loop_
_geom_bond_atom_site_label_1
_geom_bond_atom_site_label_2
_ccdc_geom_bond_type
O17   V3    S    
C6    C20   S    
C26   C30   A    
C7    C17   S    
O19   V1    S    
O13   V1    S    
O3    C7    A    
C10   C14   A    
O1    V3    S    
C40   C44   A    
O15   V3    S    
C59   H39   S    
C28   O28   S    
O21   C53   S    
C58   H36   S    
C36   C43   A    
O1    C5    A    
C22   H6    S    
C42   H13   S    
O9    V1    S    
C38   H18   S    
C41   H14   S    
C56   H30   S    
C48   H11   S    
C37   H17   S    
O4    C8    A    
C58   H37   S    
C39   H19   S    
C27   O27   S    
C10   C30   A    
C21   C25   A    
C55   H27   S    
O2    V4    S    
C14   C18   A    
O3    V1    S    
C38   C49   A    
C38   C42   A    
O24   C56   S    
C37   C50   A    
C24   C28   A    
C57   H33   S    
C1    O15   A    
C2    O16   A    
O28   C60   S    
O2    C6    A    
C60   H44   S    
O23   C55   S    
C37   C41   A    
O14   V2    S    
C45   C49   A    
C11   C15   A    
C48   C52   A    
C56   H32   S    
C36   C47   A    
O11   C7    A    
O12   C8    A    
C39   C43   A    
C29   C30   S    
O10   V2    S    
C14   O22   S    
C47   H12   S    
O7    C3    A    
O5    V1    S    
C26   O26   S    
O7    V3    S    
C22   C26   A    
C12   H4    S    
O18   V4    S    
C58   H38   S    
C19   C23   A    
C49   C50   A    
C34   C41   A    
C4    C34   S    
C9    H1    S    
C33   C42   A    
C57   H35   S    
O8    V4    S    
C11   H3    S    
C1    C35   S    
O5    C1    A    
C46   C50   A    
C51   C52   A    
C17   C21   A    
O8    C4    A    
O9    C5    A    
C54   H25   S    
C15   O23   S    
C25   C29   A    
C43   H16   S    
C16   O24   S    
C46   H9    S    
O6    V2    S    
C45   H10   S    
C53   H22   S    
C60   H42   S    
C13   O21   S    
C12   C16   A    
C23   C27   A    
O27   C59   S    
C59   H41   S    
C25   O25   S    
C39   C52   A    
O16   V4    S    
C34   C45   A    
C3    O13   A    
C33   C46   A    
C10   H2    S    
C35   C48   A    
C59   H40   S    
O6    C2    A    
O11   V3    S    
C2    C36   S    
O12   V4    S    
C53   H23   S    
C18   C22   A    
C27   C31   A    
C55   H29   S    
C28   C32   A    
C9    C13   A    
O10   C6    A    
O20   V2    S    
C8    C18   S    
C16   C20   A    
O25   C57   S    
C47   C51   A    
C21   H5    S    
C55   H28   S    
C54   H26   S    
C23   H7    S    
O22   C54   S    
C57   H34   S    
C40   C51   A    
C44   H15   S    
C31   C32   S    
C40   H20   S    
C3    C33   S    
C20   C24   A    
C9    C29   A    
C53   H21   S    
C4    O14   A    
C54   H24   S    
C60   H43   S    
C13   C17   A    
C11   C31   A    
C35   C44   A    
C56   H31   S    
O26   C58   S    
C12   C32   A    
C15   C19   A    
O4    V2    S    
C24   H8    S    
C5    C19   S    
