data_mof_unit_20145.cif
_audit_creation_date              2012-12-10T18:42:31-0500
_audit_creation_method            fapswitch 2.2
_symmetry_space_group_name_H-M    P1
_symmetry_Int_Tables_number       1
_space_group_crystal_system       triclinic
_cell_length_a                    8.645203
_cell_length_b                    10.653907
_cell_length_c                    9.84889
_cell_angle_alpha                 90.143303
_cell_angle_beta                  98.280725
_cell_angle_gamma                 90.08229
_cell_volume                      897.672076586

loop_
_atom_site_label
_atom_site_type_symbol
_atom_type_description
_atom_site_fract_x
_atom_site_fract_y
_atom_site_fract_z
_atom_type_partial_charge
C1    C     C_R   0.503285 0.260188 0.500131 0.941185
C2    C     C_R   0.496715 0.739812 0.499868 0.941185
C3    C     C_R   0.201707 0.497255 0.464836 0.888265
C4    C     C_R   0.798293 0.502745 0.535164 0.888265
C5    C     C_2   0.038022 0.479120 0.449225 0.191817
C6    C     C_2   0.961978 0.520880 0.550775 0.191817
C7    C     C_R   0.605051 0.061969 0.426054 0.410629
C8    C     C_R   0.394949 0.938031 0.573946 0.410629
C9    C     C_R   0.599633 0.933139 0.426275 -0.268673
C10   C     C_R   0.400367 0.066861 0.573725 -0.268673
C11   C     C_R   0.495814 0.872163 0.500098 -0.180766
C12   C     C_R   0.504185 0.127837 0.499902 -0.180766
C13   C     C_R   0.599991 0.575754 0.084730 -0.011287
C14   C     C_R   0.400009 0.424246 0.915270 -0.011287
C15   C     C_R   0.599926 0.575738 0.940877 -0.033016
C16   C     C_R   0.400074 0.424262 0.059123 -0.033016
H1    H     H_    0.678253 0.880394 0.371267 0.192208
H2    H     H_    0.321747 0.119606 0.628733 0.192208
H3    H     H_    0.679950 0.636344 0.149434 0.138486
H4    H     H_    0.320050 0.363656 0.850565 0.138486
H5    H     H_    0.679830 0.636316 0.896640 0.135055
H6    H     H_    0.320170 0.363684 0.103360 0.135055
N1    N     N_R   0.499960 0.499970 0.857200 -0.084711
N2    N     N_R   0.500040 0.500030 0.142800 -0.084711
O1    O     O_R   0.499990 0.316750 0.614620 -0.634823
O2    O     O_R   0.500010 0.683250 0.385380 -0.634822
O3    O     O_R   0.499990 0.316780 0.385290 -0.577864
O4    O     O_R   0.500010 0.683220 0.614710 -0.577864
O5    O     O_R   0.271750 0.499990 0.587840 -0.554000
O6    O     O_R   0.728250 0.500010 0.412160 -0.554000
O7    O     O_R   0.271750 0.500010 0.358510 -0.651557
O8    O     O_R   0.728250 0.499990 0.641490 -0.651558
Zn1   Zn    Zn3+2 0.500000 0.499980 0.653120 1.016256
Zn2   Zn    Zn3+2 0.500000 0.500020 0.346880 1.016256
O9    O     O_3   0.963404 0.409765 0.339002 -0.722521
H7    H     H_    0.041316 0.378227 0.282614 0.351014
O10   O     O_3   0.036595 0.590235 0.660998 -0.722521
H8    H     H_    0.958684 0.621773 0.717386 0.351014
Cl1   Cl    Cl    0.744189 0.136330 0.338664 -0.545697
Cl2   Cl    Cl    0.255811 0.863669 0.661336 -0.545696

loop_
_geom_bond_atom_site_label_1
_geom_bond_atom_site_label_2
_ccdc_geom_bond_type
C14   N1    A    
C3    O7    A    
O10   H8    S    
C14   H4    S    
C2    O4    A    
O9    H7    S    
O6    Zn2   S    
O8    Zn1   S    
C15   N1    A    
C6    O10   S    
C16   N2    A    
C1    O1    A    
C9    C11   A    
C3    O5    A    
C4    O8    A    
C1    C12   S    
C10   C12   A    
C10   H2    S    
C8    C11   A    
C2    C11   S    
C5    O9    S    
C4    C6    S    
O4    Zn1   S    
C7    C9    A    
C13   C15   A    
O3    Zn2   S    
C5    C6    D    
C14   C16   A    
C7    C12   A    
O7    Zn2   S    
C13   H3    S    
O5    Zn1   S    
C15   H5    S    
C2    O2    A    
C9    H1    S    
C1    O3    A    
C7    Cl1   S    
C16   H6    S    
C8    Cl2   S    
N1    Zn1   S    
O2    Zn2   S    
C8    C10   A    
C4    O6    A    
C13   N2    A    
O1    Zn1   S    
C3    C5    S    
N2    Zn2   S    
