data_mof_unit_36143.cif
_audit_creation_date              2012-12-10T19:00:17-0500
_audit_creation_method            fapswitch 2.2
_symmetry_space_group_name_H-M    P1
_symmetry_Int_Tables_number       1
_space_group_crystal_system       triclinic
_cell_length_a                    9.533884
_cell_length_b                    10.808524
_cell_length_c                    13.444531
_cell_angle_alpha                 90.040447
_cell_angle_beta                  72.468922
_cell_angle_gamma                 90.023092
_cell_volume                      1321.07341201

loop_
_atom_site_label
_atom_site_type_symbol
_atom_type_description
_atom_site_fract_x
_atom_site_fract_y
_atom_site_fract_z
_atom_type_partial_charge
C1    C     C_R   0.502109 0.737628 0.495560 0.845516
C2    C     C_R   0.433258 0.479115 0.979796 0.082805
C3    C     C_R   0.471098 0.451792 0.871711 0.085270
C4    C     C_R   0.542006 0.464400 0.031811 0.074098
C5    C     C_R   0.680467 0.411388 0.978282 0.168961
C6    C     C_R   0.707990 0.370617 0.875996 -0.249042
C7    C     C_R   0.604200 0.388619 0.823993 -0.211049
C8    C     C_R   0.518118 0.502369 0.135242 -0.247981
C9    C     C_R   0.760051 0.431370 0.132654 -0.191812
C10   C     C_R   0.373511 0.487042 0.814972 -0.103838
C11   C     C_R   0.373659 0.935949 0.512495 0.112397
C12   C     C_R   0.421396 0.493269 0.700107 0.777754
C13   C     C_R   0.506235 0.870842 0.483532 -0.175880
C14   C     C_R   0.638594 0.937295 0.439288 0.254941
C15   C     C_R   0.635681 0.066565 0.441879 -0.243545
C16   C     C_R   0.503092 0.129518 0.487058 -0.151187
C17   C     C_R   0.371963 0.063011 0.513932 0.127652
C18   C     C_3   0.244149 0.067722 0.610922 -0.463018
C19   C     C_3   0.245813 0.927177 0.609260 -0.452571
C20   C     C_R   0.960521 0.447449 0.419476 0.273556
C21   C     C_R   0.894234 0.562565 0.573914 -0.035283
C22   C     C_R   0.043163 0.562430 0.574001 -0.075987
C23   C     C_R   0.500611 0.262380 0.497958 0.810765
C24   C     C_R   0.108069 0.447970 0.419220 0.262212
C25   C     C_3   0.129894 0.316704 0.384162 -0.485731
C26   C     C_3   0.970002 0.315382 0.386072 -0.515896
C27   C     C_R   0.578657 0.498028 0.299994 0.809385
C28   C     C_R   0.788959 0.397158 0.028528 -0.200780
C29   C     C_R   0.622986 0.481436 0.186836 -0.040186
C30   C     C_R   0.231146 0.527755 0.869003 -0.197780
C31   C     C_R   0.187864 0.540219 0.976633 -0.147760
C32   C     C_R   0.287790 0.518813 0.031614 -0.177685
Cu1   Cu    Cu3+1 0.359330 0.500020 0.500010 0.945961
Cu2   Cu    Cu3+1 0.640670 0.499980 0.499990 0.966722
H1    H     H_    0.842474 0.414534 0.171606 0.149044
H2    H     H_    0.737218 0.117151 0.410682 0.180075
H3    H     H_    0.273266 0.107966 0.678282 0.192963
H4    H     H_    0.144558 0.107753 0.596676 0.200279
H5    H     H_    0.275703 0.885485 0.675739 0.189579
H6    H     H_    0.147386 0.886290 0.593800 0.212368
H7    H     H_    0.812740 0.611509 0.634747 0.148668
H8    H     H_    0.073268 0.611047 0.634913 0.133077
H9    H     H_    0.208209 0.308091 0.304297 0.200744
H10   H     H_    0.152140 0.254273 0.443253 0.221001
H11   H     H_    0.955522 0.303757 0.307609 0.195675
H12   H     H_    0.810500 0.324702 0.835766 0.147291
H13   H     H_    0.901374 0.253951 0.447877 0.218212
H14   H     H_    0.894835 0.356786 0.987971 0.141506
H15   H     H_    0.153562 0.552638 0.827795 0.151792
H16   H     H_    0.246331 0.531321 0.114863 0.131435
H17   H     H_    0.077217 0.570477 0.017540 0.156398
H18   H     H_    0.628882 0.349027 0.746897 0.176003
N1    N     N_R   0.852320 0.499070 0.499340 -0.184512
N2    N     N_R   0.148230 0.499110 0.499340 -0.188104
O1    O     O_R   0.381190 0.680360 0.500000 -0.578671
O2    O     O_R   0.618780 0.680320 0.499990 -0.533911
O3    O     O_R   0.323230 0.500000 0.650990 -0.587469
O4    O     O_R   0.560820 0.499960 0.650980 -0.593060
O5    O     O_R   0.381220 0.319680 0.500010 -0.581047
O6    O     O_R   0.618810 0.319640 0.500000 -0.595061
O7    O     O_R   0.439180 0.500040 0.349020 -0.587318
O8    O     O_R   0.676770 0.500000 0.349010 -0.570170
H19   H     H_    0.417837 0.548034 0.178256 0.151781
Br1   Br    Br    0.826105 0.860271 0.375672 -0.529550

loop_
_geom_bond_atom_site_label_1
_geom_bond_atom_site_label_2
_ccdc_geom_bond_type
C17   C18   S    
Cu1   O1    S    
C2    C4    A    
Cu2   O2    S    
C6    C7    A    
C27   O8    A    
C27   C29   S    
C5    C28   A    
C6    H12   S    
C10   C30   A    
C31   C32   A    
Cu2   O6    S    
C9    C29   A    
C30   C31   A    
C4    C8    A    
C20   C26   S    
C12   O4    A    
C25   H9    S    
C2    C3    A    
C18   H4    S    
C28   H14   S    
C14   Br1   S    
Cu1   O5    S    
C3    C10   A    
C8    C29   A    
C13   C14   A    
C21   N1    A    
C4    C5    A    
C11   C13   A    
C32   H16   S    
C22   H8    S    
C19   H5    S    
C26   H13   S    
C21   H7    S    
C5    C6    A    
C10   C12   S    
C25   H10   S    
C2    C32   A    
C30   H15   S    
C7    H18   S    
Cu1   Cu2   S    
C16   C23   S    
C3    C7    A    
C22   N2    A    
C1    O1    A    
C23   O6    A    
Cu2   O4    S    
C1    O2    A    
C1    C13   S    
C19   H6    S    
C12   O3    A    
C8    H19   S    
C24   N2    A    
C15   C16   A    
C16   C17   A    
C15   H2    S    
Cu2   O8    S    
C24   C25   S    
Cu2   N1    S    
Cu1   O7    S    
C18   C19   S    
Cu1   N2    S    
C9    H1    S    
C14   C15   A    
C11   C19   S    
Cu1   O3    S    
C27   O7    A    
C23   O5    A    
C25   C26   S    
C21   C22   A    
C18   H3    S    
C11   C17   A    
C20   C24   A    
C9    C28   A    
C31   H17   S    
C20   N1    A    
C26   H11   S    
