data_mof_unit_49737.cif
_audit_creation_date              2012-12-10T17:59:50-0500
_audit_creation_method            fapswitch 2.2
_symmetry_space_group_name_H-M    P1
_symmetry_Int_Tables_number       1
_space_group_crystal_system       triclinic
_cell_length_a                    10.799423
_cell_length_b                    9.519341
_cell_length_c                    15.879527
_cell_angle_alpha                 89.932979
_cell_angle_beta                  90.051531
_cell_angle_gamma                 90.097244
_cell_volume                      1632.46508402

loop_
_atom_site_label
_atom_site_type_symbol
_atom_type_description
_atom_site_fract_x
_atom_site_fract_y
_atom_site_fract_z
_atom_type_partial_charge
C1    C     C_R   0.262519 0.499882 0.500060 0.803391
C2    C     C_R   0.937695 0.588766 0.556466 0.147486
C3    C     C_R   0.872394 0.499878 0.500234 -0.046751
C4    C     C_R   0.129400 0.499581 0.500274 -0.099844
C5    C     C_R   0.431413 0.074384 0.442612 -0.018359
C6    C     C_R   0.431531 0.925581 0.442549 -0.017213
C7    C     C_R   0.500488 0.500069 0.340137 0.821640
C8    C     C_R   0.567974 0.925670 0.557775 -0.025197
C9    C     C_R   0.568352 0.074441 0.557585 -0.021482
C10   C     C_R   0.737891 0.500043 0.500118 0.810110
C11   C     C_R   0.500180 0.499928 0.659829 0.826430
C12   C     C_3   0.646122 0.524603 0.951585 0.244518
C13   C     C_3   0.415142 0.612162 0.048714 -0.393487
C14   C     C_3   0.467248 0.354040 0.048655 -0.388952
C15   C     C_3   0.458733 0.356101 0.951091 -0.430229
C16   C     C_3   0.413003 0.608778 0.951504 -0.397047
C17   C     C_1   0.501816 0.499722 0.749392 -0.193026
C18   C     C_3   0.506235 0.500692 0.082703 0.289331
C19   C     C_3   0.508156 0.499397 0.917047 0.303373
C20   C     C_3   0.714133 0.656178 0.912050 -0.388488
C21   C     C_3   0.648336 0.799241 0.912400 -0.370048
C22   C     C_3   0.739279 0.919497 0.896169 -0.884387
C23   C     C_3   0.637908 0.537953 0.050225 -0.392423
C24   C     C_3   0.728569 0.391837 0.929809 -0.428993
C25   C     C_3   0.869438 0.407173 0.944468 -0.381434
C26   C     C_3   0.934817 0.265493 0.937543 -0.853453
C27   C     C_3   0.871835 0.318092 0.380815 -0.842745
C28   C     C_3   0.872988 0.680894 0.619994 -0.869538
C29   C     C_1   0.504095 0.499489 0.824869 -0.125262
C30   C     C_1   0.504282 0.500447 0.174904 -0.102403
C31   C     C_1   0.502415 0.500248 0.250458 -0.188840
C32   C     C_R   0.065910 0.409916 0.446105 -0.183659
C33   C     C_R   0.066420 0.588957 0.554661 -0.180146
C34   C     C_R   0.937162 0.410264 0.444319 0.136533
Cu1   Cu    Cu3+1 0.500020 0.640660 0.500000 0.939816
Cu2   Cu    Cu3+1 0.500020 0.359340 0.500000 0.938343
H1    H     H_    0.317998 0.578733 0.930790 0.165703
H2    H     H_    0.423934 0.715376 0.925751 0.153043
H3    H     H_    0.662211 0.646026 0.071090 0.153009
H4    H     H_    0.705965 0.468224 0.082090 0.152643
H5    H     H_    0.117310 0.342046 0.403949 0.139278
H6    H     H_    0.118191 0.656727 0.596840 0.146893
H7    H     H_    0.376145 0.130392 0.396761 0.116764
H8    H     H_    0.376398 0.869547 0.396624 0.120754
H9    H     H_    0.808968 0.925509 0.947542 0.252461
H10   H     H_    0.787439 0.904033 0.835082 0.257759
H11   H     H_    0.688309 0.020702 0.893823 0.242251
H12   H     H_    0.360365 0.340722 0.932006 0.174703
H13   H     H_    0.579519 0.802014 0.860480 0.223576
H14   H     H_    0.602921 0.818609 0.973893 0.221075
H15   H     H_    0.802563 0.671244 0.946786 0.198835
H16   H     H_    0.739055 0.632514 0.845561 0.191779
H17   H     H_    0.901154 0.192614 0.987217 0.250270
H18   H     H_    0.917642 0.218074 0.874702 0.259086
H19   H     H_    0.036126 0.280392 0.945762 0.237593
H20   H     H_    0.910125 0.478030 0.896184 0.216093
H21   H     H_    0.888641 0.451773 0.007715 0.215481
H22   H     H_    0.698349 0.300645 0.968222 0.208124
H23   H     H_    0.621873 0.869800 0.604351 0.120040
H24   H     H_    0.714865 0.362524 0.862685 0.194249
H25   H     H_    0.937975 0.269028 0.336147 0.215003
H26   H     H_    0.821846 0.231916 0.413464 0.253623
H27   H     H_    0.805475 0.381563 0.343281 0.222126
H28   H     H_    0.939161 0.727663 0.665695 0.218909
H29   H     H_    0.825798 0.768588 0.587153 0.244352
H30   H     H_    0.804538 0.618378 0.656440 0.218463
H31   H     H_    0.623293 0.130466 0.603625 0.121963
H32   H     H_    0.320324 0.591435 0.073307 0.167597
H33   H     H_    0.375724 0.323370 0.075185 0.168158
H34   H     H_    0.535242 0.273277 0.069175 0.161670
H35   H     H_    0.442793 0.718667 0.070686 0.157677
H36   H     H_    0.508241 0.264970 0.923508 0.156607
N1    N     N_R   0.500030 0.852070 0.500020 -0.156735
N2    N     N_R   0.500030 0.147930 0.500020 -0.157585
O1    O     O_R   0.319660 0.618740 0.500000 -0.581938
O2    O     O_R   0.319660 0.381260 0.500000 -0.579724
O3    O     O_R   0.500020 0.618840 0.379440 -0.578472
O4    O     O_R   0.500020 0.381160 0.379440 -0.581701
O5    O     O_R   0.680370 0.618830 0.500010 -0.577104
O6    O     O_R   0.680370 0.381170 0.500010 -0.582686
O7    O     O_R   0.500010 0.618730 0.620560 -0.581049
O8    O     O_R   0.500010 0.381270 0.620560 -0.578177

loop_
_geom_bond_atom_site_label_1
_geom_bond_atom_site_label_2
_ccdc_geom_bond_type
C17   C29   T    
C14   C18   S    
Cu1   Cu2   S    
C25   H20   S    
C26   H19   S    
C21   H13   S    
Cu1   O7    S    
C11   O7    A    
C15   C19   S    
C15   H36   S    
C12   C23   S    
Cu1   O1    S    
C13   C18   S    
C33   H6    S    
C20   H15   S    
C8    H23   S    
C5    C6    A    
C23   H4    S    
C5    N2    A    
C27   H25   S    
Cu1   N1    S    
Cu2   O8    S    
C8    C9    A    
C32   H5    S    
C18   C30   S    
Cu2   O2    S    
C16   H1    S    
C7    O3    A    
C22   H11   S    
C5    H7    S    
C27   C34   S    
C6    H8    S    
C21   C22   S    
C14   H34   S    
C25   H21   S    
C15   H12   S    
C26   H18   S    
C21   H14   S    
C11   O8    A    
C7    C31   S    
C18   C23   S    
C1    O1    A    
C24   C25   S    
Cu2   O6    S    
C10   O6    A    
C13   H35   S    
C3    C34   A    
C25   C26   S    
Cu1   O3    S    
C32   C34   A    
C28   H30   S    
C9    H31   S    
C27   H26   S    
C24   H24   S    
C12   C20   S    
C4    C32   A    
C27   H27   S    
C7    O4    A    
C28   H28   S    
C2    C33   A    
C22   H10   S    
C14   H33   S    
C9    N2    A    
C19   C29   S    
C26   H17   S    
C6    N1    A    
C4    C33   A    
C11   C17   S    
C1    O2    A    
C10   O5    A    
C12   C24   S    
C1    C4    S    
C28   H29   S    
C20   H16   S    
C3    C10   S    
Cu2   O4    S    
C30   C31   T    
C16   C19   S    
C23   H3    S    
C12   C19   S    
Cu1   O5    S    
C8    N1    A    
C2    C3    A    
C22   H9    S    
C20   C21   S    
C24   H22   S    
C13   C16   S    
C14   C15   S    
C2    C28   S    
Cu2   N2    S    
C16   H2    S    
C13   H32   S    
