data_mof_unit_46051.cif
_audit_creation_date              2012-12-11T15:36:44-0500
_audit_creation_method            fapswitch 2.2
_symmetry_space_group_name_H-M    P1
_symmetry_Int_Tables_number       1
_space_group_crystal_system       triclinic
_cell_length_a                    15.060154
_cell_length_b                    15.074885
_cell_length_c                    34.795016
_cell_angle_alpha                 91.226028
_cell_angle_beta                  91.736352
_cell_angle_gamma                 60.121544
_cell_volume                      6846.21851976

loop_
_atom_site_label
_atom_site_type_symbol
_atom_type_description
_atom_site_fract_x
_atom_site_fract_y
_atom_site_fract_z
_atom_type_partial_charge
C1    C     C_R   0.610874 0.302262 0.444157 0.543390
C2    C     C_R   0.746694 0.691714 0.183955 0.030490
C3    C     C_R   0.609053 0.155451 0.831406 0.031394
C4    C     C_R   0.680473 0.173446 0.851848 -0.118603
C5    C     C_R   0.711578 0.136796 0.889013 -0.124714
C6    C     C_R   0.590663 0.264058 0.775081 -0.128308
C7    C     C_R   0.594468 0.274883 0.735622 -0.123180
C8    C     C_R   0.599014 0.199522 0.710078 0.026832
C9    C     C_R   0.593897 0.115990 0.724362 -0.116899
C10   C     C_R   0.591049 0.104584 0.763949 -0.113517
C11   C     C_R   0.592248 0.177177 0.789738 0.028631
C12   C     C_R   0.545717 0.199812 0.641420 -0.121903
C13   C     C_R   0.831622 0.625592 0.162031 -0.126225
C14   C     C_R   0.549185 0.221913 0.602921 -0.125565
C15   C     C_R   0.691240 0.250359 0.618200 -0.125479
C16   C     C_R   0.686845 0.229550 0.656689 -0.122061
C17   C     C_R   0.611798 0.207671 0.668755 0.029156
C18   C     C_R   0.619568 0.251051 0.591248 0.022793
C19   C     C_R   0.044648 0.739485 0.048918 0.540054
C20   C     C_R   0.747680 0.746973 0.064243 0.543365
C21   C     C_R   0.751432 0.040057 0.050756 0.541074
C22   C     C_R   0.017384 0.722334 0.939871 0.544888
C23   C     C_R   0.717091 0.729971 0.954995 0.541722
C24   C     C_R   0.829701 0.639012 0.122371 -0.127432
C25   C     C_R   0.721253 0.024800 0.942152 0.542547
C26   C     C_R   0.784612 0.586706 0.243011 -0.117708
C27   C     C_R   0.775369 0.579781 0.282433 -0.115008
C28   C     C_R   0.731732 0.668397 0.305614 0.029267
C29   C     C_R   0.703294 0.763219 0.288987 -0.123872
C30   C     C_R   0.711811 0.770186 0.249529 -0.127572
C31   C     C_R   0.749663 0.682370 0.226107 0.023366
C32   C     C_R   0.608032 0.736023 0.359249 -0.119356
C33   C     C_R   0.593442 0.610312 0.449443 0.544554
C34   C     C_R   0.574062 0.721927 0.394194 -0.127039
C35   C     C_R   0.734973 0.564523 0.403742 -0.126941
C36   C     C_R   0.769155 0.578933 0.368864 -0.122314
C37   C     C_R   0.704604 0.662947 0.345652 0.032757
C38   C     C_R   0.635774 0.634163 0.416094 0.021153
C39   C     C_R   0.097859 0.730636 0.086231 0.021167
C40   C     C_R   0.136829 0.639461 0.107183 -0.126304
C41   C     C_R   0.155771 0.638967 0.146614 -0.122165
C42   C     C_R   0.138206 0.728868 0.165607 0.027143
C43   C     C_R   0.109443 0.817441 0.144365 -0.122418
C44   C     C_R   0.303756 0.591543 0.442367 0.542148
C45   C     C_R   0.089198 0.818444 0.104810 -0.128656
C46   C     C_R   0.215216 0.742133 0.228282 -0.126308
C47   C     C_R   0.222542 0.732962 0.268210 -0.130943
C48   C     C_R   0.153941 0.714116 0.288236 0.039114
C49   C     C_R   0.073110 0.710323 0.267854 0.004581
C50   C     C_R   0.067614 0.718155 0.227647 -0.100254
C51   C     C_R   0.139719 0.731621 0.207822 0.009338
C52   C     C_R   0.199432 0.592634 0.342436 -0.120024
C53   C     C_R   0.234589 0.563149 0.380109 -0.128818
C54   C     C_R   0.218867 0.728987 0.392916 -0.128849
C55   C     C_R   0.605456 0.300781 0.553815 0.541818
C56   C     C_R   0.182653 0.758762 0.355274 -0.127744
C57   C     C_R   0.174496 0.690085 0.329593 0.032185
C58   C     C_R   0.247673 0.629891 0.405397 0.021593
C59   C     C_R   0.725963 0.095578 0.087644 0.024097
C60   C     C_R   0.802861 0.100614 0.109811 -0.125945
C61   C     C_R   0.788407 0.125746 0.148770 -0.122897
C62   C     C_R   0.696558 0.147274 0.165926 0.031302
C63   C     C_R   0.616366 0.151458 0.142988 -0.120130
C64   C     C_R   0.631009 0.125646 0.104129 -0.125254
C65   C     C_R   0.597094 0.232349 0.224631 -0.117889
C66   C     C_R   0.587317 0.606202 0.559204 0.541620
C67   C     C_R   0.587479 0.238325 0.264409 -0.114669
C68   C     C_R   0.667898 0.168068 0.288234 0.028255
C69   C     C_R   0.757832 0.091151 0.271590 -0.120692
C70   C     C_R   0.767496 0.085268 0.231776 -0.116845
C71   C     C_R   0.687419 0.156270 0.208023 0.028615
C72   C     C_R   0.741954 0.177468 0.352122 -0.120189
C73   C     C_R   0.728357 0.209516 0.390399 -0.125731
C74   C     C_R   0.554192 0.240495 0.386608 -0.130155
C75   C     C_R   0.567817 0.208561 0.348298 -0.125502
C76   C     C_R   0.660322 0.181045 0.330326 0.031079
C77   C     C_R   0.298538 0.588806 0.551916 0.543712
C78   C     C_R   0.632864 0.245705 0.407439 0.021471
C79   C     C_R   0.690979 0.688765 0.920311 0.020700
C80   C     C_R   0.764585 0.595314 0.904188 -0.128717
C81   C     C_R   0.751688 0.569079 0.866570 -0.124726
C82   C     C_R   0.665071 0.635814 0.844430 0.031517
C83   C     C_R   0.586997 0.724285 0.861839 -0.120879
C84   C     C_R   0.599695 0.750388 0.899488 -0.127937
C85   C     C_R   0.569334 0.645770 0.782968 -0.121091
C86   C     C_R   0.564131 0.645101 0.742870 -0.119047
C87   C     C_R   0.651452 0.619236 0.721421 0.027208
C88   C     C_R   0.742582 0.718570 0.104070 0.021178
C89   C     C_R   0.744892 0.590383 0.740700 -0.117397
C90   C     C_R   0.750023 0.591572 0.780785 -0.114098
C91   C     C_R   0.661917 0.620909 0.802330 0.028740
C92   C     C_R   0.717205 0.541821 0.656901 -0.123401
C93   C     C_R   0.703491 0.540302 0.617081 -0.128712
C94   C     C_R   0.548390 0.705254 0.620691 -0.125789
C95   C     C_R   0.561843 0.706381 0.660473 -0.122539
C96   C     C_R   0.644369 0.623116 0.679023 0.031105
C97   C     C_R   0.616796 0.620271 0.598753 0.021594
C98   C     C_R   0.070699 0.696826 0.903271 0.024681
C99   C     C_R   0.655784 0.780913 0.125877 -0.124618
C100  C     C_R   0.107426 0.758855 0.889167 -0.127521
C101  C     C_R   0.143892 0.744232 0.851944 -0.127356
C102  C     C_R   0.143783 0.667688 0.828464 0.032091
C103  C     C_R   0.110826 0.603203 0.842971 -0.120405
C104  C     C_R   0.075614 0.616852 0.880336 -0.128355
C105  C     C_R   0.242090 0.575742 0.769532 0.007413
C106  C     C_R   0.249643 0.574022 0.729510 -0.098697
C107  C     C_R   0.181810 0.659248 0.707494 0.012457
C108  C     C_R   0.107997 0.748251 0.725529 -0.126812
C109  C     C_R   0.098819 0.750539 0.765213 -0.130813
C110  C     C_R   0.657991 0.767767 0.165441 -0.119344
C111  C     C_R   0.164006 0.664341 0.787355 0.039593
C112  C     C_R   0.205982 0.725486 0.646239 -0.121615
C113  C     C_R   0.232952 0.709231 0.607697 -0.128367
C114  C     C_R   0.217429 0.556494 0.606880 -0.124581
C115  C     C_R   0.191617 0.572237 0.645400 -0.122887
C116  C     C_R   0.189971 0.654308 0.665609 0.029181
C117  C     C_R   0.243536 0.621865 0.588258 0.022265
C118  C     C_R   0.672109 0.081223 0.906567 0.021227
C119  C     C_R   0.595033 0.069660 0.887374 -0.129830
C120  C     C_R   0.563908 0.106320 0.849969 -0.123405
Cr1   Cr    Cr6+3 0.426010 0.422500 0.497000 1.008636
Cr2   Cr    Cr6+3 0.651300 0.426310 0.501970 1.008581
Cr3   Cr    Cr6+3 0.422670 0.651170 0.501050 1.008636
Cr4   Cr    Cr6+3 0.905130 0.911420 0.992650 1.009360
Cr5   Cr    Cr6+3 0.911860 0.682710 0.002320 1.008893
Cr6   Cr    Cr6+3 0.682710 0.906840 0.004710 1.010109
H1    H     H_    0.587493 0.842801 0.112674 0.128066
H2    H     H_    0.497320 0.777001 0.402977 0.126938
H3    H     H_    0.900760 0.566261 0.175778 0.099755
H4    H     H_    0.784764 0.496714 0.420262 0.122891
H5    H     H_    0.144878 0.570411 0.093763 0.124821
H6    H     H_    0.058896 0.889980 0.089545 0.122277
H7    H     H_    0.164828 0.833884 0.345697 0.102924
H8    H     H_    0.284664 0.736297 0.283431 0.111679
H9    H     H_    0.270967 0.753003 0.213234 0.112223
H10   H     H_    0.178979 0.569756 0.162708 0.106027
H11   H     H_    0.898106 0.590226 0.106409 0.126556
H12   H     H_    0.007922 0.712332 0.211534 0.114002
H13   H     H_    0.197274 0.537170 0.322707 0.104348
H14   H     H_    0.257448 0.485861 0.388636 0.123880
H15   H     H_    0.095808 0.887394 0.158775 0.103154
H16   H     H_    0.228428 0.781980 0.411705 0.120682
H17   H     H_    0.876925 0.077582 0.097879 0.121638
H18   H     H_    0.570397 0.122636 0.087626 0.118686
H19   H     H_    0.504448 0.210001 0.332178 0.099847
H20   H     H_    0.518208 0.299744 0.276596 0.105975
H21   H     H_    0.534596 0.288066 0.206856 0.103346
H22   H     H_    0.844613 0.522385 0.359368 0.099976
H23   H     H_    0.850603 0.123883 0.165882 0.101748
H24   H     H_    0.820527 0.035726 0.289376 0.104393
H25   H     H_    0.837003 0.024382 0.219503 0.109374
H26   H     H_    0.813984 0.156787 0.338896 0.102540
H27   H     H_    0.790651 0.211926 0.405848 0.126454
H28   H     H_    0.544851 0.167815 0.155609 0.101288
H29   H     H_    0.479981 0.267140 0.399069 0.123592
H30   H     H_    0.835300 0.545605 0.919662 0.121950
H31   H     H_    0.541392 0.822752 0.911115 0.124316
H32   H     H_    0.505912 0.770963 0.676925 0.102011
H33   H     H_    0.796743 0.505791 0.294303 0.104242
H34   H     H_    0.491662 0.665358 0.728568 0.108379
H35   H     H_    0.500615 0.667373 0.798830 0.102577
H36   H     H_    0.811983 0.499235 0.854109 0.099247
H37   H     H_    0.813095 0.570468 0.724756 0.103594
H38   H     H_    0.822049 0.573900 0.794849 0.103086
H39   H     H_    0.781610 0.476830 0.670600 0.099885
H40   H     H_    0.757430 0.473569 0.601032 0.121609
H41   H     H_    0.519523 0.777494 0.845480 0.100543
H42   H     H_    0.480905 0.768162 0.607503 0.125486
H43   H     H_    0.104525 0.820907 0.906397 0.119837
H44   H     H_    0.813816 0.518074 0.225450 0.104828
H45   H     H_    0.046502 0.568885 0.890388 0.125035
H46   H     H_    0.177784 0.517600 0.659973 0.105895
H47   H     H_    0.308719 0.506384 0.715332 0.111479
H48   H     H_    0.168243 0.795146 0.840867 0.104261
H49   H     H_    0.055822 0.814737 0.708796 0.111267
H50   H     H_    0.038739 0.818843 0.778653 0.113983
H51   H     H_    0.204557 0.789471 0.661573 0.103267
H52   H     H_    0.252251 0.761079 0.594005 0.123166
H53   H     H_    0.107061 0.546008 0.824721 0.105295
H54   H     H_    0.590736 0.818134 0.181722 0.105194
H55   H     H_    0.223952 0.489050 0.592572 0.128889
H56   H     H_    0.563313 0.027087 0.900302 0.123698
H57   H     H_    0.770599 0.147440 0.903257 0.126173
H58   H     H_    0.739670 0.234242 0.677347 0.105843
H59   H     H_    0.595650 0.341347 0.725028 0.112213
H60   H     H_    0.589442 0.322260 0.794213 0.104256
H61   H     H_    0.507662 0.092679 0.835022 0.100436
H62   H     H_    0.596966 0.057284 0.705034 0.105540
H63   H     H_    0.593705 0.036131 0.774383 0.105741
H64   H     H_    0.487591 0.182584 0.650201 0.102551
H65   H     H_    0.671374 0.832403 0.306297 0.105663
H66   H     H_    0.493023 0.221881 0.582735 0.119232
H67   H     H_    0.717617 0.209957 0.838288 0.104766
H68   H     H_    0.746018 0.272973 0.610164 0.124964
H69   H     H_    0.686682 0.844531 0.237132 0.110967
H70   H     H_    0.555995 0.800959 0.341823 0.102421
O1    O     O_R   0.324990 0.503440 0.453910 -0.520716
O2    O     O_R   0.639980 0.519500 0.542640 -0.503277
O3    O     O_R   0.500750 0.673190 0.545480 -0.520162
O4    O     O_R   0.336260 0.640450 0.538210 -0.503132
O5    O     O_3   0.499990 0.499990 0.500010 -0.233893
O6    O     O_R   0.834210 0.019400 0.034570 -0.522428
O7    O     O_R   0.002210 0.824620 0.031030 -0.503193
O8    O     O_R   0.024400 0.669340 0.039790 -0.520262
O9    O     O_R   0.830490 0.694950 0.045870 -0.502601
O10   O     O_R   0.675430 0.831160 0.051290 -0.518048
O11   O     O_R   0.698870 0.998880 0.039560 -0.500634
O12   O     O_R   0.522030 0.339050 0.458320 -0.503660
O13   O     O_R   0.811290 0.006780 0.950620 -0.516685
O14   O     O_R   0.980960 0.812920 0.953200 -0.499737
O15   O     O_R   0.001480 0.656720 0.955830 -0.519883
O16   O     O_R   0.809240 0.683250 0.968050 -0.501671
O17   O     O_R   0.652500 0.818540 0.967340 -0.520434
O18   O     O_R   0.677620 0.987170 0.961730 -0.502334
O19   O     O_3   0.833240 0.833660 0.999890 -0.234973
O20   O     O_R   0.676180 0.324490 0.458320 -0.518702
O21   O     O_R   0.643570 0.521510 0.464260 -0.501183
O22   O     O_R   0.504630 0.675350 0.460920 -0.519044
O23   O     O_R   0.339850 0.642450 0.459830 -0.501055
O24   O     O_R   0.321120 0.501280 0.538470 -0.519573
O25   O     O_R   0.518440 0.337050 0.536710 -0.500404
O26   O     O_R   0.672300 0.322330 0.542880 -0.521041
C121  C     C_3   0.991948 0.699818 0.288267 -0.401507
H71   H     H_    0.929341 0.708990 0.268138 0.138985
H72   H     H_    0.025095 0.623270 0.301492 0.129071
H73   H     H_    0.957741 0.759707 0.310926 0.140847
C122  C     C_3   0.318715 0.484527 0.792526 -0.404016
H74   H     H_    0.379183 0.426137 0.774008 0.131977
H75   H     H_    0.356426 0.509090 0.814840 0.139232
H76   H     H_    0.280433 0.447566 0.806498 0.130446

loop_
_geom_bond_atom_site_label_1
_geom_bond_atom_site_label_2
_ccdc_geom_bond_type
C8    C9    A    
C15   C18   A    
C59   C60   A    
Cr5   O8    S    
C101  C102  A    
C22   C98   S    
Cr2   O21   S    
C53   H14   S    
C85   H35   S    
C41   C42   A    
C14   C18   A    
C95   C96   A    
C20   O10   A    
C72   C76   A    
C9    H62   S    
C25   C118  S    
C56   H7    S    
Cr5   O15   S    
C109  H50   S    
C7    C8    A    
C33   O22   A    
C75   H19   S    
C59   C64   A    
C62   C63   A    
C83   C84   A    
C69   H24   S    
C66   C97   S    
Cr3   O3    S    
C36   C37   A    
C21   C59   S    
C77   C117  S    
C69   C70   A    
C109  C111  A    
C60   H17   S    
C54   C58   A    
C79   C84   A    
C98   C104  A    
C106  C107  A    
C27   H33   S    
C15   C16   A    
C95   H32   S    
C108  H49   S    
C7    H59   S    
C92   C96   A    
C52   H13   S    
C108  C109  A    
C81   H36   S    
C1    O12   A    
C2    C13   A    
C118  C119  A    
C92   C93   A    
Cr6   O18   S    
C86   H34   S    
C46   H9    S    
C15   H68   S    
C92   H39   S    
C36   H22   S    
C2    C110  A    
C121  H71   S    
C44   C58   S    
C16   C17   A    
C72   H26   S    
C12   C17   A    
C74   H29   S    
C107  C108  A    
C29   H65   S    
C70   C71   A    
C65   H21   S    
C103  C104  A    
C9    C10   A    
C66   O3    A    
C32   H70   S    
C42   C51   S    
C55   O25   A    
C14   H66   S    
C113  H52   S    
C105  C111  A    
C44   O1    A    
C49   C121  S    
C1    C78   S    
C16   H58   S    
C101  H48   S    
C102  C103  A    
C44   O23   A    
Cr2   O26   S    
C20   O9    A    
C1    O20   A    
C112  C113  A    
Cr5   O16   S    
C25   O18   A    
C80   H30   S    
C85   C91   A    
C4    H67   S    
C54   C56   A    
C121  H73   S    
C10   H63   S    
C74   C75   A    
Cr3   O5    S    
Cr4   O7    S    
C67   C68   A    
C114  C117  A    
C47   C48   A    
Cr3   O4    S    
C48   C57   S    
C35   C38   A    
C72   C73   A    
C10   C11   A    
C94   H42   S    
C6    C11   A    
C22   O15   A    
C86   C87   A    
C68   C69   A    
C99   H1    S    
C64   H18   S    
C94   C97   A    
C65   C67   A    
C85   C86   A    
C99   C110  A    
C83   H41   S    
C46   C51   A    
C81   C82   A    
C82   C91   S    
C63   C64   A    
C13   C24   A    
Cr4   O6    S    
C60   C61   A    
C35   C36   A    
C32   C34   A    
C75   C76   A    
C29   C30   A    
Cr6   O17   S    
C43   C45   A    
C122  H74   S    
C110  H54   S    
Cr6   O11   S    
C73   C78   A    
C87   C96   S    
C67   H20   S    
C19   O7    A    
C50   C51   A    
C26   C27   A    
C94   C95   A    
C32   C37   A    
Cr2   O2    S    
C25   O13   A    
C102  C111  S    
C24   C88   A    
C35   H4    S    
Cr1   O1    S    
C66   O2    A    
C19   C39   S    
C18   C55   S    
C104  H45   S    
C53   C58   A    
C40   C41   A    
C122  H75   S    
Cr3   O22   S    
C12   C14   A    
C93   H40   S    
C49   C50   A    
C98   C100  A    
C55   O26   A    
C47   H8    S    
C74   C78   A    
Cr1   O24   S    
C113  C117  A    
C43   H15   S    
C42   C43   A    
C73   H27   S    
C3    C4    A    
C120  H61   S    
C93   C97   A    
C112  C116  A    
C52   C53   A    
Cr2   O5    S    
C84   H31   S    
C23   O17   A    
C3    C120  A    
C56   C57   A    
Cr3   O23   S    
C46   C47   A    
C28   C29   A    
C13   H3    S    
C54   H16   S    
C100  H43   S    
C34   C38   A    
C21   O6    A    
C40   H5    S    
C23   O16   A    
C33   C38   S    
C63   H28   S    
C80   C81   A    
C119  C120  A    
C121  H72   S    
C77   O24   A    
C114  C115  A    
C6    C7    A    
C33   O21   A    
C24   H11   S    
C68   C76   S    
C114  H55   S    
C12   H64   S    
C105  C106  A    
C6    H60   S    
C8    C17   S    
C39   C45   A    
C5    C118  A    
C21   O11   A    
C87   C89   A    
Cr1   O5    S    
C20   C88   S    
C30   H69   S    
C65   C71   A    
C89   H37   S    
Cr5   O19   S    
C90   C91   A    
C30   C31   A    
Cr4   O14   S    
C28   C37   S    
Cr6   O10   S    
C48   C49   A    
C4    C5    A    
C22   O14   A    
Cr5   O9    S    
C19   O8    A    
C106  H47   S    
Cr2   O20   S    
C62   C71   S    
C103  H53   S    
C105  C122  S    
C115  H46   S    
C61   C62   A    
C77   O4    A    
C107  C116  S    
C88   C99   A    
C3    C11   S    
C52   C57   A    
Cr6   O19   S    
C79   C80   A    
C39   C40   A    
C26   C31   A    
C122  H76   S    
C26   H44   S    
C45   H6    S    
C34   H2    S    
C82   C83   A    
Cr4   O13   S    
C90   H38   S    
C119  H56   S    
Cr1   O25   S    
C50   H12   S    
C2    C31   S    
C100  C101  A    
Cr1   O12   S    
C23   C79   S    
C89   C90   A    
C70   H25   S    
C61   H23   S    
C5    H57   S    
C41   H10   S    
C115  C116  A    
C112  H51   S    
C27   C28   A    
Cr4   O19   S    
