data_mof_unit_19661.cif
_audit_creation_date              2012-12-10T16:57:04-0500
_audit_creation_method            fapswitch 2.2
_symmetry_space_group_name_H-M    P1
_symmetry_Int_Tables_number       1
_space_group_crystal_system       triclinic
_cell_length_a                    7.980462
_cell_length_b                    8.610419
_cell_length_c                    16.574251
_cell_angle_alpha                 93.159838
_cell_angle_beta                  80.42833
_cell_angle_gamma                 92.659127
_cell_volume                      1120.53701522

loop_
_atom_site_label
_atom_site_type_symbol
_atom_type_description
_atom_site_fract_x
_atom_site_fract_y
_atom_site_fract_z
_atom_type_partial_charge
C1    C     C_R   0.544549 0.792819 0.494410 0.883451
C2    C     C_R   0.387072 0.476106 0.222125 -0.299236
C3    C     C_R   0.527874 0.248356 0.824562 -0.105971
C4    C     C_R   0.391406 0.445470 0.139229 -0.120454
C5    C     C_R   0.406849 0.306732 0.887971 0.000154
C6    C     C_R   0.544998 0.411906 0.088771 0.059368
C7    C     C_R   0.300857 0.424458 0.874585 -0.144411
C8    C     C_R   0.696076 0.416913 0.120937 -0.341925
C9    C     C_R   0.325120 0.495043 0.799727 0.466062
C10   C     C_R   0.694405 0.451338 0.204650 0.455825
C11   C     C_2   0.431476 0.288380 0.972104 0.332768
C12   C     C_R   0.458223 0.205070 0.490629 0.842856
C13   C     C_2   0.549006 0.384703 0.000430 0.373143
C14   C     C_R   0.751176 0.000274 0.457596 0.194863
C15   C     C_R   0.847961 0.035555 0.519230 -0.098426
C16   C     C_R   0.007229 0.105150 0.499056 -0.136538
C17   C     C_R   0.066606 0.141400 0.417630 -0.086238
C18   C     C_R   0.975681 0.095282 0.355409 -0.107111
C19   C     C_R   0.820336 0.017735 0.375066 -0.135872
C20   C     C_R   0.400357 0.998873 0.379810 0.053880
C21   C     C_R   0.285936 0.873805 0.366290 -0.056368
C22   C     C_R   0.247907 0.837072 0.287937 -0.168708
C23   C     C_2   0.572190 0.953386 0.481263 -0.246435
C24   C     C_R   0.323809 0.923081 0.221777 -0.112196
C25   C     C_R   0.434839 0.048655 0.234163 -0.105880
C26   C     C_R   0.471368 0.087316 0.312534 -0.228796
C27   C     C_2   0.448190 0.039020 0.462822 -0.195867
C28   C     C_R   0.475793 0.494766 0.653705 0.829603
C29   C     C_R   0.523582 0.497160 0.345416 0.833298
C30   C     C_R   0.454210 0.440868 0.736549 -0.143630
C31   C     C_R   0.536790 0.478755 0.256070 -0.081164
C32   C     C_R   0.551198 0.314871 0.749201 -0.190992
H1    H     H_    0.646551 0.268165 0.700753 0.168043
H2    H     H_    0.243475 0.137992 0.990913 0.340677
H3    H     H_    0.796489 0.016468 0.582797 0.117605
H4    H     H_    0.078927 0.134046 0.547737 0.173263
H5    H     H_    0.185734 0.201975 0.400577 0.153561
H6    H     H_    0.026573 0.118382 0.292329 0.159058
H7    H     H_    0.753569 0.974892 0.326438 0.140875
H8    H     H_    0.215004 0.811655 0.416397 0.193457
H9    H     H_    0.154965 0.744972 0.279058 0.172014
H10   H     H_    0.293984 0.894303 0.161239 0.159173
H11   H     H_    0.492900 0.116045 0.182968 0.176999
H12   H     H_    0.265102 0.495710 0.259482 0.191491
H13   H     H_    0.559828 0.183433 0.320398 0.145377
H14   H     H_    0.111537 0.425134 0.382402 0.332732
H15   H     H_    0.051119 0.635826 0.624805 0.357087
H16   H     H_    0.210942 0.472423 0.925100 0.152028
H17   H     H_    0.814867 0.393463 0.080815 0.149047
H18   H     H_    0.274317 0.448255 0.114415 0.158241
H19   H     H_    0.612564 0.159747 0.835378 0.151202
H20   H     H_    0.940522 0.433997 0.192361 0.319868
H21   H     H_    0.284508 0.683847 0.747753 0.326759
H22   H     H_    0.725831 0.547550 0.976938 0.342330
N1    N     N_2   0.953500 0.457650 0.478520 0.188885
N2    N     N_2   0.046500 0.542350 0.521480 0.124175
O1    O     O_R   0.388470 0.738640 0.505270 -0.640049
O2    O     O_3   0.226923 0.619994 0.792817 -0.755725
O3    O     O_3   0.662185 0.470658 0.945719 -0.771805
O4    O     O_3   0.322976 0.193591 0.023654 -0.818596
O5    O     O_3   0.002537 0.473504 0.397853 -0.639270
O6    O     O_3   0.962473 0.588527 0.594962 -0.645096
O7    O     O_R   0.611530 0.261360 0.494730 -0.600426
O8    O     O_R   0.679650 0.711510 0.491500 -0.573017
O9    O     O_R   0.320350 0.288490 0.508500 -0.650779
O10   O     O_R   0.337210 0.515200 0.623500 -0.619111
O11   O     O_R   0.662790 0.484800 0.376500 -0.498281
O12   O     O_R   0.628380 0.488060 0.609730 -0.547340
O13   O     O_R   0.371620 0.511940 0.390270 -0.677876
O14   O     O_3   0.843884 0.456727 0.236747 -0.734524
Zn1   Zn    Zn3+2 0.305580 0.518120 0.509190 0.960041
Zn2   Zn    Zn3+2 0.694420 0.481880 0.490810 1.098849

loop_
_geom_bond_atom_site_label_1
_geom_bond_atom_site_label_2
_ccdc_geom_bond_type
C14   C23   S    
C2    H12   S    
C2    C4    A    
H21   O2    S    
C5    C7    A    
C24   C25   A    
C5    C11   S    
O10   Zn1   S    
C13   O3    S    
C20   C27   S    
C1    O1    A    
C24   H10   S    
C12   O9    A    
C2    C31   A    
C28   O10   A    
N1    Zn2   S    
H2    O4    S    
C4    H18   S    
O12   Zn2   S    
N2    Zn1   S    
C7    H16   S    
C25   H11   S    
H15   O6    S    
C28   C30   S    
C17   C18   A    
C18   H6    S    
C29   C31   S    
C17   H5    S    
C21   C22   A    
O1    Zn1   S    
C6    C13   S    
C30   C32   A    
C11   C13   D    
N2    O6    S    
C21   H8    S    
C20   C26   A    
C9    C30   A    
C19   H7    S    
C4    C6    A    
O7    Zn2   S    
C28   O12   A    
C1    C23   S    
C29   O13   A    
H22   O3    S    
O8    Zn2   S    
C3    C32   A    
C22   C24   A    
N1    N2    D    
C8    H17   S    
C22   H9    S    
H20   O14   S    
N1    O5    S    
H14   O5    S    
C15   C16   A    
C1    O8    A    
C10   O14   S    
O11   Zn2   S    
C20   C21   A    
O13   Zn1   S    
C9    O2    S    
C15   H3    S    
C7    C9    A    
C12   O7    A    
C3    H19   S    
C14   C15   A    
C18   C19   A    
C6    C8    A    
C12   C27   S    
C26   H13   S    
C25   C26   A    
C29   O11   A    
C14   C19   A    
C8    C10   A    
C16   H4    S    
C23   C27   D    
C11   O4    S    
C32   H1    S    
O9    Zn1   S    
C16   C17   A    
C3    C5    A    
C10   C31   A    
