data_mof_unit_46889.cif
_audit_creation_date              2012-12-11T15:35:00-0500
_audit_creation_method            fapswitch 2.2
_symmetry_space_group_name_H-M    P1
_symmetry_Int_Tables_number       1
_space_group_crystal_system       triclinic
_cell_length_a                    30.623562
_cell_length_b                    7.245879
_cell_length_c                    25.860823
_cell_angle_alpha                 90.187955
_cell_angle_beta                  111.881339
_cell_angle_gamma                 90.221669
_cell_volume                      5324.86280695

loop_
_atom_site_label
_atom_site_type_symbol
_atom_type_description
_atom_site_fract_x
_atom_site_fract_y
_atom_site_fract_z
_atom_type_partial_charge
O1    O     O_R   0.295360 0.592990 0.320420 -0.519388
O2    O     O_R   0.704640 0.407010 0.679580 -0.512860
O3    O     O_R   0.204640 0.092990 0.179580 -0.518640
O4    O     O_R   0.795360 0.907010 0.820420 -0.510635
O5    O     O_R   0.294060 0.265620 0.213230 -0.501298
O6    O     O_R   0.705940 0.734380 0.786770 -0.509348
O7    O     O_R   0.205940 0.765620 0.286770 -0.505595
O8    O     O_R   0.794060 0.234380 0.713230 -0.521837
C1    C     C_R   0.303634 0.431831 0.198661 0.805719
C2    C     C_R   0.696281 0.567938 0.800876 0.813207
C3    C     C_R   0.195930 0.932150 0.300723 0.796382
C4    C     C_R   0.803922 0.067943 0.699493 0.817211
O9    O     O_R   0.300850 0.263360 0.322080 -0.554345
O10   O     O_R   0.699150 0.736640 0.677920 -0.552629
O11   O     O_R   0.199150 0.763360 0.177920 -0.553998
O12   O     O_R   0.800850 0.236640 0.822080 -0.556849
O13   O     O_R   0.211480 0.091820 0.289210 -0.549992
O14   O     O_R   0.788520 0.908180 0.710790 -0.547667
O15   O     O_R   0.288520 0.591820 0.210790 -0.544664
O16   O     O_R   0.711480 0.408180 0.789210 -0.546367
C5    C     C_R   0.312972 0.432075 0.343500 0.857454
C6    C     C_R   0.687029 0.567765 0.656537 0.841929
C7    C     C_R   0.186704 0.930979 0.156745 0.868059
C8    C     C_R   0.813279 0.069075 0.843343 0.863178
O17   O     O_3   0.220670 0.426670 0.239090 -0.378635
O18   O     O_3   0.779330 0.573330 0.760910 -0.383117
O19   O     O_3   0.279330 0.926670 0.260910 -0.375045
O20   O     O_3   0.720670 0.073330 0.739090 -0.376464
V1    V     V_3+5 0.255440 0.152290 0.252020 1.590128
V2    V     V_3+5 0.744560 0.847710 0.747980 1.585338
V3    V     V_3+5 0.244560 0.652290 0.247980 1.590936
V4    V     V_3+5 0.755440 0.347710 0.752020 1.569598
C9    C     C_R   0.850925 0.065287 0.899714 -0.269558
C10   C     C_R   0.149044 0.935039 0.100502 -0.277758
C11   C     C_R   0.649786 0.556816 0.600048 -0.279819
C12   C     C_R   0.350710 0.442436 0.399697 -0.289399
C13   C     C_R   0.874000 0.103951 0.999914 0.444165
C14   C     C_R   0.126233 0.900980 0.000293 0.434056
C15   C     C_R   0.629432 0.500815 0.501039 0.457779
C16   C     C_R   0.371949 0.491692 0.499165 0.434698
C17   C     C_R   0.840053 0.119396 0.945695 0.329336
C18   C     C_R   0.160389 0.887777 0.054377 0.311274
C19   C     C_R   0.662883 0.546988 0.553513 0.338552
C20   C     C_R   0.338528 0.441487 0.447010 0.319490
C21   C     C_R   0.897651 0.017581 0.907430 0.269883
C22   C     C_R   0.102039 0.976853 0.093110 0.273151
C23   C     C_R   0.601758 0.543232 0.592634 0.283193
C24   C     C_R   0.398411 0.463847 0.406294 0.281134
C25   C     C_R   0.933899 0.025855 0.961852 -0.068045
C26   C     C_R   0.065779 0.969794 0.038562 -0.068153
C27   C     C_R   0.566443 0.522150 0.537779 -0.071382
C28   C     C_R   0.434011 0.484962 0.460887 -0.070953
C29   C     C_R   0.919770 0.038653 0.008155 -0.201686
C30   C     C_R   0.080017 0.960643 0.992172 -0.199032
C31   C     C_R   0.581621 0.472880 0.493844 -0.203519
C32   C     C_R   0.419106 0.529528 0.505286 -0.197236
C33   C     C_R   0.983375 0.014886 0.972676 0.039853
C34   C     C_R   0.016213 0.979401 0.027664 0.037838
C35   C     C_R   0.516731 0.537597 0.525117 0.041968
C36   C     C_R   0.483670 0.472239 0.473089 0.040633
C37   C     C_R   0.997925 0.940417 0.068801 -0.120613
C38   C     C_R   0.001437 0.053920 0.931396 -0.118237
C39   C     C_R   0.501324 0.382586 0.436931 -0.115142
C40   C     C_R   0.498904 0.628052 0.561042 -0.112767
C41   C     C_R   0.951234 0.977609 0.060632 0.407206
C42   C     C_R   0.048245 0.020080 0.939628 0.407631
C43   C     C_R   0.548843 0.389885 0.445120 0.424994
C44   C     C_R   0.451532 0.616339 0.553440 0.422959
H1    H     H_    0.019326 0.875978 0.107447 0.214522
H2    H     H_    0.979677 0.116358 0.892534 0.212806
H3    H     H_    0.478537 0.300857 0.402387 0.212481
H4    H     H_    0.521428 0.712213 0.595110 0.212982
C45   C     C_R   0.073005 0.141716 0.453761 0.676358
C46   C     C_R   0.921478 0.892399 0.540813 0.708886
C47   C     C_R   0.412280 0.589489 0.026683 0.650029
C48   C     C_R   0.588008 0.444617 0.972971 0.664063
N1    N     N_R   0.069295 0.993806 0.419114 -0.541787
N2    N     N_R   0.924433 0.042248 0.574284 -0.526470
N3    N     N_R   0.426054 0.490784 0.075147 -0.527978
N4    N     N_R   0.572820 0.531646 0.922509 -0.526450
C49   C     C_R   0.037068 0.855734 0.413884 0.732982
C50   C     C_R   0.955516 0.183352 0.578370 0.657682
C51   C     C_R   0.468633 0.403040 0.095118 0.741196
C52   C     C_R   0.529475 0.613440 0.901482 0.679832
C53   C     C_R   0.007961 0.859611 0.445518 -0.152910
C54   C     C_R   0.984814 0.179196 0.546944 -0.126110
C55   C     C_R   0.499536 0.411876 0.065830 -0.143361
C56   C     C_R   0.499276 0.610390 0.931761 -0.129184
C57   C     C_R   0.011021 0.013605 0.480492 -0.080855
C58   C     C_R   0.981964 0.024597 0.512204 -0.071387
C59   C     C_R   0.484954 0.508776 0.014809 -0.066683
C60   C     C_R   0.514311 0.517151 0.983413 -0.062016
C61   C     C_R   0.043236 0.156640 0.483934 -0.066905
C62   C     C_R   0.950270 0.880076 0.509396 -0.061601
C63   C     C_R   0.441090 0.598210 0.995213 -0.071140
C64   C     C_R   0.558745 0.432210 0.003792 -0.079651
C65   C     C_R   0.975876 0.715169 0.443058 0.454711
C66   C     C_R   0.017031 0.323197 0.549544 0.445136
C67   C     C_R   0.544484 0.328135 0.085958 0.469374
C68   C     C_R   0.454625 0.696526 0.912054 0.464234
C69   C     C_R   0.948124 0.725722 0.475639 -0.173010
C70   C     C_R   0.045341 0.311193 0.517644 -0.166249
C71   C     C_R   0.573176 0.337309 0.054555 -0.218017
C72   C     C_R   0.426731 0.693487 0.944512 -0.220216
O21   O     O_2   0.105979 0.272838 0.459763 -0.477624
O22   O     O_2   0.890669 0.755600 0.537937 -0.532440
O23   O     O_2   0.370484 0.676994 0.008622 -0.520998
O24   O     O_2   0.631537 0.371551 0.993494 -0.519083
O25   O     O_2   0.033145 0.715797 0.377883 -0.421904
O26   O     O_2   0.957967 0.326469 0.612838 -0.462156
O27   O     O_2   0.480832 0.308041 0.143163 -0.435111
O28   O     O_2   0.516039 0.698574 0.851712 -0.450067
H5    H     H_    0.925202 0.610578 0.474828 0.158526
H6    H     H_    0.068663 0.425425 0.518939 0.175596
H7    H     H_    0.606906 0.268405 0.070252 0.179931
H8    H     H_    0.393422 0.765485 0.929345 0.171897
C73   C     C_R   0.910292 0.989672 0.661308 0.422288
C74   C     C_R   0.100395 0.107437 0.348591 0.438183
C75   C     C_R   0.597101 0.423142 0.846297 0.377802
C76   C     C_R   0.391416 0.619720 0.139878 0.429322
C77   C     C_R   0.880509 0.994344 0.691299 -0.264982
C78   C     C_R   0.131789 0.091239 0.320947 -0.223491
C79   C     C_R   0.627571 0.432497 0.817265 -0.220476
C80   C     C_R   0.361614 0.602888 0.169505 -0.213523
H9    H     H_    0.893385 0.946437 0.733908 0.234042
H10   H     H_    0.130665 0.193179 0.289917 0.225083
H11   H     H_    0.621930 0.340381 0.782244 0.219776
H12   H     H_    0.359900 0.716366 0.196052 0.228706
C81   C     C_R   0.834482 0.061026 0.666783 -0.250994
C82   C     C_R   0.163279 0.942682 0.331397 -0.274638
C83   C     C_R   0.664870 0.560279 0.832721 -0.256649
C84   C     C_R   0.335096 0.441118 0.166291 -0.279229
C85   C     C_R   0.817935 0.120335 0.610980 0.249543
C86   C     C_R   0.163131 0.809613 0.371279 0.287760
C87   C     C_R   0.672138 0.677076 0.879078 0.256026
C88   C     C_R   0.338789 0.294474 0.131528 0.291197
C89   C     C_R   0.847824 0.117488 0.580639 0.373333
C90   C     C_R   0.133578 0.831256 0.401578 0.427934
C91   C     C_R   0.641157 0.669866 0.907893 0.406218
C92   C     C_R   0.367715 0.314013 0.100247 0.422461
C93   C     C_R   0.894194 0.051207 0.605811 0.143820
C94   C     C_R   0.101219 0.978337 0.389601 0.094008
C95   C     C_R   0.603641 0.541980 0.891734 0.140435
C96   C     C_R   0.394750 0.475502 0.105170 0.112472
Cl1   Cl    Cl    0.932875 0.919419 0.115672 -0.538214
Cl2   Cl    Cl    0.066145 0.080637 0.884381 -0.535591
Cl3   Cl    Cl    0.565248 0.270305 0.395576 -0.539832
Cl4   Cl    Cl    0.434562 0.734007 0.602820 -0.550008
Cl5   Cl    Cl    0.759058 0.190339 0.577594 -0.599140
Cl6   Cl    Cl    0.200333 0.615946 0.385964 -0.546739
Cl7   Cl    Cl    0.721788 0.823958 0.904518 -0.574097
Cl8   Cl    Cl    0.307048 0.085391 0.124367 -0.562339
O29   O     O_3   0.830352 0.162678 0.524732 -0.532822
C97   C     C_3   0.835978 0.354137 0.519721 -0.047387
H13   H     H_    0.873751 0.391992 0.533361 0.157702
H14   H     H_    0.818831 0.436227 0.543293 0.180638
H15   H     H_    0.818999 0.391982 0.475159 0.158568
O30   O     O_3   0.134300 0.700722 0.440786 -0.483182
C98   C     C_3   0.165081 0.762598 0.493587 -0.097015
H16   H     H_    0.152369 0.892503 0.506095 0.093911
H17   H     H_    0.201522 0.781879 0.494746 0.150818
H18   H     H_    0.166358 0.656114 0.524831 0.167350
O31   O     O_3   0.650053 0.775545 0.955329 -0.520479
C99   C     C_3   0.626758 0.945624 0.939887 -0.041140
H19   H     H_    0.588382 0.927402 0.916128 0.145368
H20   H     H_    0.642643 0.030131 0.915523 0.182847
H21   H     H_    0.630779 0.022610 0.978458 0.187821
O32   O     O_3   0.372496 0.168704 0.067969 -0.490189
C100  C     C_3   0.338051 0.185193 0.013826 -0.066643
H22   H     H_    0.343587 0.311808 0.992919 0.105188
H23   H     H_    0.301810 0.183648 0.014124 0.156714
H24   H     H_    0.341071 0.065264 0.988627 0.187681
Cl9   Cl    Cl    0.092612 0.073858 0.151170 -0.646584
Cl10  Cl    Cl    0.906851 0.911477 0.850521 -0.664111
Cl11  Cl    Cl    0.410212 0.505244 0.345129 -0.623794
Cl12  Cl    Cl    0.589113 0.508990 0.653583 -0.633953
O33   O     O_3   0.206847 0.854576 0.061820 -0.512488
C101  C     C_3   0.214839 0.662607 0.063549 -0.075110
H25   H     H_    0.195042 0.583789 0.084803 0.083333
H26   H     H_    0.252818 0.638399 0.087107 0.156553
H27   H     H_    0.206610 0.607816 0.020865 0.146358
O34   O     O_3   0.794057 0.162395 0.938034 -0.507726
C102  C     C_3   0.788495 0.355761 0.936263 -0.035566
H28   H     H_    0.750927 0.386585 0.912466 0.157236
H29   H     H_    0.809398 0.428595 0.915207 0.085443
H30   H     H_    0.797151 0.411717 0.978892 0.166692
O35   O     O_3   0.292500 0.413642 0.442286 -0.505058
C103  C     C_3   0.281813 0.222865 0.437221 -0.082605
H31   H     H_    0.313015 0.131080 0.454884 0.078808
H32   H     H_    0.262515 0.186820 0.392882 0.140832
H33   H     H_    0.257999 0.192874 0.459661 0.166969
O36   O     O_3   0.709624 0.558187 0.559489 -0.509928
C104  C     C_3   0.724560 0.744203 0.565708 -0.104787
H34   H     H_    0.744624 0.774617 0.610286 0.147011
H35   H     H_    0.695554 0.846295 0.548691 0.128702
H36   H     H_    0.748903 0.764054 0.543367 0.188887
O37   O     O_3   0.861484 0.155109 0.044112 -0.500796
C105  C     C_3   0.883313 0.325897 0.065752 -0.038693
H37   H     H_    0.878331 0.430540 0.032595 0.075016
H38   H     H_    0.921513 0.308611 0.090085 0.168677
H39   H     H_    0.867200 0.381386 0.094484 0.190453
O38   O     O_3   0.139070 0.853966 0.956024 -0.508658
C106  C     C_3   0.118855 0.680611 0.934628 -0.053234
H40   H     H_    0.080370 0.692056 0.911006 0.174603
H41   H     H_    0.125477 0.575064 0.967877 0.076584
H42   H     H_    0.134946 0.630082 0.905302 0.180744
O39   O     O_3   0.644786 0.479814 0.457408 -0.494545
C107  C     C_3   0.635793 0.644658 0.426330 -0.021127
H43   H     H_    0.655917 0.762727 0.451784 0.111945
H44   H     H_    0.597568 0.677232 0.408688 0.147535
H45   H     H_    0.647466 0.626607 0.390861 0.172944
O40   O     O_3   0.357272 0.505663 0.543539 -0.506689
C108  C     C_3   0.369877 0.342726 0.575348 -0.027737
H46   H     H_    0.408626 0.321299 0.592321 0.156365
H47   H     H_    0.351746 0.219925 0.550727 0.105371
H48   H     H_    0.358632 0.355424 0.611306 0.168835
O41   O     O_3   0.974833 0.555316 0.413143 -0.524334
C109  C     C_3   0.932038 0.546618 0.366732 -0.082766
H49   H     H_    0.933720 0.429046 0.339966 0.193360
H50   H     H_    0.926147 0.674015 0.341062 0.143012
H51   H     H_    0.901811 0.520844 0.379725 0.092087
O42   O     O_3   0.018181 0.483024 0.579497 -0.528811
C110  C     C_3   0.060412 0.488587 0.626741 -0.090540
H52   H     H_    0.065013 0.361337 0.652264 0.150145
H53   H     H_    0.058864 0.607120 0.653253 0.197728
H54   H     H_    0.091344 0.510694 0.614791 0.085701
O43   O     O_3   0.559736 0.227991 0.134860 -0.519059
C111  C     C_3   0.592563 0.335975 0.177202 -0.074095
H55   H     H_    0.602452 0.260399 0.217146 0.187151
H56   H     H_    0.577186 0.470359 0.182613 0.145228
H57   H     H_    0.625269 0.359185 0.168877 0.107140
O44   O     O_3   0.439260 0.795188 0.862873 -0.519784
C112  C     C_3   0.404852 0.689555 0.821480 -0.077864
H58   H     H_    0.418670 0.551844 0.816032 0.153437
H59   H     H_    0.394940 0.763163 0.781210 0.185096
H60   H     H_    0.372445 0.673417 0.830897 0.090617
Cl13  Cl    Cl    0.967592 0.902890 0.693750 -0.502071
Cl14  Cl    Cl    0.059098 0.287603 0.329238 -0.448570
Cl15  Cl    Cl    0.551373 0.258581 0.825709 -0.550929
Cl16  Cl    Cl    0.425440 0.821694 0.148084 -0.448928

loop_
_geom_bond_atom_site_label_1
_geom_bond_atom_site_label_2
_ccdc_geom_bond_type
C92   O32   S    
C51   C55   A    
C106  H40   S    
O1    C5    A    
C55   C59   A    
O19   V1    S    
C9    C21   A    
C100  H22   S    
C46   C62   A    
O3    C7    A    
C110  H52   S    
C76   C96   A    
C45   C61   A    
C88   C92   A    
C11   C23   A    
C90   O30   S    
C111  H56   S    
C101  H25   S    
C33   C34   A    
C110  H54   S    
C47   C63   A    
C33   C38   A    
C5    C12   S    
C108  H46   S    
C63   C72   A    
C85   C89   A    
C6    C11   S    
C106  H41   S    
C80   C84   A    
O5    C1    A    
C52   O28   S    
C36   C39   A    
C50   O26   S    
O9    V1    S    
C99   H19   S    
C14   C18   A    
C83   C87   A    
C102  H29   S    
C98   H16   S    
O4    C8    A    
C25   C29   A    
C101  H26   S    
C1    C84   S    
C18   O33   S    
C86   Cl6   S    
O1    V3    S    
O13   V1    S    
C31   C43   A    
C38   H2    S    
O2    V4    S    
C74   C78   A    
C32   C44   A    
O3    V1    S    
C73   C77   A    
O34   C102  S    
N1    C94   S    
C54   C58   A    
C28   C36   A    
C2    C83   S    
C91   C95   A    
C1    O15   A    
C68   C72   A    
C15   C31   A    
O31   C99   S    
C103  H32   S    
C2    O16   A    
C107  H43   S    
C16   C32   A    
C10   C18   A    
O2    C6    A    
C98   H17   S    
C105  H37   S    
C10   C22   A    
N1    C49   A    
O8    C4    A    
C46   N2    A    
C11   C19   A    
C112  H58   S    
C16   C20   A    
O5    V1    S    
C23   Cl12  S    
C44   Cl4   S    
N4    C52   A    
C80   H12   S    
C24   Cl11  S    
C13   C29   A    
C74   Cl14  S    
C34   C37   A    
O11   C7    A    
O15   V3    S    
C35   C36   A    
C48   O24   S    
C72   H8    S    
C57   C61   A    
C100  H23   S    
C16   O40   S    
C82   C86   A    
O10   V2    S    
C111  H55   S    
C88   Cl8   S    
C58   C62   A    
C55   C67   A    
C108  H47   S    
C60   C64   A    
C75   C95   A    
C106  H42   S    
C39   C43   A    
C98   H18   S    
O7    V3    S    
O38   C106  S    
C38   C42   A    
O9    C5    A    
O39   C107  S    
O8    V4    S    
O14   V2    S    
C56   C60   A    
C47   O23   S    
C68   O44   S    
C85   Cl5   S    
C62   C69   A    
C97   H15   S    
C67   C71   A    
C4    C81   S    
N2    C93   S    
C77   C81   A    
C59   C60   A    
C53   C57   A    
O18   V4    S    
C15   C19   A    
C27   C31   A    
C104  H35   S    
O41   C109  S    
C50   C54   A    
C59   C63   A    
O4    V2    S    
C15   O39   S    
C103  H31   S    
C26   C34   A    
C78   H10   S    
O7    C3    A    
C102  H28   S    
C77   H9    S    
C71   H7    S    
C70   H6    S    
C46   O22   S    
N2    C50   A    
C45   O21   S    
O43   C111  S    
C14   C30   A    
C21   C25   A    
C84   C88   A    
N4    C95   S    
C65   C69   A    
C105  H39   S    
C35   C40   A    
C22   Cl9   S    
C89   O29   S    
C26   C30   A    
C112  H59   S    
C97   H13   S    
C56   C68   A    
C76   Cl16  S    
C81   C85   A    
C107  H44   S    
O32   C100  S    
O6    V2    S    
C39   H3    S    
C19   O36   S    
C104  H34   S    
C13   O37   S    
C91   O31   S    
C103  H33   S    
C43   Cl3   S    
O30   C98   S    
C100  H24   S    
C51   O27   S    
C17   O34   S    
C12   C20   A    
C27   C35   A    
C41   Cl1   S    
C3    C82   S    
C40   C44   A    
C79   H11   S    
C29   C41   A    
C73   C93   A    
C109  H51   S    
O16   V4    S    
C108  H48   S    
C37   H1    S    
C89   C93   A    
C3    O13   A    
C7    C10   S    
C79   C83   A    
C97   H14   S    
O17   V3    S    
C99   H21   S    
C48   N4    A    
C49   O25   S    
C74   C94   A    
C61   C70   A    
C86   C90   A    
C25   C33   A    
C23   C27   A    
C110  H53   S    
O11   V3    S    
C30   C42   A    
C75   C79   A    
O12   V4    S    
C22   C26   A    
C8    C9    S    
C69   H5    S    
N3    C96   S    
C109  H50   S    
C102  H30   S    
C87   C91   A    
C9    C17   A    
O36   C104  S    
O10   C6    A    
C99   H20   S    
C57   C58   A    
O35   C103  S    
C66   C70   A    
C21   Cl10  S    
C48   C64   A    
C104  H36   S    
N3    C51   A    
C75   Cl15  S    
C109  H49   S    
C52   C56   A    
C107  H45   S    
C87   Cl7   S    
C66   O42   S    
C90   C94   A    
O44   C112  S    
C76   C80   A    
O20   V2    S    
C12   C24   A    
C65   O41   S    
C40   H4    S    
C13   C17   A    
O37   C105  S    
C54   C66   A    
C112  H60   S    
C67   O43   S    
C42   Cl2   S    
C101  H27   S    
C53   C65   A    
O6    C2    A    
C20   O35   S    
C73   Cl13  S    
C37   C41   A    
C24   C28   A    
O40   C108  S    
O12   C8    A    
O33   C101  S    
C14   O38   S    
C64   C71   A    
C4    O14   A    
C45   N1    A    
C105  H38   S    
C92   C96   A    
C47   N3    A    
O42   C110  S    
C78   C82   A    
C111  H57   S    
C49   C53   A    
C28   C32   A    
O29   C97   S    
