data_mof_unit_9820.cif
_audit_creation_date              2012-12-10T19:09:02-0500
_audit_creation_method            fapswitch 2.2
_symmetry_space_group_name_H-M    P1
_symmetry_Int_Tables_number       1
_space_group_crystal_system       triclinic
_cell_length_a                    17.71323
_cell_length_b                    10.823467
_cell_length_c                    9.618625
_cell_angle_alpha                 89.720727
_cell_angle_beta                  89.574124
_cell_angle_gamma                 92.58114
_cell_volume                      1842.12210034

loop_
_atom_site_label
_atom_site_type_symbol
_atom_type_description
_atom_site_fract_x
_atom_site_fract_y
_atom_site_fract_z
_atom_type_partial_charge
C1    C     C_R   0.502245 0.262606 0.500199 0.792191
C2    C     C_R   0.885119 0.505993 0.499717 0.013283
C3    C     C_1   0.966340 0.513740 0.499182 0.027016
C4    C     C_1   0.034094 0.517746 0.500262 -0.007343
C5    C     C_R   0.153209 0.501656 0.629580 0.192754
C6    C     C_R   0.232134 0.497780 0.627415 -0.186130
C7    C     C_R   0.272822 0.509881 0.501814 -0.080788
C8    C     C_R   0.233750 0.530892 0.378085 -0.136981
C9    C     C_R   0.155288 0.534637 0.379033 -0.193985
C10   C     C_R   0.114901 0.519046 0.503692 0.123678
C11   C     C_R   0.505438 0.062931 0.624841 0.142485
C12   C     C_R   0.355715 0.502626 0.500508 0.803452
C13   C     C_R   0.511507 0.130023 0.500815 -0.102684
C14   C     C_R   0.529450 0.067105 0.378053 -0.185756
C15   C     C_R   0.528526 0.937915 0.377447 -0.187336
C16   C     C_R   0.510674 0.871209 0.500097 -0.129927
C17   C     C_R   0.505182 0.935566 0.624786 0.092693
C18   C     C_3   0.445789 0.924951 0.736284 -0.203592
C19   C     C_3   0.447003 0.065398 0.737107 -0.530832
C20   C     C_R   0.544843 0.583180 0.072134 0.242753
C21   C     C_R   0.450281 0.425351 0.076465 0.053107
C22   C     C_R   0.449226 0.426027 0.927779 0.202208
C23   C     C_R   0.502090 0.737550 0.499728 0.791560
C24   C     C_R   0.545240 0.582480 0.925693 0.288301
C25   C     C_3   0.629226 0.597246 0.919008 -0.512549
C26   C     C_3   0.628880 0.598379 0.076863 -0.491337
C27   C     C_R   0.643940 0.497444 0.499509 0.799654
C28   C     C_R   0.844817 0.581094 0.590972 0.194916
C29   C     C_R   0.766156 0.574994 0.588346 -0.240601
C30   C     C_R   0.726605 0.494513 0.498862 -0.079355
C31   C     C_R   0.766126 0.414599 0.410946 0.079101
C32   C     C_R   0.846236 0.423212 0.408532 -0.023496
Cu1   Cu    Cu3+1 0.500000 0.499980 0.640670 0.957578
Cu2   Cu    Cu3+1 0.500000 0.500020 0.359330 0.973156
H1    H     H_    0.538467 0.890767 0.280415 0.168785
H2    H     H_    0.391369 0.881942 0.699092 0.145004
H3    H     H_    0.393186 0.102971 0.700563 0.184228
H4    H     H_    0.470695 0.108098 0.833147 0.233918
H5    H     H_    0.656135 0.515000 0.875255 0.225559
H6    H     H_    0.648573 0.687350 0.872105 0.211560
H7    H     H_    0.655721 0.517017 0.122698 0.227736
H8    H     H_    0.735304 0.635091 0.656055 0.157581
H9    H     H_    0.648004 0.689108 0.120995 0.197855
H10   H     H_    0.261656 0.484940 0.723848 0.160194
H11   H     H_    0.263664 0.545136 0.280479 0.201486
H12   H     H_    0.126000 0.549079 0.282169 0.153830
H13   H     H_    0.540698 0.116720 0.281597 0.208063
N1    N     N_R   0.500470 0.500930 0.147930 -0.248920
N2    N     N_R   0.500480 0.500890 0.852020 -0.188288
O1    O     O_R   0.500000 0.319640 0.618810 -0.585496
O2    O     O_R   0.500010 0.319680 0.381230 -0.566409
O3    O     O_R   0.391250 0.499990 0.618840 -0.589498
O4    O     O_R   0.391260 0.500020 0.381250 -0.557828
O5    O     O_R   0.499990 0.680320 0.618770 -0.574707
O6    O     O_R   0.500000 0.680360 0.381190 -0.575376
O7    O     O_R   0.608740 0.499980 0.618750 -0.583835
O8    O     O_R   0.608750 0.500010 0.381160 -0.581148
C33   C     C_3   0.882729 0.670070 0.691950 -0.831570
H14   H     H_    0.945244 0.669332 0.689028 0.231386
H15   H     H_    0.866285 0.765622 0.668015 0.234589
H16   H     H_    0.863918 0.645880 0.799473 0.240683
C34   C     C_2   0.473447 0.870174 0.869640 0.912949
O9    O     O_2   0.432656 0.795350 0.933718 -0.611934
O10   O     O_R   0.544820 0.905853 0.920857 -0.767140
H17   H     H_    0.556233 0.863594 0.012085 0.312609
C35   C     C_2   0.398427 0.337146 0.151878 0.905954
O11   O     O_2   0.333506 0.364476 0.176037 -0.622274
O12   O     O_R   0.420372 0.216717 0.176479 -0.778827
H18   H     H_    0.379097 0.163013 0.223120 0.330051
C36   C     C_3   0.388564 0.343830 0.860335 -0.770507
H19   H     H_    0.394412 0.328212 0.749525 0.269764
H20   H     H_    0.387350 0.249939 0.906529 0.201570
H21   H     H_    0.332697 0.382441 0.880715 0.212896
C37   C     C_3   0.724300 0.314158 0.328506 -0.770636
H22   H     H_    0.723155 0.340500 0.216977 0.251582
H23   H     H_    0.752675 0.225273 0.339678 0.230480
H24   H     H_    0.665595 0.294972 0.365710 0.216417
C38   C     C_2   0.889459 0.344853 0.312067 0.839621
O13   O     O_2   0.871931 0.337671 0.189543 -0.592108
O14   O     O_R   0.950222 0.279619 0.361472 -0.757384
H25   H     H_    0.975198 0.230372 0.285943 0.338859
C39   C     C_3   0.110810 0.486503 0.765490 -0.843497
H26   H     H_    0.149622 0.474062 0.854165 0.233514
H27   H     H_    0.078132 0.569844 0.785543 0.231772
H28   H     H_    0.071267 0.404090 0.760759 0.249692

loop_
_geom_bond_atom_site_label_1
_geom_bond_atom_site_label_2
_ccdc_geom_bond_type
C8    C9    A    
C35   O12   S    
C21   C35   S    
C7    C8    A    
Cu1   O3    S    
C11   C19   S    
Cu2   O2    S    
C29   C30   A    
C37   H23   S    
Cu1   O1    S    
C28   C29   A    
C25   H6    S    
C5    C6    A    
C29   H8    S    
C38   O14   S    
C33   H15   S    
C15   C16   A    
C24   N2    A    
C2    C32   A    
C18   C19   S    
C8    H11   S    
C34   O10   S    
C19   H3    S    
O12   H18   S    
C14   H13   S    
C20   C24   A    
C16   C17   A    
C37   H24   S    
Cu2   O8    S    
C36   H19   S    
C1    O1    A    
C12   O4    A    
C21   N1    A    
Cu1   O7    S    
C35   O11   D    
Cu2   O6    S    
C6    H10   S    
C21   C22   A    
C27   C30   S    
C15   H1    S    
C12   O3    A    
C26   H9    S    
C17   C18   S    
C7    C12   S    
C37   H22   S    
C24   C25   S    
C27   O8    A    
C27   O7    A    
C18   C34   S    
C31   C37   S    
C25   C26   S    
C34   O9    D    
C19   H4    S    
C31   C32   A    
C36   H21   S    
Cu1   Cu2   S    
C1    O2    A    
C20   N1    A    
C22   N2    A    
C16   C23   S    
C39   H27   S    
C1    C13   S    
C4    C10   S    
C3    C4    T    
C23   O5    A    
C9    C10   A    
Cu1   O5    S    
C11   C17   A    
C38   O13   D    
O14   H25   S    
C2    C28   A    
C23   O6    A    
C6    C7    A    
C28   C33   S    
C39   H28   S    
O10   H17   S    
C2    C3    S    
C33   H14   S    
C5    C10   A    
C25   H5    S    
C5    C39   S    
C11   C13   A    
C18   H2    S    
C30   C31   A    
C20   C26   S    
C33   H16   S    
C32   C38   S    
C9    H12   S    
Cu2   N1    S    
Cu2   O4    S    
C39   H26   S    
C14   C15   A    
C36   H20   S    
C13   C14   A    
Cu1   N2    S    
C22   C36   S    
C26   H7    S    
