data_mof_unit_33250.cif
_audit_creation_date              2012-12-11T14:19:26-0500
_audit_creation_method            fapswitch 2.2
_symmetry_space_group_name_H-M    P1
_symmetry_Int_Tables_number       1
_space_group_crystal_system       triclinic
_cell_length_a                    19.415786
_cell_length_b                    7.25148
_cell_length_c                    17.724331
_cell_angle_alpha                 90.000859
_cell_angle_beta                  107.662697
_cell_angle_gamma                 89.998204
_cell_volume                      2377.82683374

loop_
_atom_site_label
_atom_site_type_symbol
_atom_type_description
_atom_site_fract_x
_atom_site_fract_y
_atom_site_fract_z
_atom_type_partial_charge
O1    O     O_R   0.414820 0.494320 0.416790 -0.540927
O2    O     O_R   0.585180 0.994320 0.583210 -0.541425
O3    O     O_R   0.560270 0.819500 0.430140 -0.506972
O4    O     O_R   0.439730 0.319500 0.569860 -0.506497
C1    C     C_R   0.580629 0.655479 0.414162 0.760291
C2    C     C_R   0.419372 0.155480 0.585844 0.760887
O5    O     O_R   0.413840 0.823740 0.407440 -0.539872
O6    O     O_R   0.586160 0.323740 0.592560 -0.539902
O7    O     O_R   0.437710 0.998590 0.560350 -0.545830
O8    O     O_R   0.562290 0.498590 0.439650 -0.545878
C3    C     C_R   0.388143 0.654919 0.384810 0.710497
C4    C     C_R   0.611857 0.154918 0.615189 0.708798
O9    O     O_3   0.508000 0.662290 0.550200 -0.373001
O10   O     O_3   0.492000 0.162290 0.449800 -0.372888
V1    V     V_3+5 0.498520 0.935380 0.490690 1.591704
V2    V     V_3+5 0.501480 0.435380 0.509310 1.592384
C5    C     C_2   0.783882 0.266971 0.789794 -0.211949
C6    C     C_2   0.216119 0.766967 0.210201 -0.210158
C7    C     C_2   0.823698 0.112513 0.813516 0.477993
C8    C     C_2   0.176303 0.612510 0.186481 0.482081
H1    H     H_    0.800567 0.393822 0.822858 0.123814
H2    H     H_    0.199433 0.893814 0.177134 0.123812
C9    C     C_2   0.719079 0.281626 0.718375 -0.059144
C10   C     C_2   0.280922 0.781627 0.281619 -0.055538
C11   C     C_2   0.676301 0.138415 0.685529 -0.215939
C12   C     C_2   0.323700 0.638417 0.314469 -0.214675
H3    H     H_    0.704867 0.418919 0.694183 0.153077
H4    H     H_    0.295132 0.918923 0.305809 0.153608
H5    H     H_    0.687297 0.002110 0.711266 0.207534
H6    H     H_    0.312705 0.502109 0.288735 0.207040
C13   C     C_R   0.317335 0.012619 0.623009 -0.104578
C14   C     C_R   0.682863 0.512919 0.377275 -0.109019
C15   C     C_R   0.370698 0.148525 0.636205 -0.225022
C16   C     C_R   0.629401 0.648595 0.363920 -0.227699
C17   C     C_R   0.377074 0.279320 0.696564 0.677118
C18   C     C_R   0.623153 0.779584 0.303672 0.676856
C19   C     C_R   0.327462 0.282228 0.741252 -0.096284
C20   C     C_R   0.673002 0.782981 0.259286 -0.103834
C21   C     C_R   0.274735 0.139041 0.728163 -0.138629
C22   C     C_R   0.725899 0.640154 0.272587 -0.135835
C23   C     C_R   0.270273 0.004248 0.669339 -0.031703
C24   C     C_R   0.730256 0.505166 0.331308 -0.009507
C25   C     C_R   0.328319 0.420919 0.798765 0.480374
C26   C     C_R   0.672230 0.921863 0.201883 0.483353
C27   C     C_R   0.280149 0.408277 0.843458 -0.221359
C28   C     C_R   0.720508 0.909452 0.157318 -0.226899
C29   C     C_R   0.229812 0.265511 0.831918 0.110628
C30   C     C_R   0.770871 0.766732 0.168895 0.115763
C31   C     C_R   0.226394 0.129886 0.773898 0.031791
C32   C     C_R   0.774377 0.631282 0.227013 0.061320
C33   C     C_R   0.174644 0.985616 0.761889 -0.106730
C34   C     C_R   0.826339 0.487467 0.239263 -0.074971
C35   C     C_R   0.172614 0.847255 0.704448 0.332387
C36   C     C_R   0.829268 0.350901 0.297693 0.309072
C37   C     C_R   0.219437 0.860942 0.657746 0.604686
C38   C     C_R   0.781556 0.362823 0.343450 0.583201
C39   C     C_R   0.182148 0.259089 0.877506 -0.076372
C40   C     C_R   0.818474 0.760220 0.123245 -0.078602
C41   C     C_R   0.130095 0.119862 0.865613 -0.108383
C42   C     C_R   0.870151 0.620142 0.134676 -0.106665
C43   C     C_R   0.126227 0.985380 0.807542 -0.075587
C44   C     C_R   0.874001 0.485526 0.192699 -0.065811
H7    H     H_    0.313092 0.911848 0.576643 0.197632
H8    H     H_    0.687049 0.412135 0.423622 0.198031
H9    H     H_    0.281259 0.512254 0.887679 0.182928
H10   H     H_    0.719398 0.013448 0.113104 0.181246
H11   H     H_    0.185615 0.362999 0.922526 0.121345
H12   H     H_    0.815047 0.864298 0.078303 0.118254
H13   H     H_    0.083729 0.884161 0.797621 0.205798
H14   H     H_    0.915638 0.382160 0.201562 0.204443
O11   O     O_R   0.937810 0.773680 0.060480 -0.530796
O12   O     O_R   0.062190 0.273680 0.939520 -0.531299
O13   O     O_R   0.086190 0.439740 0.092580 -0.507961
O14   O     O_R   0.913810 0.939740 0.907420 -0.508645
C45   C     C_R   0.111915 0.608242 0.115318 0.625319
C46   C     C_R   0.888086 0.108244 0.884681 0.621986
O15   O     O_R   0.939760 0.444210 0.069890 -0.543360
O16   O     O_R   0.060240 0.944210 0.930110 -0.541923
O17   O     O_R   0.914790 0.269640 0.916760 -0.561832
O18   O     O_R   0.085210 0.769640 0.083240 -0.561068
C47   C     C_R   0.919377 0.612461 0.085088 0.692327
C48   C     C_R   0.080645 0.112441 0.914941 0.689917
O19   O     O_3   0.992050 0.601530 0.949880 -0.370378
O20   O     O_3   0.007950 0.101530 0.050120 -0.369576
V3    V     V_3+5 0.001480 0.328340 0.009300 1.535457
V4    V     V_3+5 0.998520 0.828340 0.990700 1.536275
S1    S     S_3+6 0.112204 0.656160 0.689290 0.060805
O21   O     O_2   0.113319 0.575463 0.767720 -0.372916
O22   O     O_2   0.037073 0.722495 0.646966 -0.287859
O23   O     O_3   0.134744 0.489475 0.635037 -0.427402
H15   H     H_    0.106662 0.379830 0.641597 0.375379
S2    S     S_3+6 0.892677 0.165950 0.315569 0.073321
O24   O     O_2   0.888242 0.071168 0.238915 -0.337387
O25   O     O_2   0.967578 0.243296 0.349623 -0.298350
O26   O     O_3   0.877791 0.007254 0.378186 -0.428773
H16   H     H_    0.908770 0.044554 0.431440 0.401060
F1    F     F_    0.216061 0.733491 0.600561 -0.606623
F2    F     F_    0.784397 0.234663 0.400183 -0.643116
F3    F     F_    0.807970 0.954771 0.770191 -0.671225
F4    F     F_    0.192033 0.454773 0.229809 -0.667185
F5    F     F_    0.434995 0.393592 0.713892 -0.601049
F6    F     F_    0.565142 0.893588 0.286148 -0.600596
S3    S     S_3+6 0.385654 0.617581 0.816522 0.073883
O27   O     O_2   0.461548 0.559238 0.860313 -0.255708
O28   O     O_2   0.384419 0.705410 0.739374 -0.305036
O29   O     O_3   0.358194 0.774118 0.871405 -0.517087
H17   H     H_    0.384186 0.889084 0.866792 0.370995
S4    S     S_3+6 0.614882 0.118505 0.184134 0.073918
O30   O     O_2   0.539048 0.060283 0.140038 -0.255556
O31   O     O_2   0.615879 0.205830 0.261305 -0.304276
O32   O     O_3   0.642543 0.275448 0.129584 -0.519093
H18   H     H_    0.616442 0.390271 0.134140 0.369765

loop_
_geom_bond_atom_site_label_1
_geom_bond_atom_site_label_2
_ccdc_geom_bond_type
S1    O21   D    
O4    V2    S    
C35   C37   A    
O26   H16   S    
O1    C3    A    
C46   O17   A    
C38   F2    S    
O2    C4    A    
C2    O7    A    
O12   V3    S    
C21   C23   A    
O5    C3    A    
C5    C9    S    
O14   C46   A    
C6    C10   S    
C18   F6    S    
C7    C46   S    
C17   C19   A    
C10   C12   D    
C28   H10   S    
C39   C41   A    
O29   H17   S    
C40   C42   A    
S4    O30   D    
C44   H14   S    
C42   C44   A    
C27   C29   A    
C23   C37   A    
O18   V4    S    
C24   C38   A    
S3    O28   D    
O32   H18   S    
C36   S2    S    
C31   C33   A    
C33   C43   A    
C32   C34   A    
C41   C48   S    
C9    H3    S    
C45   O18   A    
C16   C18   A    
O16   V4    S    
C30   C32   A    
O15   V3    S    
O6    V2    S    
O13   C45   A    
C39   H11   S    
C34   C36   A    
C28   C30   A    
C26   S4    S    
C11   H5    S    
C36   C38   A    
C41   C43   A    
C13   C15   A    
C13   H7    S    
O20   V3    S    
C14   H8    S    
C29   C31   A    
C7    F3    S    
C5    C7    D    
C26   C28   A    
C3    C12   S    
C17   F5    S    
S2    O26   S    
C5    H1    S    
C8    C45   S    
C33   C35   A    
C14   C16   A    
C19   C25   A    
C20   C26   A    
C29   C39   A    
O11   V4    S    
C42   C47   S    
O16   C48   A    
C8    F4    S    
O15   C47   A    
O6    C4    A    
C1    C16   S    
C37   F1    S    
S2    O25   D    
C35   S1    S    
O1    V2    S    
O14   V4    S    
O2    V1    S    
C25   C27   A    
O13   V3    S    
C40   H12   S    
C21   C31   A    
C12   H6    S    
S1    O22   D    
C27   H9    S    
S1    O23   S    
O4    C2    A    
O17   V3    S    
O3    V1    S    
C43   H13   S    
C13   C23   A    
C6    H2    S    
C10   H4    S    
C22   C24   A    
O3    C1    A    
S4    O32   S    
C30   C40   A    
C2    C15   S    
C4    C11   S    
C18   C20   A    
O7    V1    S    
C1    O8    A    
C19   C21   A    
O8    V2    S    
C20   C22   A    
O23   H15   S    
C22   C32   A    
O5    V1    S    
S2    O24   D    
C15   C17   A    
S4    O31   D    
S3    O29   S    
C6    C8    D    
C9    C11   D    
C25   S3    S    
O19   V4    S    
O9    V2    S    
S3    O27   D    
C14   C24   A    
O10   V1    S    
C34   C44   A    
O12   C48   A    
O11   C47   A    
