data_mof_unit_53336.cif
_audit_creation_date              2012-12-11T14:04:25-0500
_audit_creation_method            fapswitch 2.2
_symmetry_space_group_name_H-M    P1
_symmetry_Int_Tables_number       1
_space_group_crystal_system       triclinic
_cell_length_a                    18.960772
_cell_length_b                    10.970684
_cell_length_c                    18.888359
_cell_angle_alpha                 90.205032
_cell_angle_beta                  90.281283
_cell_angle_gamma                 90.18041
_cell_volume                      3928.92518406

loop_
_atom_site_label
_atom_site_type_symbol
_atom_type_description
_atom_site_fract_x
_atom_site_fract_y
_atom_site_fract_z
_atom_type_partial_charge
C1    C     C_R   0.237731 0.472068 0.644725 0.570056
C2    C     C_R   0.774787 0.521689 0.360922 0.531551
C3    C     C_R   0.737731 0.972067 0.644725 0.570058
C4    C     C_R   0.274786 0.021688 0.360922 0.531546
C5    C     C_2   0.287700 0.993791 0.558933 -0.175529
C6    C     C_2   0.725135 0.806879 0.468144 -0.167308
C7    C     C_2   0.787708 0.493777 0.558932 -0.175527
C8    C     C_2   0.225135 0.306880 0.468144 -0.167304
C9    C     C_R   0.015349 0.656219 0.419600 -0.029402
C10   C     C_R   0.008246 0.667345 0.568505 -0.007386
C11   C     C_R   0.515346 0.156219 0.419602 -0.029404
C12   C     C_R   0.508243 0.167347 0.568507 -0.007380
C13   C     C_R   0.051040 0.869313 0.413569 -0.031888
C14   C     C_R   0.032826 0.893136 0.559110 -0.043900
C15   C     C_R   0.551038 0.369313 0.413571 -0.031887
C16   C     C_R   0.532824 0.393136 0.559112 -0.043896
C17   C     C_R   0.063764 0.980904 0.446391 -0.094289
C18   C     C_R   0.053451 0.993328 0.518771 -0.098280
C19   C     C_R   0.563762 0.480904 0.446392 -0.094288
C20   C     C_R   0.553449 0.493328 0.518772 -0.098281
C21   C     C_R   0.024785 0.775382 0.528314 0.060065
C22   C     C_R   0.030035 0.767126 0.453433 0.059286
C23   C     C_R   0.524782 0.275382 0.528315 0.060076
C24   C     C_R   0.530033 0.267125 0.453434 0.059283
C25   C     C_R   0.995225 0.556674 0.531779 0.015891
C26   C     C_R   0.014076 0.548292 0.460479 0.023859
C27   C     C_R   0.495219 0.056676 0.531781 0.015890
C28   C     C_R   0.514070 0.048292 0.460482 0.023860
C29   C     C_R   0.967021 0.451473 0.564824 -0.076008
C30   C     C_R   0.024771 0.431260 0.430650 -0.067294
C31   C     C_R   0.467014 0.951478 0.564827 -0.076001
C32   C     C_R   0.524765 0.931258 0.430654 -0.067296
C33   C     C_R   0.971020 0.337569 0.532121 -0.085128
C34   C     C_R   0.003004 0.326843 0.466337 -0.108444
C35   C     C_R   0.471011 0.837572 0.532125 -0.085109
C36   C     C_R   0.502996 0.826843 0.466341 -0.108439
C37   C     C_2   0.253353 0.921580 0.919109 -0.074100
C38   C     C_2   0.745573 0.924632 0.082072 -0.103118
C39   C     C_2   0.753352 0.421581 0.919109 -0.074100
C40   C     C_2   0.245573 0.424632 0.082072 -0.103118
C41   C     C_2   0.253926 0.935806 0.074117 -0.077475
C42   C     C_2   0.745549 0.936499 0.926199 -0.084987
C43   C     C_2   0.753926 0.435806 0.074117 -0.077477
C44   C     C_2   0.245549 0.436499 0.926199 -0.084987
C45   C     C_R   0.228361 0.875535 0.648866 0.545035
C46   C     C_R   0.793264 0.823729 0.358243 0.540209
C47   C     C_R   0.728361 0.375535 0.648866 0.545039
C48   C     C_R   0.293264 0.323730 0.358243 0.540210
C49   C     C_2   0.226240 0.020348 0.030451 -0.151758
C50   C     C_2   0.774744 0.020030 0.970014 -0.148185
C51   C     C_2   0.726239 0.520348 0.030451 -0.151759
C52   C     C_2   0.274744 0.520030 0.970014 -0.148185
C53   C     C_2   0.214441 0.000037 0.955547 -0.164839
C54   C     C_2   0.786387 0.999434 0.044881 -0.166242
C55   C     C_2   0.714440 0.500036 0.955547 -0.164839
C56   C     C_2   0.286387 0.499434 0.044881 -0.166242
C57   C     C_2   0.993004 0.664932 0.916875 -0.122615
C58   C     C_2   0.980556 0.655637 0.070571 -0.146193
C59   C     C_2   0.493004 0.164932 0.916874 -0.122615
C60   C     C_2   0.480556 0.155637 0.070570 -0.146193
C61   C     C_2   0.976935 0.555146 0.027888 0.004882
C62   C     C_2   0.966716 0.566645 0.950108 0.000525
C63   C     C_2   0.476934 0.055147 0.027888 0.004882
C64   C     C_2   0.466715 0.066645 0.950108 0.000526
C65   C     C_R   0.030433 0.655897 0.643815 0.547621
C66   C     C_R   0.975116 0.654060 0.351927 0.510609
C67   C     C_R   0.530432 0.155897 0.643815 0.547627
C68   C     C_R   0.475115 0.154060 0.351928 0.510610
C69   C     C_R   0.238043 0.470084 0.852492 0.553509
C70   C     C_R   0.761777 0.469657 0.147717 0.567540
C71   C     C_R   0.738043 0.970084 0.852492 0.553509
C72   C     C_R   0.261777 0.969656 0.147717 0.567539
C73   C     C_R   0.228085 0.874185 0.852342 0.571971
C74   C     C_R   0.771634 0.874782 0.147940 0.565697
C75   C     C_R   0.728085 0.374185 0.852342 0.571970
C76   C     C_R   0.271634 0.374782 0.147940 0.565696
C77   C     C_R   0.026972 0.653067 0.848799 0.579284
C78   C     C_R   0.966467 0.650892 0.146382 0.556838
C79   C     C_R   0.526972 0.153067 0.848799 0.579283
C80   C     C_R   0.466467 0.150892 0.146382 0.556839
C81   C     C_2   0.248423 0.895902 0.576234 0.047670
C82   C     C_2   0.787769 0.827440 0.435617 0.025022
C83   C     C_2   0.748422 0.395898 0.576233 0.047667
C84   C     C_2   0.287769 0.327442 0.435617 0.025019
C85   C     C_2   0.263060 0.990676 0.433600 -0.060426
C86   C     C_2   0.745798 0.933098 0.572406 -0.030638
C87   C     C_2   0.763061 0.490682 0.433601 -0.060421
C88   C     C_2   0.245796 0.433100 0.572406 -0.030630
C89   C     C_2   0.308453 0.017958 0.485246 -0.102211
C90   C     C_2   0.712832 0.836929 0.543386 -0.123402
C91   C     C_2   0.808460 0.517943 0.485245 -0.102193
C92   C     C_2   0.212832 0.336930 0.543386 -0.123402
Cr1   Cr    Cr6+3 0.113970 0.508630 0.747920 1.061008
Cr2   Cr    Cr6+3 0.886030 0.508630 0.252080 1.058174
Cr3   Cr    Cr6+3 0.613970 0.008630 0.747920 1.061009
Cr4   Cr    Cr6+3 0.386030 0.008630 0.252080 1.058174
Cr5   Cr    Cr6+3 0.269200 0.666740 0.749850 1.048043
Cr6   Cr    Cr6+3 0.730800 0.666740 0.250150 1.018405
Cr7   Cr    Cr6+3 0.769200 0.166740 0.749850 1.048045
Cr8   Cr    Cr6+3 0.230800 0.166740 0.250150 1.018404
Cr9   Cr    Cr6+3 0.112300 0.820070 0.749800 1.029679
Cr10  Cr    Cr6+3 0.887700 0.820070 0.250200 1.040372
Cr11  Cr    Cr6+3 0.612300 0.320070 0.749800 1.029681
Cr12  Cr    Cr6+3 0.387700 0.320070 0.250200 1.040372
H1    H     H_    0.357164 0.065844 0.473848 0.157012
H2    H     H_    0.674750 0.784226 0.573347 0.131928
H3    H     H_    0.857175 0.565813 0.473845 0.157010
H4    H     H_    0.174751 0.284224 0.573347 0.131927
H5    H     H_    0.170016 0.046549 0.931245 0.163519
H6    H     H_    0.832839 0.041881 0.068357 0.163752
H7    H     H_    0.670015 0.546548 0.931245 0.163519
H8    H     H_    0.332839 0.541881 0.068357 0.163751
H9    H     H_    0.273766 0.848669 0.055738 0.117237
H10   H     H_    0.723767 0.850876 0.944823 0.101050
H11   H     H_    0.773767 0.348670 0.055738 0.117238
H12   H     H_    0.223767 0.350876 0.944823 0.101050
H13   H     H_    0.299618 0.879598 0.942438 0.141103
H14   H     H_    0.697102 0.887387 0.059876 0.149226
H15   H     H_    0.799618 0.379599 0.942438 0.141102
H16   H     H_    0.197103 0.387386 0.059876 0.149228
H17   H     H_    0.976261 0.746537 0.049040 0.088114
H18   H     H_    0.009600 0.746028 0.945141 0.083667
H19   H     H_    0.476261 0.246537 0.049040 0.088113
H20   H     H_    0.509599 0.246028 0.945141 0.083667
H21   H     H_    0.303078 0.059578 0.599332 0.143407
H22   H     H_    0.679385 0.776407 0.438059 0.131855
H23   H     H_    0.803095 0.559555 0.599332 0.143403
H24   H     H_    0.179386 0.276404 0.438059 0.131856
H25   H     H_    0.210458 0.958609 0.446702 0.129522
H26   H     H_    0.778554 0.992408 0.540539 0.147470
H27   H     H_    0.710456 0.458633 0.446707 0.129514
H28   H     H_    0.278552 0.492411 0.540538 0.147471
H29   H     H_    0.080572 0.058358 0.415352 0.108173
H30   H     H_    0.060376 0.081584 0.543725 0.097349
H31   H     H_    0.580570 0.558358 0.415353 0.108171
H32   H     H_    0.560373 0.581585 0.543726 0.097348
H33   H     H_    0.059259 0.862339 0.357003 0.123856
H34   H     H_    0.019334 0.912876 0.613243 0.131525
H35   H     H_    0.559258 0.362338 0.357004 0.123857
H36   H     H_    0.519332 0.412877 0.613244 0.131521
H37   H     H_    0.047781 0.420798 0.378608 0.138802
H38   H     H_    0.942127 0.456806 0.616201 0.139432
H39   H     H_    0.547776 0.920794 0.378612 0.138801
H40   H     H_    0.442120 0.956813 0.616204 0.139430
H41   H     H_    0.950829 0.257418 0.558555 0.141450
H42   H     H_    0.008393 0.238320 0.441694 0.121705
H43   H     H_    0.450819 0.757423 0.558560 0.141461
H44   H     H_    0.508383 0.738319 0.441700 0.121708
H45   H     H_    0.207273 0.107047 0.050814 0.164124
H46   H     H_    0.795639 0.105410 0.949722 0.159026
H47   H     H_    0.707271 0.607046 0.050814 0.164124
H48   H     H_    0.295639 0.605410 0.949722 0.159026
O1    O     O_R   0.043230 0.549300 0.667990 -0.511629
O2    O     O_R   0.956770 0.549300 0.332010 -0.527959
O3    O     O_R   0.543230 0.049300 0.667990 -0.511629
O4    O     O_R   0.456770 0.049300 0.332010 -0.527957
O5    O     O_R   0.262920 0.788600 0.824420 -0.500382
O6    O     O_R   0.737080 0.788600 0.175580 -0.488943
O7    O     O_R   0.762920 0.288600 0.824420 -0.500382
O8    O     O_R   0.237080 0.288600 0.175580 -0.488943
O9    O     O_R   0.167530 0.905110 0.830340 -0.516834
O10   O     O_R   0.832470 0.905110 0.169660 -0.510490
O11   O     O_R   0.667530 0.405110 0.830340 -0.516835
O12   O     O_R   0.332470 0.405110 0.169660 -0.510490
O13   O     O_R   0.054010 0.748440 0.822860 -0.506742
O14   O     O_R   0.945990 0.748440 0.177140 -0.502417
O15   O     O_R   0.554010 0.248440 0.822860 -0.506744
O16   O     O_R   0.445990 0.248440 0.177140 -0.502417
O17   O     O_3   0.165160 0.665150 0.749190 -0.254992
O18   O     O_3   0.834840 0.665150 0.250810 -0.307165
O19   O     O_3   0.665160 0.165150 0.749190 -0.254990
O20   O     O_3   0.334840 0.165150 0.250810 -0.307163
O21   O     O_R   0.178620 0.457600 0.674100 -0.496688
O22   O     O_R   0.821380 0.457600 0.325900 -0.460353
O23   O     O_R   0.678620 0.957600 0.674100 -0.496686
O24   O     O_R   0.321380 0.957600 0.325900 -0.460355
O25   O     O_R   0.284680 0.542100 0.669460 -0.509512
O26   O     O_R   0.715320 0.542100 0.330540 -0.538162
O27   O     O_R   0.784680 0.042100 0.669460 -0.509512
O28   O     O_R   0.215320 0.042100 0.330540 -0.538163
O29   O     O_R   0.262860 0.790390 0.676650 -0.489180
O30   O     O_R   0.737140 0.790390 0.323350 -0.528929
O31   O     O_R   0.762860 0.290390 0.676650 -0.489180
O32   O     O_R   0.237140 0.290390 0.323350 -0.528927
O33   O     O_R   0.167460 0.907030 0.670940 -0.517027
O34   O     O_R   0.832540 0.907030 0.329060 -0.459761
O35   O     O_R   0.667460 0.407030 0.670940 -0.517023
O36   O     O_R   0.332540 0.407030 0.329060 -0.459762
O37   O     O_R   0.053950 0.750220 0.675100 -0.511778
O38   O     O_R   0.946050 0.750220 0.324900 -0.504947
O39   O     O_R   0.553950 0.250220 0.675100 -0.511774
O40   O     O_R   0.446050 0.250220 0.324900 -0.504948
O41   O     O_R   0.043300 0.547370 0.827390 -0.476162
O42   O     O_R   0.956700 0.547370 0.172610 -0.477539
O43   O     O_R   0.543300 0.047370 0.827390 -0.476163
O44   O     O_R   0.456700 0.047370 0.172610 -0.477539
O45   O     O_R   0.178690 0.455820 0.821860 -0.493429
O46   O     O_R   0.821310 0.455820 0.178140 -0.464665
O47   O     O_R   0.678690 0.955820 0.821860 -0.493430
O48   O     O_R   0.321310 0.955820 0.178140 -0.464665
O49   O     O_R   0.284750 0.540170 0.828860 -0.521492
O50   O     O_R   0.715250 0.540170 0.171140 -0.511950
O51   O     O_R   0.784750 0.040170 0.828860 -0.521492
O52   O     O_R   0.215250 0.040170 0.171140 -0.511950
C93   C     C_2   0.986279 0.430505 0.056600 0.676936
O53   O     O_2   0.045479 0.393850 0.070775 -0.527076
O54   O     O_R   0.927325 0.356680 0.068549 -0.669113
H49   H     H_    0.940388 0.274154 0.088614 0.331192
C94   C     C_2   0.933723 0.465830 0.907468 0.602972
O55   O     O_2   0.898188 0.491120 0.855313 -0.532038
O56   O     O_R   0.944757 0.343548 0.924686 -0.675299
H50   H     H_    0.919732 0.285445 0.891012 0.330532
C95   C     C_2   0.486278 0.930505 0.056600 0.676937
O57   O     O_2   0.545477 0.893849 0.070776 -0.527075
O58   O     O_R   0.427323 0.856680 0.068547 -0.669115
H51   H     H_    0.440385 0.774154 0.088613 0.331192
C96   C     C_2   0.433723 0.965830 0.907468 0.602973
O59   O     O_2   0.398188 0.991121 0.855313 -0.532039
O60   O     O_R   0.444757 0.843549 0.924685 -0.675298
H52   H     H_    0.419732 0.785445 0.891011 0.330532
C97   C     C_2   0.241543 0.785673 0.529680 0.562813
O61   O     O_2   0.188486 0.722320 0.532911 -0.541242
O62   O     O_R   0.296937 0.751130 0.485284 -0.685909
H53   H     H_    0.285819 0.674706 0.456976 0.346081
C98   C     C_2   0.853638 0.846125 0.477003 0.523227
O63   O     O_2   0.897203 0.921179 0.457904 -0.501870
O64   O     O_R   0.862589 0.784193 0.540966 -0.743659
H54   H     H_    0.896465 0.827148 0.574215 0.325486
C99   C     C_2   0.741528 0.285673 0.529678 0.562811
O65   O     O_2   0.688471 0.222323 0.532921 -0.541238
O66   O     O_R   0.796911 0.251128 0.485269 -0.685902
H55   H     H_    0.785784 0.174705 0.456964 0.346078
C100  C     C_2   0.353637 0.346131 0.477003 0.523220
O67   O     O_2   0.397202 0.421186 0.457902 -0.501874
O68   O     O_R   0.362589 0.284204 0.540967 -0.743664
H56   H     H_    0.396463 0.327162 0.574216 0.325488

loop_
_geom_bond_atom_site_label_1
_geom_bond_atom_site_label_2
_ccdc_geom_bond_type
Cr10  O18   S    
C7    C83   D    
C15   C19   A    
C69   O49   A    
Cr1   O21   S    
C6    C82   D    
C87   C91   D    
Cr8   O20   S    
C34   H42   S    
C14   C18   A    
C35   C36   A    
C3    O23   A    
Cr3   O23   S    
C79   O43   A    
C57   C62   D    
C93   O53   D    
C11   C68   S    
C71   O51   A    
C12   C23   A    
Cr1   O17   S    
C59   C64   D    
C50   C54   S    
C30   H37   S    
C4    O24   A    
C64   C96   S    
C60   C63   D    
C32   C36   A    
C14   C21   A    
C67   O3    A    
C48   O36   A    
C98   O64   S    
Cr7   O7    S    
C67   O39   A    
C9    C22   A    
Cr7   O19   S    
C68   O40   A    
C19   H31   S    
Cr12  O40   S    
C73   O5    A    
C11   C24   A    
Cr5   O17   S    
Cr5   O29   S    
C54   H6    S    
C94   O55   D    
C75   O11   A    
C78   O42   A    
C87   H27   S    
C31   H40   S    
C3    O27   A    
C9    C66   S    
C39   H15   S    
C32   H39   S    
C65   O1    A    
C85   H25   S    
C57   H18   S    
C46   C82   S    
C1    O25   A    
C36   H44   S    
C39   C55   D    
Cr6   O6    S    
C29   C33   A    
C40   C56   D    
C17   C18   A    
C73   O9    A    
O68   H56   S    
Cr9   O17   S    
C8    C92   S    
C39   C75   S    
Cr6   O26   S    
C92   H4    S    
C100  O67   D    
Cr7   O31   S    
C61   C62   S    
Cr3   O43   S    
C52   H48   S    
C72   O52   A    
Cr12  O20   S    
C37   C53   D    
C44   C52   D    
C1    C88   S    
C95   O58   S    
C51   H47   S    
C70   O46   A    
C8    C84   D    
C21   C22   A    
C3    C86   S    
C69   O45   A    
C16   H36   S    
C4    O28   A    
Cr9   O33   S    
C1    O21   A    
C41   C49   D    
C12   C67   S    
C8    H24   S    
C9    C26   A    
C33   C34   A    
C15   H35   S    
Cr2   O22   S    
C93   O54   S    
C10   C21   A    
C25   C29   A    
Cr12  O36   S    
C82   C98   S    
C45   C81   S    
C78   O14   A    
C76   O8    A    
C30   C34   A    
C12   C27   A    
C45   O29   A    
O54   H49   S    
C14   H34   S    
C28   C32   A    
Cr11  O35   S    
C90   H2    S    
O62   H53   S    
C47   O31   A    
C86   C90   D    
C59   C79   S    
O60   H52   S    
C74   O10   A    
C74   O6    A    
C86   H26   S    
C35   H43   S    
C4    C85   S    
C83   C99   S    
C51   C55   S    
C96   O59   D    
C95   O57   D    
C27   C31   A    
C70   O50   A    
C46   O34   A    
C48   C84   S    
C43   H11   S    
Cr2   O46   S    
C88   H28   S    
Cr5   O5    S    
Cr6   O30   S    
C60   H19   S    
Cr1   O45   S    
O58   H51   S    
Cr10  O34   S    
O56   H50   S    
Cr7   O27   S    
C99   O65   D    
C94   O56   S    
C57   C77   S    
C72   O48   A    
C97   O61   D    
C5    C81   D    
C50   H46   S    
Cr5   O25   S    
O64   H54   S    
C38   C54   D    
C16   C20   A    
C7    C91   S    
C98   O63   D    
C2    C87   S    
C88   C92   D    
Cr11  O15   S    
C20   H32   S    
Cr9   O13   S    
C100  O68   S    
C6    H22   S    
C33   H41   S    
C42   C50   D    
C41   C72   S    
C10   C25   A    
Cr3   O47   S    
C15   C24   A    
C40   H16   S    
C65   O37   A    
C26   C30   A    
C16   C23   A    
C47   C83   S    
Cr7   O51   S    
C17   H29   S    
C99   O66   S    
C31   C35   A    
C42   H10   S    
C76   O12   A    
Cr11  O39   S    
C66   O2    A    
C47   O35   A    
Cr8   O28   S    
C27   C28   A    
Cr10  O10   S    
C48   O32   A    
C38   C74   S    
C10   C65   S    
C75   O7    A    
C59   H20   S    
Cr4   O48   S    
C63   C95   S    
C37   C73   S    
C60   C80   S    
C58   H17   S    
C85   C89   D    
Cr4   O24   S    
C55   H7    S    
C77   O41   A    
Cr2   O42   S    
Cr11  O11   S    
Cr6   O50   S    
Cr1   O41   S    
C41   H9    S    
Cr8   O8    S    
C68   O4    A    
Cr12  O12   S    
C13   H33   S    
Cr12  O16   S    
C71   O47   A    
C49   H45   S    
C43   C70   S    
C81   C97   S    
C45   O33   A    
Cr9   O37   S    
C13   C17   A    
C80   O44   A    
C79   O15   A    
C89   H1    S    
C46   O30   A    
C19   C20   A    
Cr9   O9    S    
C84   C100  S    
C25   C26   A    
C97   O62   S    
C6    C90   S    
C2    O22   A    
Cr2   O2    S    
Cr8   O52   S    
Cr11  O19   S    
C43   C51   D    
Cr4   O4    S    
Cr3   O19   S    
C11   C28   A    
C58   C61   D    
C49   C53   S    
C29   H38   S    
C66   O38   A    
Cr1   O1    S    
C42   C71   S    
Cr10  O38   S    
C62   C94   S    
C56   H8    S    
C13   C22   A    
C18   H30   S    
Cr3   O3    S    
C96   O60   S    
Cr8   O32   S    
C5    C89   S    
C58   C78   S    
C23   C24   A    
C63   C64   S    
Cr6   O18   S    
C40   C76   S    
Cr4   O44   S    
C37   H13   S    
C44   H12   S    
Cr10  O14   S    
Cr5   O49   S    
Cr4   O20   S    
C5    H21   S    
O66   H55   S    
C44   C69   S    
C38   H14   S    
C53   H5    S    
C2    O26   A    
C7    H23   S    
C77   O13   A    
C80   O16   A    
Cr2   O18   S    
C52   C56   S    
C61   C93   S    
C91   H3    S    
