data_mof_unit_15670.cif
_audit_creation_date              2012-12-10T17:38:58-0500
_audit_creation_method            fapswitch 2.2
_symmetry_space_group_name_H-M    P1
_symmetry_Int_Tables_number       1
_space_group_crystal_system       triclinic
_cell_length_a                    12.056001
_cell_length_b                    12.961138
_cell_length_c                    23.405833
_cell_angle_alpha                 90.701457
_cell_angle_beta                  86.581616
_cell_angle_gamma                 92.749572
_cell_volume                      3646.5116467

loop_
_atom_site_label
_atom_site_type_symbol
_atom_type_description
_atom_site_fract_x
_atom_site_fract_y
_atom_site_fract_z
_atom_type_partial_charge
C1    C     C_R   0.520869 0.700220 0.497402 0.919570
C2    C     C_R   0.542366 0.416941 0.293497 0.127043
C3    C     C_R   0.490360 0.398227 0.759777 0.173608
C4    C     C_R   0.547101 0.425150 0.233338 0.151286
C5    C     C_R   0.509828 0.491689 0.789794 0.227460
C6    C     C_R   0.503297 0.511221 0.208141 0.228031
C7    C     C_R   0.466479 0.190205 0.502821 -0.119659
C8    C     C_R   0.531934 0.811714 0.495315 -0.147385
C9    C     C_R   0.638444 0.965321 0.521096 0.227087
C10   C     C_R   0.371454 0.041566 0.463010 0.244675
C11   C     C_R   0.629633 0.859476 0.513408 -0.312867
C12   C     C_R   0.478852 0.300509 0.504000 0.954820
C13   C     C_R   0.379498 0.146295 0.473274 -0.361802
C14   C     C_R   0.444440 0.870742 0.477992 0.166302
C15   C     C_R   0.546427 0.130017 0.525519 0.177892
C16   C     C_R   0.500323 0.499091 0.610123 0.950784
C17   C     C_R   0.499267 0.498312 0.389451 0.921775
C18   C     C_R   0.454501 0.978690 0.482342 0.000289
C19   C     C_R   0.547584 0.025218 0.509678 -0.026028
C20   C     C_R   0.955356 0.403364 0.447070 -0.347965
C21   C     C_R   0.045306 0.596736 0.553955 -0.343325
C22   C     C_R   0.839996 0.410072 0.452983 0.113966
C23   C     C_R   0.526130 0.585984 0.760703 0.242319
C24   C     C_R   0.160787 0.586593 0.549309 0.112330
C25   C     C_R   0.857474 0.542833 0.522993 0.058582
C26   C     C_R   0.142430 0.460585 0.475661 0.061422
C27   C     C_R   0.975439 0.536410 0.519355 0.036743
C28   C     C_R   0.024826 0.466651 0.480048 0.038322
C29   C     C_R   0.601883 0.530179 0.116448 0.559395
C30   C     C_R   0.411228 0.475213 0.881495 0.548587
C31   C     C_R   0.405545 0.494842 0.121880 0.566406
C32   C     C_R   0.608399 0.504471 0.876130 0.552846
C33   C     C_R   0.404437 0.484183 0.061981 -0.084779
C34   C     C_R   0.455516 0.589284 0.242011 0.253622
C35   C     C_R   0.611103 0.501569 0.936118 -0.092760
C36   C     C_R   0.507120 0.495905 0.029227 -0.102385
C37   C     C_R   0.508828 0.488760 0.969015 -0.103363
C38   C     C_R   0.607851 0.516740 0.056629 -0.081939
C39   C     C_R   0.408101 0.470107 0.941543 -0.079366
C40   C     C_R   0.304684 0.459651 0.034431 0.153046
C41   C     C_R   0.712379 0.511667 0.963838 0.190853
C42   C     C_R   0.307216 0.448922 0.974418 0.169044
C43   C     C_R   0.710784 0.520402 0.023698 0.145247
C44   C     C_3   0.167754 0.342373 0.084294 -0.701318
C45   C     C_R   0.523145 0.586581 0.701426 -0.334038
C46   C     C_3   0.856559 0.411493 0.917118 -0.687099
C47   C     C_1   0.194328 0.394277 0.433136 0.221037
C48   C     C_1   0.804646 0.612461 0.563496 0.220277
C49   C     C_1   0.229025 0.648946 0.585955 0.224921
C50   C     C_1   0.773887 0.334170 0.423548 0.224137
C51   C     C_3   0.207416 0.303945 0.931511 -0.696464
C52   C     C_3   0.854708 0.434676 0.072710 -0.705858
C53   C     C_3   0.448549 0.729378 0.813021 -0.765720
C54   C     C_3   0.490313 0.756247 0.198575 -0.781491
C55   C     C_3   0.350693 0.282037 0.656350 -0.768971
C56   C     C_R   0.452339 0.581167 0.301225 -0.363717
C57   C     C_3   0.487014 0.258554 0.343481 -0.743550
C58   C     C_3   0.576307 0.256142 0.803035 -0.814950
C59   C     C_3   0.521335 0.264622 0.180027 -0.793819
C60   C     C_3   0.704461 0.226900 0.568647 -0.653237
C61   C     C_3   0.337774 0.773585 0.406606 -0.728926
C62   C     C_3   0.819241 0.034996 0.488926 -0.787990
C63   C     C_3   0.300629 0.019199 0.369354 -0.786166
C64   C     C_R   0.500973 0.494983 0.671571 -0.100961
C65   C     C_R   0.497533 0.497722 0.327156 -0.094893
C66   C     C_R   0.483389 0.400135 0.699974 0.104081
H1    H     H_    0.989804 0.346149 0.417796 0.156950
H2    H     H_    0.240463 0.292851 0.085247 0.234587
H3    H     H_    0.877942 0.562087 0.947249 0.233260
H4    H     H_    0.876707 0.370424 0.956214 0.213223
H5    H     H_    0.933005 0.419834 0.888345 0.244516
H6    H     H_    0.792955 0.364454 0.894571 0.242587
H7    H     H_    0.134667 0.435148 0.965621 0.214900
H8    H     H_    0.131155 0.283721 0.908626 0.228123
H9    H     H_    0.207560 0.255171 0.970124 0.211488
H10   H     H_    0.280817 0.286621 0.902669 0.260170
H11   H     H_    0.835789 0.596908 0.069941 0.261663
H12   H     H_    0.010945 0.651244 0.584873 0.158520
H13   H     H_    0.858732 0.441916 0.119851 0.269678
H14   H     H_    0.939572 0.422349 0.053811 0.214087
H15   H     H_    0.800130 0.365913 0.062824 0.230955
H16   H     H_    0.602159 0.730928 0.768969 0.235541
H17   H     H_    0.472723 0.799756 0.837717 0.233222
H18   H     H_    0.396973 0.677027 0.842080 0.264870
H19   H     H_    0.398689 0.752115 0.777159 0.242924
H20   H     H_    0.342844 0.704198 0.240375 0.234177
H21   H     H_    0.447897 0.818377 0.177490 0.236102
H22   H     H_    0.553899 0.725906 0.167377 0.266478
H23   H     H_    0.536874 0.658797 0.678576 0.164236
H24   H     H_    0.531685 0.789710 0.236231 0.235455
H25   H     H_    0.505103 0.244784 0.682262 0.234944
H26   H     H_    0.346360 0.212936 0.627906 0.236076
H27   H     H_    0.314006 0.346610 0.634570 0.271773
H28   H     H_    0.300744 0.264899 0.696806 0.231966
H29   H     H_    0.636854 0.286475 0.297152 0.234176
H30   H     H_    0.426985 0.237889 0.310558 0.232738
H31   H     H_    0.443134 0.296252 0.380294 0.250988
H32   H     H_    0.520995 0.186595 0.359071 0.243029
H33   H     H_    0.416108 0.252122 0.775072 0.237350
H34   H     H_    0.416890 0.641785 0.326985 0.156805
H35   H     H_    0.556057 0.186484 0.829490 0.239425
H36   H     H_    0.630559 0.309916 0.827371 0.262512
H37   H     H_    0.622087 0.232639 0.762737 0.235407
H38   H     H_    0.672680 0.325765 0.207787 0.225141
H39   H     H_    0.562477 0.220188 0.144597 0.237598
H40   H     H_    0.443725 0.294449 0.164624 0.258963
H41   H     H_    0.500566 0.211810 0.216416 0.240626
H42   H     H_    0.597029 0.114780 0.608634 0.215620
H43   H     H_    0.768861 0.191588 0.593124 0.215011
H44   H     H_    0.692906 0.305848 0.586104 0.251935
H45   H     H_    0.318088 0.194015 0.456462 0.194157
H46   H     H_    0.735514 0.231353 0.523262 0.253453
H47   H     H_    0.286582 0.795258 0.494481 0.238126
H48   H     H_    0.265572 0.800436 0.384699 0.245158
H49   H     H_    0.325467 0.688920 0.411678 0.252638
H50   H     H_    0.414895 0.792609 0.379624 0.220323
H51   H     H_    0.777944 0.970597 0.568159 0.223572
H52   H     H_    0.893820 0.077912 0.504290 0.233096
H53   H     H_    0.780526 0.084134 0.457807 0.258021
H54   H     H_    0.845715 0.962762 0.467153 0.240041
H55   H     H_    0.205981 0.025759 0.445756 0.223224
H56   H     H_    0.698956 0.814279 0.523580 0.187541
H57   H     H_    0.233180 0.978044 0.346613 0.236371
H58   H     H_    0.381525 0.989030 0.353231 0.251003
H59   H     H_    0.299338 0.102835 0.359832 0.239642
H60   H     H_    0.137874 0.490824 0.055137 0.211204
H61   H     H_    0.107437 0.307964 0.054635 0.200507
H62   H     H_    0.126358 0.344463 0.127896 0.260181
N1    N     N_R   0.503040 0.515541 0.147139 -0.327557
N2    N     N_1   0.723139 0.270059 0.400547 -0.221835
N3    N     N_2   0.209462 0.412425 0.947312 -0.249378
N4    N     N_2   0.814919 0.528350 0.049587 -0.300331
N5    N     N_2   0.547513 0.679908 0.791064 -0.283438
N6    N     N_2   0.409388 0.675376 0.216529 -0.278810
N7    N     N_2   0.465521 0.307281 0.667807 -0.316813
N8    N     N_2   0.576726 0.326262 0.319913 -0.288735
N9    N     N_2   0.474597 0.303994 0.790630 -0.300853
N10   N     N_2   0.596007 0.348546 0.197010 -0.296678
N11   N     N_2   0.600195 0.166591 0.575386 -0.309318
N12   N     N_R   0.509982 0.490676 0.850799 -0.329923
N13   N     N_2   0.341680 0.822693 0.462223 -0.270453
N14   N     N_2   0.741719 0.011014 0.537042 -0.300095
N15   N     N_2   0.282758 0.002293 0.430286 -0.275364
N16   N     N_R   0.207800 0.519350 0.510590 -0.147682
N17   N     N_R   0.792200 0.480650 0.489410 -0.146466
N18   N     N_2   0.201345 0.446708 0.067066 -0.253575
N19   N     N_2   0.816918 0.512744 0.931705 -0.240168
N20   N     N_1   0.233907 0.341168 0.398299 -0.245086
N21   N     N_1   0.763136 0.668216 0.596369 -0.237001
N22   N     N_1   0.283327 0.699475 0.615576 -0.222701
O1    O     O_R   0.421690 0.658830 0.502820 -0.625276
O2    O     O_2   0.316423 0.468709 0.853469 -0.542327
O3    O     O_2   0.310836 0.483326 0.155363 -0.538116
O4    O     O_2   0.702451 0.522467 0.842843 -0.536231
O5    O     O_R   0.578310 0.341170 0.497180 -0.613955
O6    O     O_R   0.609320 0.646410 0.496030 -0.625272
O7    O     O_R   0.390680 0.353590 0.503970 -0.637388
O8    O     O_R   0.406170 0.506240 0.587240 -0.622384
O9    O     O_R   0.593830 0.493760 0.412760 -0.600665
O10   O     O_R   0.593790 0.493820 0.580450 -0.626390
O11   O     O_R   0.406210 0.506180 0.419550 -0.632723
O12   O     O_2   0.693136 0.558023 0.144570 -0.587134
Zn1   Zn    Zn3+2 0.374720 0.508290 0.504530 0.944771
Zn2   Zn    Zn3+2 0.625280 0.491710 0.495470 0.962273

loop_
_geom_bond_atom_site_label_1
_geom_bond_atom_site_label_2
_ccdc_geom_bond_type
H7    N3    S    
C44   H61   S    
C34   C56   A    
C23   C45   A    
C16   O10   A    
C1    C8    S    
C44   H62   S    
H55   N15   S    
C20   H1    S    
C51   H8    S    
C55   H27   S    
C2    C65   A    
C63   H58   S    
H60   N18   S    
C15   C19   A    
C59   H39   S    
C49   N22   T    
C53   H18   S    
O10   Zn2   S    
C36   C37   A    
C35   C37   A    
C51   H9    S    
C54   H24   S    
C55   H28   S    
C54   H21   S    
C34   N6    S    
C56   C65   A    
C54   N6    S    
C33   C36   A    
C18   C19   A    
C14   C18   A    
C60   H43   S    
C50   N2    T    
O11   Zn1   S    
H20   N6    S    
C29   N1    A    
H38   N10   S    
C57   H30   S    
C41   N19   S    
C29   C38   A    
C61   H49   S    
C44   N18   S    
C31   C33   A    
C57   N8    S    
C42   N3    S    
C3    N9    S    
C12   O7    A    
C52   H13   S    
C45   H23   S    
O7    Zn1   S    
C46   H6    S    
C22   C50   S    
C40   C42   A    
C21   C27   A    
C14   N13   S    
C48   N21   T    
C41   C43   A    
C62   N14   S    
C6    N1    S    
C26   N16   A    
C62   H52   S    
C26   C28   A    
C31   O3    S    
C9    C19   A    
C39   C42   A    
C15   N11   S    
C7    C12   S    
C10   C18   A    
C33   C40   A    
C30   N12   A    
C23   N5    S    
C16   O8    A    
C52   N4    S    
C32   C35   A    
C53   N5    S    
C51   H10   S    
C4    C6    A    
C51   N3    S    
C20   C28   A    
C59   N10   S    
C59   H41   S    
C6    C34   A    
H11   N4    S    
C64   C66   A    
C21   H12   S    
C1    O6    A    
C2    C4    A    
C55   H26   S    
C60   H46   S    
C37   C39   A    
C30   O2    S    
C46   N19   S    
C5    C23   A    
C22   N17   A    
C57   H31   S    
C61   H50   S    
C46   H5    S    
C58   H35   S    
C9    C11   A    
C25   C48   S    
C62   H53   S    
C63   H59   S    
C35   C41   A    
C17   O11   A    
C26   C47   S    
C58   H36   S    
O8    Zn1   S    
C58   N9    S    
C61   N13   S    
C20   C22   A    
O1    Zn1   S    
N16   Zn1   S    
H3    N19   S    
C32   O4    S    
C44   H2    S    
C3    C66   A    
C25   N17   A    
C56   H34   S    
C12   O5    A    
C61   H48   S    
C5    N12   S    
C24   C49   S    
C47   N20   T    
C43   N4    S    
C8    C14   A    
C62   H54   S    
C29   O12   S    
C3    C5    A    
C10   C13   A    
H42   N11   S    
C63   H57   S    
C9    N14   S    
C32   N12   A    
N17   Zn2   S    
O5    Zn2   S    
C25   C27   A    
C45   C64   A    
C17   C65   S    
C40   N18   S    
C53   H17   S    
H16   N5    S    
C36   C38   A    
H51   N14   S    
C38   C43   A    
C31   N1    A    
C54   H22   S    
C59   H40   S    
C24   N16   A    
C8    C11   A    
C55   N7    S    
C57   H32   S    
C7    C15   A    
H29   N8    S    
H47   N13   S    
C30   C39   A    
C1    O1    A    
C10   N15   S    
C52   H15   S    
C17   O9    A    
C2    N8    S    
C46   H4    S    
C60   H44   S    
C60   N11   S    
C4    N10   S    
C66   N7    S    
C11   H56   S    
C7    C13   A    
H25   N7    S    
O6    Zn2   S    
C13   H45   S    
C21   C24   A    
C27   C28   A    
C63   N15   S    
O9    Zn2   S    
H33   N9    S    
C53   H19   S    
C58   H37   S    
C16   C64   S    
C52   H14   S    
