data_mof_unit_14650.cif
_audit_creation_date              2012-10-26T21:25:58-0400
_audit_creation_method            fapswitch 2.2
_symmetry_space_group_name_H-M    P1
_symmetry_Int_Tables_number       1
_space_group_crystal_system       triclinic
_cell_length_a                    10.902721
_cell_length_b                    10.89065
_cell_length_c                    12.703163
_cell_angle_alpha                 91.789165
_cell_angle_beta                  90.81515
_cell_angle_gamma                 90.644793
_cell_volume                      1507.35341073

loop_
_atom_site_label
_atom_site_type_symbol
_atom_type_description
_atom_site_fract_x
_atom_site_fract_y
_atom_site_fract_z
_atom_type_partial_charge
C1    C     C_R   0.261876 0.498808 0.502378 0.573805
C2    C     C_R   0.828823 0.609274 0.257273 -0.049637
C3    C     C_R   0.115120 0.497026 0.706239 -0.000362
C4    C     C_R   0.884877 0.502943 0.293764 -0.000383
C5    C     C_R   0.090566 0.594280 0.777784 -0.039713
C6    C     C_R   0.909381 0.405628 0.222265 -0.039707
C7    C     C_R   0.119493 0.584683 0.884570 0.249244
C8    C     C_R   0.880450 0.415165 0.115474 0.249262
C9    C     C_R   0.175019 0.478510 0.920522 -0.065244
C10   C     C_R   0.824958 0.521336 0.079475 -0.065255
C11   C     C_R   0.933982 0.500582 0.592303 -0.094159
C12   C     C_R   0.738123 0.501194 0.497622 0.573799
C13   C     C_R   0.066018 0.499436 0.407698 -0.094155
C14   C     C_R   0.871703 0.501902 0.495017 0.031190
C15   C     C_R   0.128297 0.498110 0.504985 0.031209
C16   C     C_R   0.500157 0.261906 0.501703 0.576907
C17   C     C_R   0.499841 0.738094 0.498297 0.576927
C18   C     C_R   0.939032 0.501276 0.401053 -0.018153
C19   C     C_R   0.060968 0.498736 0.598950 -0.018123
C20   C     C_2   0.467796 0.463734 0.031937 -0.177661
C21   C     C_2   0.532211 0.536255 0.968063 -0.177627
C22   C     C_1   0.524263 0.525812 0.852576 0.170106
C23   C     C_R   0.499574 0.871682 0.495980 0.034361
C24   C     C_1   0.475740 0.474183 0.147424 0.170110
C25   C     C_R   0.704400 0.234566 0.816083 -0.089279
C26   C     C_R   0.295490 0.765406 0.183993 -0.089291
C27   C     C_R   0.674195 0.183456 0.716754 0.237819
C28   C     C_R   0.325737 0.816525 0.283304 0.237795
C29   C     C_R   0.559809 0.123595 0.699726 0.014214
C30   C     C_R   0.440119 0.876403 0.300285 0.014205
C31   C     C_R   0.478364 0.112633 0.784764 0.237915
C32   C     C_R   0.521513 0.887381 0.215214 0.237922
C33   C     C_R   0.512503 0.159944 0.885291 0.276726
C34   C     C_R   0.500416 0.128318 0.504017 0.034349
C35   C     C_R   0.487326 0.840069 0.114705 0.276771
C36   C     C_R   0.624647 0.221861 0.900112 -0.110460
C37   C     C_R   0.375190 0.778125 0.099933 -0.110461
C38   C     C_R   0.528862 0.936539 0.590122 -0.067393
C39   C     C_R   0.471117 0.063461 0.409875 -0.067404
C40   C     C_R   0.471004 0.936145 0.404131 0.043962
C41   C     C_R   0.528969 0.063855 0.595868 0.043961
C42   C     C_R   0.201897 0.382128 0.849439 -0.105504
C43   C     C_R   0.798134 0.617784 0.150515 -0.105469
C44   C     C_R   0.171218 0.390697 0.742685 -0.049620
Cl1   Cl    Cl    0.078618 0.702925 0.973535 -0.566665
Cl2   Cl    Cl    0.921289 0.296850 0.026561 -0.566424
Cl3   Cl    Cl    0.782937 0.193504 0.615995 -0.554457
Cl4   Cl    Cl    0.217050 0.806467 0.384101 -0.554487
Cl5   Cl    Cl    0.333757 0.039592 0.765949 -0.483588
Cl6   Cl    Cl    0.666119 0.960442 0.233966 -0.483589
Cl7   Cl    Cl    0.418132 0.139058 0.994852 -0.495491
Cl8   Cl    Cl    0.581623 0.860998 0.005107 -0.495387
Cu1   Cu    Cu3+1 0.492140 0.492110 0.395880 1.046190
Cu2   Cu    Cu3+1 0.507860 0.507890 0.604120 1.046195
H1    H     H_    0.650507 0.259464 0.977249 0.199594
H2    H     H_    0.208786 0.717491 0.171665 0.203419
H3    H     H_    0.552485 0.888046 0.660773 0.178452
H4    H     H_    0.447482 0.111954 0.339226 0.178450
H5    H     H_    0.195243 0.469875 0.003612 0.152274
H6    H     H_    0.804727 0.529921 0.996381 0.152210
H7    H     H_    0.243334 0.299310 0.877459 0.200528
H8    H     H_    0.756732 0.700604 0.122458 0.200472
H9    H     H_    0.187448 0.313328 0.689235 0.168091
H10   H     H_    0.812637 0.686689 0.310689 0.168102
H11   H     H_    0.349294 0.740520 0.022811 0.199644
H12   H     H_    0.043942 0.675227 0.751094 0.176126
H13   H     H_    0.955975 0.324678 0.248991 0.176129
H14   H     H_    0.883541 0.499287 0.665281 0.158759
H15   H     H_    0.116456 0.500725 0.334718 0.158762
H16   H     H_    0.592885 0.605969 0.002675 0.163245
H17   H     H_    0.407133 0.394010 0.997324 0.163257
H18   H     H_    0.791110 0.282466 0.828449 0.203410
N1    N     N_1   0.480320 0.480250 0.239400 -0.185658
N2    N     N_1   0.519680 0.519750 0.760600 -0.185658
O1    O     O_R   0.313000 0.493330 0.412070 -0.499042
O2    O     O_R   0.687000 0.506670 0.587930 -0.499038
O3    O     O_R   0.326280 0.506660 0.587930 -0.496694
O4    O     O_R   0.673720 0.493340 0.412070 -0.496690
O5    O     O_R   0.493370 0.312980 0.412070 -0.490823
O6    O     O_R   0.506630 0.687020 0.587930 -0.490813
O7    O     O_R   0.506650 0.326310 0.587930 -0.503156
O8    O     O_R   0.493350 0.673690 0.412070 -0.503144

loop_
_geom_bond_atom_site_label_1
_geom_bond_atom_site_label_2
_ccdc_geom_bond_type
C27   C29   A    
C1    O3    A    
C14   C18   A    
C10   H6    S    
C29   C41   S    
Cu1   Cu2   S    
C15   C19   A    
C11   C19   A    
C9    C42   A    
C17   C23   S    
C13   C18   A    
C7    Cl1   S    
Cu1   O5    S    
C11   C14   A    
C24   N1    T    
C23   C40   A    
C33   C36   A    
C17   O8    A    
C16   C34   S    
Cu2   N2    S    
C20   C24   S    
C37   H11   S    
C31   C33   A    
C20   H17   S    
C3    C19   S    
C1    C15   S    
Cu2   O3    S    
C4    C18   S    
C21   C22   S    
Cu1   O1    S    
C34   C41   A    
C42   C44   A    
C31   Cl5   S    
C2    H10   S    
Cu2   O6    S    
C44   H9    S    
C3    C44   A    
C34   C39   A    
C1    O1    A    
C32   C35   A    
C38   C41   A    
C4    C6    A    
C39   C40   A    
C5    C7    A    
C6    C8    A    
C39   H4    S    
C17   O6    A    
C12   O4    A    
Cu1   O8    S    
C9    H5    S    
C2    C4    A    
C38   H3    S    
C13   C15   A    
C2    C43   A    
C30   C40   S    
C25   H18   S    
C42   H7    S    
C32   Cl6   S    
Cu2   O2    S    
C6    H13   S    
C12   C14   S    
C12   O2    A    
C33   Cl7   S    
C22   N2    T    
C11   H14   S    
C27   Cl3   S    
C7    C9    A    
C28   Cl4   S    
C35   C37   A    
C10   C43   A    
Cu1   N1    S    
C5    H12   S    
C3    C5    A    
C26   H2    S    
C26   C37   A    
C25   C27   A    
C23   C38   A    
C26   C28   A    
C21   H16   S    
C16   O5    A    
C28   C30   A    
Cu1   O4    S    
C29   C31   A    
C36   H1    S    
C30   C32   A    
C13   H15   S    
C16   O7    A    
C8    Cl2   S    
C25   C36   A    
C20   C21   D    
C8    C10   A    
C35   Cl8   S    
Cu2   O7    S    
C43   H8    S    
