data_mof_unit_53763.cif
_audit_creation_date              2013-03-05T16:11:33-0500
_audit_creation_method            fapswitch 2.2
_symmetry_space_group_name_H-M    P1
_symmetry_Int_Tables_number       1
_space_group_crystal_system       triclinic
_cell_length_a                    10.740145
_cell_length_b                    10.0
_cell_length_c                    15.800373
_cell_angle_alpha                 90.760157
_cell_angle_beta                  92.664999
_cell_angle_gamma                 92.962191
_cell_volume                      1692.67380465

loop_
_atom_site_label
_atom_site_type_symbol
_atom_site_description
_atom_site_fract_x
_atom_site_fract_y
_atom_site_fract_z
_atom_type_partial_charge
O1    O     O_R   0.316750 0.614620 0.499990 -0.566269
O2    O     O_R   0.316750 0.385380 0.499990 -0.594986
C1    C     C_R   0.260651 0.496659 0.500517 0.976549
O3    O     O_R   0.499990 0.614720 0.377140 -0.589992
O4    O     O_R   0.499990 0.385280 0.377140 -0.571316
C2    C     C_R   0.498429 0.499077 0.338719 0.918932
Zn1   Zn    Zn3+2 0.499980 0.653120 0.500000 1.113999
Zn2   Zn    Zn3+2 0.499980 0.346880 0.500000 1.104494
O5    O     O_R   0.683220 0.614710 0.500000 -0.572555
O6    O     O_R   0.683220 0.385290 0.500000 -0.575530
O7    O     O_R   0.499980 0.614620 0.622860 -0.604486
O8    O     O_R   0.499980 0.385380 0.622860 -0.614763
C3    C     C_R   0.739816 0.503156 0.499028 0.964139
C4    C     C_R   0.498604 0.500582 0.661260 0.903496
C5    C     C_3   0.339985 0.543744 0.049286 -0.001282
C6    C     C_3   0.498231 0.338230 0.049048 0.039614
C7    C     C_3   0.479947 0.333114 0.945159 -0.334268
C8    C     C_3   0.340707 0.552654 0.944953 -0.334562
C9    C     C_1   0.486824 0.500146 0.749216 0.068192
C10   C     C_3   0.475441 0.491374 0.082365 -0.167527
C11   C     C_3   0.467549 0.486070 0.915243 -0.037151
C12   C     C_3   0.586434 0.568755 0.952803 -0.398024
C13   C     C_3   0.585797 0.592748 0.050261 -0.281812
C14   C     C_1   0.475905 0.494731 0.823595 0.146181
C15   C     C_1   0.483371 0.493908 0.174737 0.141761
C16   C     C_1   0.490945 0.496402 0.250018 0.160615
H1    H     H_    0.607973 0.661502 0.917987 0.274971
H2    H     H_    0.668907 0.513133 0.938325 0.263395
C17   C     C_R   0.055520 0.401438 0.450639 0.188398
C18   C     C_R   0.074663 0.585818 0.554753 0.233155
C19   C     C_R   0.927226 0.411975 0.444318 0.228385
C20   C     C_R   0.947145 0.597372 0.548009 0.190614
C21   C     C_R   0.873118 0.508382 0.494721 -0.335573
C22   C     C_R   0.128281 0.490444 0.504290 -0.331418
C23   C     C_R   0.547949 0.076403 0.568263 -0.072640
C24   C     C_R   0.544615 0.933340 0.569382 -0.093686
N1    N     N_R   0.499970 0.857200 0.499980 -0.180848
N2    N     N_R   0.499970 0.142800 0.499980 -0.186823
C25   C     C_R   0.452585 0.924141 0.431640 0.287240
C26   C     C_R   0.456471 0.066970 0.430511 0.281388
C27   C     C_2   0.220308 0.488053 0.900355 1.001540
O9    O     O_2   0.221823 0.435883 0.830098 -0.583754
O10   O     O_R   0.104111 0.511923 0.933089 -0.688147
H3    H     H_    0.031338 0.471730 0.896360 0.383772
C28   C     C_2   0.370332 0.243969 0.903570 1.000340
O11   O     O_2   0.296578 0.177135 0.943897 -0.466894
O12   O     O_R   0.362606 0.228768 0.815033 -0.732087
H4    H     H_    0.291357 0.164673 0.793820 0.389242
N3    N     N_R   0.397049 0.850533 0.360329 0.247836
O13   O     O_R   0.442574 0.865942 0.286102 -0.243823
O14   O     O_R   0.289327 0.786802 0.366484 -0.289579
N4    N     N_R   0.425894 0.130319 0.352575 0.241954
O15   O     O_R   0.310410 0.125591 0.323592 -0.220463
O16   O     O_R   0.513865 0.149883 0.299543 -0.236790
N5    N     N_R   0.238131 0.448057 0.077783 0.246306
O17   O     O_R   0.200005 0.341103 0.035019 -0.280020
O18   O     O_R   0.190244 0.461841 0.151491 -0.250916
N6    N     N_R   0.415693 0.233286 0.087085 0.280050
O19   O     O_R   0.359120 0.255471 0.156511 -0.224352
O20   O     O_R   0.433206 0.108416 0.068952 -0.309738
C29   C     C_2   0.630381 0.301270 0.083931 0.919045
O21   O     O_2   0.642394 0.261969 0.156795 -0.457336
O22   O     O_R   0.737647 0.314826 0.036954 -0.791560
H5    H     H_    0.815640 0.287287 0.069434 0.403210
C30   C     C_2   0.315919 0.680013 0.096285 0.954592
O23   O     O_2   0.305101 0.680851 0.173058 -0.493885
O24   O     O_R   0.310179 0.803648 0.056773 -0.721536
H6    H     H_    0.293874 0.879810 0.097138 0.427700
C31   C     C_2   0.588919 0.262070 0.905904 1.034341
O25   O     O_2   0.603772 0.144342 0.922446 -0.544709
O26   O     O_R   0.669648 0.326205 0.850445 -0.786437
H7    H     H_    0.738003 0.267293 0.832350 0.374428
C32   C     C_2   0.331386 0.696372 0.909477 1.023654
O27   O     O_2   0.231241 0.750585 0.908461 -0.476750
O28   O     O_R   0.430763 0.764138 0.872286 -0.774587
H8    H     H_    0.410068 0.857902 0.854702 0.409997
C33   C     C_2   0.571788 0.740734 0.072160 0.950392
O29   O     O_2   0.566366 0.775642 0.146379 -0.521829
O30   O     O_R   0.578802 0.839124 0.010303 -0.709268
H9    H     H_    0.581821 0.933037 0.035165 0.418381
C34   C     C_2   0.718109 0.575343 0.089856 0.960120
O31   O     O_2   0.734369 0.555395 0.165709 -0.551913
O32   O     O_R   0.822792 0.596039 0.040944 -0.724710
H10   H     H_    0.904333 0.585079 0.074500 0.402151
N7    N     N_R   0.111801 0.303485 0.400340 0.249559
O33   O     O_R   0.130799 0.186660 0.432297 -0.262560
O34   O     O_R   0.118658 0.320381 0.319160 -0.234379
N8    N     N_R   0.149421 0.668813 0.614788 0.255620
O35   O     O_R   0.219124 0.614276 0.672871 -0.365091
O36   O     O_R   0.150129 0.798680 0.610422 -0.265124
N9    N     N_R   0.852667 0.328123 0.384724 0.261400
O37   O     O_R   0.860698 0.198744 0.384886 -0.237284
O38   O     O_R   0.777740 0.381449 0.329221 -0.311842
N10   N     N_R   0.894384 0.697875 0.597609 0.263226
O39   O     O_R   0.894834 0.684138 0.679437 -0.299745
O40   O     O_R   0.888316 0.817142 0.566150 -0.255013
C35   C     C_2   0.617236 0.153109 0.637063 1.015750
O41   O     O_2   0.571108 0.165564 0.705749 -0.546741
O42   O     O_R   0.737203 0.207236 0.624171 -0.752615
H11   H     H_    0.775465 0.258093 0.675714 0.342936
C36   C     C_2   0.592643 0.868871 0.646328 1.011198
O43   O     O_2   0.676561 0.792855 0.642041 -0.528277
O44   O     O_R   0.545504 0.898302 0.724785 -0.749255
H12   H     H_    0.594331 0.855903 0.772919 0.380264

loop_
_geom_bond_atom_site_label_1
_geom_bond_atom_site_label_2
_geom_bond_distance
_ccdc_geom_bond_type
C5    C8    1.652455 S    
C20   N10   1.422891 S    
N5    O17   1.295364 A    
C7    C31   1.549506 S    
C36   O43   1.212386 D    
C8    C11   1.632325 S    
C32   O28   1.392066 S    
C32   O27   1.228781 D    
C23   C24   1.429590 A    
O10   H3    1.014094 S    
C34   O31   1.223597 D    
N7    O33   1.300811 A    
Zn1   O7    1.984046 S    
O32   H10   1.014085 S    
C24   N1    1.379624 A    
N2    C26   1.375390 A    
C7    C28   1.554508 S    
O4    C2    1.297356 A    
O7    C4    1.298564 A    
C10   C15   1.457839 S    
N6    O20   1.302502 A    
C5    C30   1.581966 S    
C29   O22   1.400921 S    
C27   O9    1.221433 D    
C31   O26   1.399646 S    
O5    C3    1.297937 A    
C35   O42   1.396371 S    
O12   H4    1.014143 S    
C6    C7    1.643910 S    
N3    O14   1.300018 A    
C19   C21   1.407814 A    
C17   N7    1.428879 S    
Zn2   O8    1.974026 S    
C33   O30   1.397743 S    
C36   O44   1.394179 S    
C12   H2    1.101226 S    
C11   C12   1.572770 S    
C27   O10   1.403370 S    
C31   O25   1.226154 D    
Zn2   N2    2.040790 S    
O3    Zn1   1.973851 S    
C34   O32   1.401849 S    
N4    O16   1.300750 A    
C35   O41   1.221294 D    
C28   O12   1.403302 S    
C5    C10   1.636832 S    
C18   C22   1.398667 A    
N7    O34   1.300956 A    
O24   H6    1.014283 S    
C23   N2    1.368605 A    
O3    C2    1.297911 A    
C8    C27   1.550108 S    
C25   C26   1.427107 A    
C1    C22   1.423878 S    
C30   O24   1.395312 S    
C15   C16   1.188306 T    
C26   N4    1.424835 S    
C17   C22   1.402843 A    
C7    C11   1.617126 S    
O30   H9    1.011534 S    
C24   C36   1.468553 S    
O1    C1    1.296860 A    
C5    N5    1.504674 S    
O28   H8    1.014140 S    
C3    C21   1.434746 S    
N9    O38   1.300836 A    
O42   H11   1.013429 S    
C10   C13   1.623311 S    
C6    C10   1.646714 S    
Zn1   N1    2.040810 S    
N10   O39   1.301822 A    
C6    N6    1.489456 S    
C13   C33   1.531865 S    
N10   O40   1.301740 A    
Zn2   O6    1.985580 S    
C25   N3    1.427319 S    
N8    O36   1.301057 A    
C30   O23   1.223914 D    
C8    C32   1.555871 S    
C19   N9    1.438927 S    
C12   H1    1.104318 S    
N5    O18   1.303317 A    
C6    C29   1.562592 S    
C18   N8    1.439684 S    
N9    O37   1.301121 A    
N4    O15   1.300341 A    
Zn1   O5    2.024545 S    
C13   C34   1.544952 S    
O1    Zn1   1.985593 S    
C4    C9    1.401372 S    
C12   C13   1.555690 S    
O2    Zn2   2.024647 S    
O8    C4    1.295972 A    
O6    C3    1.298560 A    
O4    Zn2   1.983845 S    
C20   C21   1.406308 A    
O2    C1    1.292633 A    
N6    O19   1.300453 A    
O26   H7    1.013669 S    
N1    C25   1.369808 A    
C18   C20   1.379684 A    
C2    C16   1.399901 S    
C9    C14   1.188141 T    
C29   O21   1.224736 D    
O22   H5    1.014136 S    
C28   O11   1.218058 D    
N8    O35   1.300652 A    
C17   C19   1.386421 A    
N3    O13   1.299483 A    
C11   C14   1.458445 S    
O44   H12   1.013726 S    
C33   O29   1.223930 D    
C23   C35   1.472243 S    
