data_mof_unit_8844.cif
_audit_creation_date              2012-12-11T16:27:29-0500
_audit_creation_method            fapswitch 2.2
_symmetry_space_group_name_H-M    P1
_symmetry_Int_Tables_number       1
_space_group_crystal_system       triclinic
_cell_length_a                    21.619966
_cell_length_b                    6.92435
_cell_length_c                    14.70003
_cell_angle_alpha                 90.148696
_cell_angle_beta                  105.544438
_cell_angle_gamma                 90.197848
_cell_volume                      2120.13596705

loop_
_atom_site_label
_atom_site_type_symbol
_atom_type_description
_atom_site_fract_x
_atom_site_fract_y
_atom_site_fract_z
_atom_type_partial_charge
O1    O     O_R   0.835850 0.638310 0.002120 -0.538642
O2    O     O_R   0.164150 0.361690 0.997880 -0.531214
O3    O     O_R   0.664150 0.138310 0.997880 -0.533394
O4    O     O_R   0.335850 0.861690 0.002120 -0.532229
O5    O     O_R   0.717530 0.306070 0.861970 -0.538874
O6    O     O_R   0.282470 0.693930 0.138030 -0.539715
O7    O     O_R   0.782470 0.806070 0.138030 -0.543550
O8    O     O_R   0.217530 0.193930 0.861970 -0.540230
C1    C     C_R   0.704703 0.476474 0.824324 0.696008
C2    C     C_R   0.294252 0.523571 0.175843 0.697967
C3    C     C_R   0.795625 0.976928 0.175554 0.695999
C4    C     C_R   0.205887 0.022408 0.824156 0.698906
O9    O     O_R   0.838690 0.308440 0.993250 -0.532433
O10   O     O_R   0.161310 0.691560 0.006750 -0.539453
O11   O     O_R   0.661310 0.808440 0.006750 -0.537300
O12   O     O_R   0.338690 0.191560 0.993250 -0.538475
O13   O     O_R   0.786170 0.140510 0.130090 -0.536091
O14   O     O_R   0.213830 0.859490 0.869910 -0.540839
O15   O     O_R   0.713830 0.640510 0.869910 -0.541892
O16   O     O_R   0.286170 0.359490 0.130090 -0.540000
C5    C     C_R   0.865267 0.477885 0.998153 0.692805
C6    C     C_R   0.134600 0.522838 0.001265 0.691113
C7    C     C_R   0.634749 0.976935 0.002051 0.690680
C8    C     C_R   0.365333 0.023041 0.998294 0.687504
O17   O     O_3   0.732630 0.472520 0.044740 -0.364712
O18   O     O_3   0.267370 0.527480 0.955260 -0.365510
O19   O     O_3   0.767370 0.972520 0.955260 -0.365315
O20   O     O_3   0.232630 0.027480 0.044740 -0.364416
V1    V     V_3+5 0.753220 0.196740 0.991700 1.491824
V2    V     V_3+5 0.246780 0.803260 0.008300 1.487473
V3    V     V_3+5 0.746780 0.696740 0.008300 1.475151
V4    V     V_3+5 0.253220 0.303260 0.991700 1.487538
H1    H     H_    0.614742 0.973778 0.325722 0.111793
H2    H     H_    0.385424 0.007214 0.674288 0.123223
H3    H     H_    0.883862 0.528587 0.674455 0.125632
H4    H     H_    0.114956 0.522932 0.325406 0.125862
C9    C     C_R   0.534021 0.977028 0.827086 -0.137450
C10   C     C_R   0.465939 0.009609 0.173434 -0.107993
C11   C     C_R   0.965899 0.499714 0.173022 -0.135786
C12   C     C_R   0.033338 0.532765 0.826387 -0.130298
C13   C     C_R   0.486597 0.982688 0.740698 0.248638
C14   C     C_R   0.513051 0.997460 0.259580 0.245581
C15   C     C_R   0.013451 0.507952 0.259288 0.238733
C16   C     C_R   0.985508 0.536864 0.740267 0.245252
C17   C     C_R   0.422378 0.001229 0.740594 -0.087148
C18   C     C_R   0.577639 0.985161 0.259797 -0.121116
C19   C     C_R   0.077852 0.517797 0.259188 -0.095183
C20   C     C_R   0.921152 0.524900 0.740480 -0.093380
C21   C     C_R   0.405107 0.011331 0.825264 -0.145623
C22   C     C_R   0.595008 0.983744 0.175094 -0.129647
C23   C     C_R   0.095117 0.518706 0.174418 -0.148492
C24   C     C_R   0.904220 0.507209 0.825106 -0.149523
C25   C     C_R   0.451989 0.005413 0.913112 0.074931
C26   C     C_R   0.548133 0.992582 0.087304 0.071229
C27   C     C_R   0.048074 0.510682 0.086663 0.071642
C28   C     C_R   0.951503 0.503347 0.912681 0.071358
C29   C     C_R   0.517785 0.989816 0.914081 0.050714
C30   C     C_R   0.482293 0.006123 0.086366 0.033388
C31   C     C_R   0.982193 0.500162 0.085899 0.049865
C32   C     C_R   0.017358 0.516092 0.913420 0.050219
C33   C     C_R   0.434185 0.013571 0.999184 -0.144861
C34   C     C_R   0.565933 0.985902 0.001235 -0.145539
C35   C     C_R   0.065754 0.514448 0.000466 -0.144009
C36   C     C_R   0.933999 0.490632 0.998820 -0.144243
H5    H     H_    0.583539 0.962672 0.825436 0.092166
H6    H     H_    0.416371 0.017805 0.175681 0.108537
H7    H     H_    0.916279 0.490489 0.174911 0.095976
H8    H     H_    0.082943 0.543340 0.824547 0.091818
H9    H     H_    0.354588 0.023432 0.821145 0.095163
H10   H     H_    0.645533 0.972354 0.179097 0.094475
H11   H     H_    0.145768 0.525607 0.178465 0.096813
H12   H     H_    0.853598 0.498624 0.821145 0.095891
C37   C     C_R   0.180312 0.015339 0.721339 -0.046368
C38   C     C_R   0.823847 0.985761 0.277766 -0.044417
C39   C     C_R   0.320593 0.521614 0.278572 -0.036228
C40   C     C_R   0.677375 0.479530 0.721776 -0.055404
C41   C     C_R   0.190315 0.092217 0.566545 -0.147001
C42   C     C_R   0.813755 0.046708 0.433872 -0.141161
C43   C     C_R   0.313472 0.618705 0.432691 -0.145927
C44   C     C_R   0.684799 0.391303 0.566822 -0.143838
C45   C     C_R   0.216511 0.087448 0.663691 -0.144680
C46   C     C_R   0.786599 0.040215 0.337014 -0.151066
C47   C     C_R   0.286204 0.605588 0.335949 -0.143695
C48   C     C_R   0.712359 0.403768 0.663406 -0.154140
C49   C     C_R   0.117089 0.955877 0.681246 -0.202405
C50   C     C_R   0.888739 0.942950 0.315944 -0.207073
C51   C     C_R   0.383676 0.461949 0.317998 -0.190038
C52   C     C_R   0.613630 0.534950 0.683252 -0.200106
C53   C     C_R   0.085322 0.998543 0.585938 0.070693
C54   C     C_R   0.920450 0.985131 0.411590 0.082289
C55   C     C_R   0.416546 0.508301 0.412739 0.084482
C56   C     C_R   0.580910 0.491644 0.587980 0.074134
C57   C     C_R   0.124751 0.046603 0.526185 0.074639
C58   C     C_R   0.880481 0.018069 0.472630 0.078437
C59   C     C_R   0.378232 0.566254 0.472653 0.079672
C60   C     C_R   0.619476 0.438185 0.527544 0.073129
C61   C     C_R   0.016536 0.997839 0.549065 0.011992
C62   C     C_R   0.989402 0.995937 0.448149 -0.015666
C63   C     C_R   0.485161 0.495332 0.449954 -0.004596
C64   C     C_R   0.512234 0.504319 0.550675 -0.003004
C65   C     C_R   0.032146 0.021596 0.388630 -0.081385
C66   C     C_R   0.974026 0.016088 0.609034 -0.061699
C67   C     C_R   0.469147 0.517154 0.609779 -0.065286
C68   C     C_R   0.528047 0.482314 0.390596 -0.098439
C69   C     C_R   0.098512 0.050541 0.428098 -0.092921
C70   C     C_R   0.907153 0.024094 0.570625 -0.105451
C71   C     C_R   0.403969 0.561709 0.570916 -0.084269
C72   C     C_R   0.593451 0.441515 0.429307 -0.114770
H13   H     H_    0.912366 0.870458 0.269970 0.119523
H14   H     H_    0.093759 0.878224 0.726200 0.132969
H15   H     H_    0.591266 0.612948 0.729219 0.131474
H16   H     H_    0.405588 0.379651 0.272892 0.109805
H17   H     H_    0.736036 0.070224 0.308719 0.127046
H18   H     H_    0.265493 0.135463 0.693512 0.114709
H19   H     H_    0.761681 0.359799 0.692395 0.134133
H20   H     H_    0.237643 0.656181 0.306228 0.116279
H21   H     H_    0.221288 0.139354 0.523935 0.130856
H22   H     H_    0.782200 0.079914 0.477749 0.122475
H23   H     H_    0.283772 0.673884 0.475539 0.129863
H24   H     H_    0.714932 0.341867 0.523469 0.124571
N1    N     N_3   0.502872 0.968703 0.652391 -0.671233
H25   H     H_    0.488708 0.096588 0.615220 0.228704
H26   H     H_    0.552620 0.959298 0.663790 0.226426
N2    N     N_3   0.494110 0.985966 0.345884 -0.659346
H27   H     H_    0.534530 0.978839 0.403866 0.230700
H28   H     H_    0.470283 0.113359 0.353276 0.222240
N3    N     N_3   0.997252 0.496355 0.347682 -0.669095
H29   H     H_    0.013577 0.622354 0.385765 0.229972
H30   H     H_    0.947427 0.492251 0.336577 0.230831
N4    N     N_3   0.001521 0.554478 0.651925 -0.673379
H31   H     H_    0.983649 0.432664 0.611111 0.233472
H32   H     H_    0.051316 0.552428 0.662765 0.227072
C73   C     C_1   0.140504 0.080314 0.366455 0.285105
N5    N     N_1   0.173807 0.103629 0.317492 -0.362295
C74   C     C_1   0.865383 0.034059 0.633605 0.289728
N6    N     N_1   0.832447 0.040703 0.683939 -0.371108
C75   C     C_1   0.361957 0.586441 0.632751 0.285659
N7    N     N_1   0.328527 0.605419 0.681842 -0.362662
C76   C     C_1   0.635223 0.419075 0.366978 0.286157
N8    N     N_1   0.668294 0.402604 0.317237 -0.368893
C77   C     C_1   0.010367 0.038044 0.286494 0.327216
N9    N     N_1   0.994193 0.050343 0.204973 -0.355197
C78   C     C_1   0.996516 0.052464 0.710067 0.301248
N10   N     N_1   0.013548 0.080326 0.790666 -0.355129
C79   C     C_1   0.488135 0.470039 0.709678 0.290392
N11   N     N_1   0.502568 0.434265 0.789480 -0.352648
C80   C     C_1   0.508367 0.522929 0.289985 0.337252
N12   N     N_1   0.493434 0.553155 0.209619 -0.350617

loop_
_geom_bond_atom_site_label_1
_geom_bond_atom_site_label_2
_ccdc_geom_bond_type
O17   V3    S    
C44   H24   S    
O1    C5    A    
C8    C33   S    
C12   C32   A    
C27   C31   A    
O19   V1    S    
O13   V1    S    
O3    C7    A    
C80   N12   T    
C56   C60   A    
C44   C48   A    
O15   V3    S    
C40   C48   A    
C61   C62   A    
C14   N2    S    
C29   C34   A    
O7    C3    A    
C67   C79   S    
C31   C36   A    
C22   C26   A    
C32   C35   A    
O9    V1    S    
C42   H22   S    
O10   V2    S    
C10   C14   A    
C41   H21   S    
C9    C13   A    
C79   N11   T    
O4    C8    A    
C16   N4    S    
C78   N10   T    
O1    V3    S    
H4    C19   S    
O2    V4    S    
C14   C18   A    
C13   N1    S    
O3    V1    S    
C53   C61   A    
C5    C36   S    
C57   C69   A    
C6    C35   S    
C10   C30   A    
C52   H15   S    
C65   C77   S    
C1    O15   A    
C7    C34   S    
C58   C70   A    
C10   H6    S    
C2    O16   A    
C27   C35   A    
C45   H18   S    
O2    C6    A    
C28   C36   A    
O14   V2    S    
C1    C40   S    
C17   C21   A    
C44   C60   A    
C40   C52   A    
C12   C16   A    
C61   C66   A    
C30   C33   A    
O11   C7    A    
C63   C68   A    
C60   C72   A    
O12   C8    A    
C21   H9    S    
C4    C37   S    
O17   V1    S    
H1    C18   S    
C68   C80   S    
C23   H11   S    
C38   C46   A    
H3    C20   S    
O20   V4    S    
C37   C45   A    
O16   V4    S    
C54   C58   A    
O5    V1    S    
C65   C69   A    
O7    V3    S    
C51   C55   A    
O19   V3    S    
O8    V4    S    
C52   C56   A    
C74   N6    T    
C50   H13   S    
C49   H14   S    
C50   C54   A    
C15   N3    S    
C25   C29   A    
O18   V4    S    
C19   C23   A    
C51   H16   S    
C26   C34   A    
C64   C67   A    
C28   C32   A    
C43   H23   S    
C71   C75   S    
N4    H32   S    
N3    H30   S    
C43   C59   A    
C24   H12   S    
C2    C39   S    
C42   C46   A    
C63   C64   A    
C41   C45   A    
O8    C4    A    
C11   C31   A    
O9    C5    A    
H2    C17   S    
C38   C50   A    
C37   C49   A    
N1    H25   S    
C59   C71   A    
C9    H5    S    
C70   C74   S    
O6    V2    S    
O18   V2    S    
C48   H19   S    
C73   N5    T    
C66   C78   S    
C25   C33   A    
N3    H29   S    
C68   C72   A    
C56   C64   A    
N2    H28   S    
C26   C30   A    
C39   C51   A    
C3    O13   A    
C49   C53   A    
C69   C73   S    
C11   H7    S    
C47   H20   S    
C46   H17   S    
O5    C1    A    
C3    C38   S    
O6    C2    A    
C72   C76   S    
C11   C15   A    
C76   N8    T    
O11   V3    S    
O12   V4    S    
C62   C65   A    
C75   N7    T    
C18   C22   A    
O10   C6    A    
O20   V2    S    
N4    H31   S    
C22   H10   S    
C77   N9    T    
C43   C47   A    
C39   C47   A    
C42   C58   A    
C21   C25   A    
C41   C57   A    
C66   C70   A    
C23   C27   A    
C53   C57   A    
O4    V2    S    
N1    H26   S    
C55   C59   A    
C16   C20   A    
C20   C24   A    
C12   H8    S    
C4    O14   A    
C13   C17   A    
C67   C71   A    
C55   C63   A    
C15   C19   A    
C54   C62   A    
C9    C29   A    
C24   C28   A    
N2    H27   S    
