data_mof_unit_45653.cif
_audit_creation_date              2013-03-05T16:17:53-0500
_audit_creation_method            fapswitch 2.2
_symmetry_space_group_name_H-M    P1
_symmetry_Int_Tables_number       1
_space_group_crystal_system       triclinic
_cell_length_a                    15.056512
_cell_length_b                    14.974223
_cell_length_c                    10.145147
_cell_angle_alpha                 90.72431
_cell_angle_beta                  89.999167
_cell_angle_gamma                 90.000109
_cell_volume                      2287.13769681

loop_
_atom_site_label
_atom_site_type_symbol
_atom_site_description
_atom_site_fract_x
_atom_site_fract_y
_atom_site_fract_z
_atom_type_partial_charge
O1    O     O_R   0.092530 0.407440 0.616040 -0.618707
O2    O     O_R   0.092530 0.407440 0.383960 -0.606237
O3    O     O_R   0.092530 0.592560 0.383960 -0.618705
O4    O     O_R   0.092530 0.592560 0.616040 -0.606241
O5    O     O_R   0.592530 0.907440 0.616040 -0.618718
O6    O     O_R   0.592530 0.907440 0.383960 -0.606239
O7    O     O_R   0.592530 0.092560 0.383960 -0.618714
O8    O     O_R   0.592530 0.092560 0.616040 -0.606237
C1    C     C_R   0.124511 0.384275 0.499843 0.804190
C2    C     C_R   0.124512 0.615724 0.500156 0.804190
C3    C     C_R   0.624524 0.884291 0.499835 0.804095
C4    C     C_R   0.624524 0.115709 0.500162 0.804106
O9    O     O_R   0.907330 0.407420 0.616040 -0.574481
O10   O     O_R   0.907330 0.407420 0.383960 -0.571871
O11   O     O_R   0.907330 0.592580 0.383960 -0.574484
O12   O     O_R   0.907330 0.592580 0.616040 -0.571871
O13   O     O_R   0.407330 0.907420 0.616040 -0.574477
O14   O     O_R   0.407330 0.907420 0.383960 -0.571854
O15   O     O_R   0.407330 0.092580 0.383960 -0.574477
O16   O     O_R   0.407330 0.092580 0.616040 -0.571853
C5    C     C_R   0.885770 0.373450 0.499627 0.852901
C6    C     C_R   0.885771 0.626550 0.500373 0.852888
C7    C     C_R   0.385768 0.873453 0.499624 0.852945
C8    C     C_R   0.385767 0.126547 0.500376 0.852944
Zn1   Zn    Zn3+2 0.999890 0.500000 0.654960 0.996130
Zn2   Zn    Zn3+2 0.999890 0.500000 0.345040 0.996128
Zn3   Zn    Zn3+2 0.499890 1.000000 0.654960 0.996128
Zn4   Zn    Zn3+2 0.499890 0.000000 0.345040 0.996127
C9    C     C_3   0.820426 0.249318 0.632131 -0.341088
C10   C     C_3   0.840902 0.227117 0.393914 -0.381869
C11   C     C_3   0.820436 0.750686 0.367868 -0.341068
C12   C     C_3   0.840900 0.772882 0.606090 -0.381806
C13   C     C_3   0.320366 0.749357 0.632140 -0.341260
C14   C     C_3   0.340919 0.727089 0.393952 -0.382175
C15   C     C_3   0.320370 0.250645 0.367862 -0.341250
C16   C     C_3   0.340915 0.272911 0.606050 -0.382183
H1    H     H_    0.803026 0.293255 0.716273 0.248550
H2    H     H_    0.857334 0.254414 0.298558 0.241234
H3    H     H_    0.803060 0.706747 0.283713 0.248547
H4    H     H_    0.857301 0.745576 0.701459 0.241229
H5    H     H_    0.302878 0.793294 0.716224 0.248579
H6    H     H_    0.357582 0.754285 0.298641 0.241226
H7    H     H_    0.302883 0.206709 0.283777 0.248581
H8    H     H_    0.357575 0.245713 0.701361 0.241225
H9    H     H_    0.886976 0.220302 0.649113 0.191988
H10   H     H_    0.900574 0.187904 0.422636 0.170984
H11   H     H_    0.886986 0.779716 0.350909 0.191972
H12   H     H_    0.900593 0.812084 0.577396 0.170970
H13   H     H_    0.386912 0.720381 0.649233 0.192068
H14   H     H_    0.400456 0.687788 0.422905 0.170996
H15   H     H_    0.386917 0.279620 0.350770 0.192066
H16   H     H_    0.400454 0.312212 0.577100 0.170998
C17   C     C_3   0.254319 0.672134 0.626292 -0.402828
C18   C     C_3   0.260180 0.664428 0.380236 -0.379107
C19   C     C_3   0.254323 0.327868 0.373710 -0.402834
C20   C     C_3   0.260176 0.335571 0.619765 -0.379103
C21   C     C_3   0.754325 0.172134 0.626336 -0.402587
C22   C     C_3   0.760216 0.164366 0.380316 -0.379173
C23   C     C_3   0.754319 0.827857 0.373648 -0.402542
C24   C     C_3   0.760222 0.835647 0.619664 -0.379175
H17   H     H_    0.290479 0.607205 0.624748 0.160934
H18   H     H_    0.283098 0.593767 0.375697 0.152329
H19   H     H_    0.290484 0.392797 0.375259 0.160934
H20   H     H_    0.283094 0.406232 0.624307 0.152330
H21   H     H_    0.790444 0.107179 0.624869 0.160874
H22   H     H_    0.783204 0.093718 0.375933 0.152301
H23   H     H_    0.790424 0.892820 0.375085 0.160869
H24   H     H_    0.783220 0.906292 0.624009 0.152295
H25   H     H_    0.215256 0.673287 0.717961 0.225916
H26   H     H_    0.224987 0.678775 0.286326 0.220440
H27   H     H_    0.215265 0.326718 0.282039 0.225916
H28   H     H_    0.224980 0.321222 0.713674 0.220443
H29   H     H_    0.715249 0.173354 0.717991 0.225908
H30   H     H_    0.725003 0.178583 0.286364 0.220299
H31   H     H_    0.715238 0.826612 0.282003 0.225913
H32   H     H_    0.725007 0.821458 0.713625 0.220272
H33   H     H_    0.716665 0.400052 0.544382 0.185579
H34   H     H_    0.726251 0.370104 0.373318 0.221256
H35   H     H_    0.716663 0.599957 0.455584 0.185594
H36   H     H_    0.726249 0.629876 0.626664 0.221230
H37   H     H_    0.216667 0.900113 0.544196 0.185474
H38   H     H_    0.226255 0.870029 0.373192 0.221366
H39   H     H_    0.216668 0.099886 0.455803 0.185477
H40   H     H_    0.226251 0.129971 0.626806 0.221362
H41   H     H_    0.116947 0.789695 0.581977 0.205310
H42   H     H_    0.108929 0.778314 0.406682 0.194061
H43   H     H_    0.116951 0.210304 0.418016 0.205314
H44   H     H_    0.108925 0.221684 0.593310 0.194058
H45   H     H_    0.616892 0.289655 0.581895 0.205225
H46   H     H_    0.608998 0.278274 0.406587 0.194110
H47   H     H_    0.616875 0.710347 0.418136 0.205197
H48   H     H_    0.609013 0.721732 0.593448 0.194126
C25   C     C_3   0.728803 0.343226 0.475009 -0.371848
C26   C     C_3   0.728802 0.656772 0.524980 -0.371842
C27   C     C_3   0.228800 0.843235 0.474924 -0.371759
C28   C     C_3   0.228799 0.156765 0.525074 -0.371764
C29   C     C_3   0.820696 0.300286 0.499722 0.121912
C30   C     C_3   0.820697 0.699715 0.500276 0.121912
C31   C     C_3   0.320689 0.800295 0.499704 0.122063
C32   C     C_3   0.320688 0.199704 0.500297 0.122063
C33   C     C_3   0.196965 0.679935 0.499866 0.171381
C34   C     C_3   0.196965 0.320065 0.500133 0.171382
C35   C     C_3   0.696984 0.179913 0.499895 0.171305
C36   C     C_3   0.696984 0.820088 0.500099 0.171278
C37   C     C_3   0.155553 0.774051 0.491324 -0.394637
C38   C     C_3   0.155552 0.225948 0.508671 -0.394633
C39   C     C_3   0.655566 0.274022 0.491300 -0.394443
C40   C     C_3   0.655567 0.725980 0.508715 -0.394418
C41   C     C_3   0.052771 0.423850 0.076596 0.017346
C42   C     C_3   0.043810 0.419515 0.918386 0.012829
C43   C     C_3   0.052765 0.576154 0.923401 0.017356
C44   C     C_3   0.043805 0.580488 0.081611 0.012828
C45   C     C_3   0.552765 0.923848 0.076596 0.017338
C46   C     C_3   0.543803 0.919513 0.918389 0.012807
C47   C     C_3   0.552768 0.076150 0.923403 0.017341
C48   C     C_3   0.543807 0.080485 0.081610 0.012808
H49   H     H_    0.124333 0.436851 0.097718 0.099581
H50   H     H_    0.113034 0.417484 0.879755 0.127385
H51   H     H_    0.124328 0.563158 0.902275 0.099580
H52   H     H_    0.113030 0.582523 0.120238 0.127386
H53   H     H_    0.624328 0.936845 0.097717 0.099587
H54   H     H_    0.613026 0.917472 0.879753 0.127378
H55   H     H_    0.624331 0.063150 0.902279 0.099584
H56   H     H_    0.613030 0.082523 0.120243 0.127379
C49   C     C_3   0.906057 0.487423 0.075823 0.312934
C50   C     C_3   0.906056 0.512569 0.924184 0.312920
C51   C     C_3   0.406057 0.987433 0.075826 0.312951
C52   C     C_3   0.406058 0.012570 0.924177 0.312948
N1    N     N_3   0.998760 0.500000 0.138610 -0.152265
N2    N     N_3   0.998760 0.500000 0.861390 -0.152263
N3    N     N_3   0.498760 1.000000 0.138610 -0.152270
N4    N     N_3   0.498760 0.000000 0.861390 -0.152269
I1    I     I_    0.053468 0.290009 0.164216 -0.310116
I2    I     I_    0.002800 0.294292 0.832325 -0.312040
I3    I     I_    0.053450 0.709994 0.835776 -0.310120
I4    I     I_    0.002794 0.705710 0.167676 -0.312054
I5    I     I_    0.553454 0.790006 0.164215 -0.310124
I6    I     I_    0.502765 0.794298 0.832354 -0.311991
I7    I     I_    0.553465 0.209993 0.835787 -0.310121
I8    I     I_    0.502774 0.205702 0.167648 -0.311987
I9    I     I_    0.845914 0.355904 0.088982 -0.260801
I10   I     I_    0.789489 0.467566 0.815688 -0.257250
I11   I     I_    0.845904 0.644084 0.911040 -0.260797
I12   I     I_    0.789487 0.532421 0.184330 -0.257265
I13   I     I_    0.345887 0.855921 0.089128 -0.260765
I14   I     I_    0.289498 0.967521 0.815735 -0.257219
I15   I     I_    0.345894 0.144085 0.910879 -0.260761
I16   I     I_    0.289497 0.032484 0.184270 -0.257226

loop_
_geom_bond_atom_site_label_1
_geom_bond_atom_site_label_2
_geom_bond_distance
_ccdc_geom_bond_type
C7    C31   1.469766 S    
C6    C30   1.469800 S    
C25   C29   1.547484 S    
C18   C33   1.557456 S    
C43   C44   1.611210 S    
C14   H6    1.083392 S    
C17   H25   1.100307 S    
C42   H50   1.113803 S    
O4    Zn1   2.009060 S    
C41   H49   1.115224 S    
C50   I10   2.174255 S    
C48   N3    1.504837 S    
C19   C34   1.551858 S    
C26   C40   1.523624 S    
O13   C7    1.320538 A    
C23   C36   1.551849 S    
O10   C5    1.325218 A    
H46   C39   1.111614 S    
O5    C3    1.315937 A    
H37   C27   1.112443 S    
C27   C31   1.547529 S    
C26   C30   1.547493 S    
C49   I12   2.174290 S    
C11   C23   1.525805 S    
C47   C48   1.611189 S    
C10   C22   1.540952 S    
C50   I11   2.173237 S    
H44   C38   1.111591 S    
C10   H2    1.083582 S    
C43   H51   1.115227 S    
H40   C28   1.112711 S    
C11   C30   1.553371 S    
C21   H29   1.100294 S    
C27   C37   1.523666 S    
C23   H23   1.114294 S    
O5    Zn3   2.002166 S    
C17   H17   1.114265 S    
H48   C40   1.111613 S    
O11   C6    1.320515 A    
O6    Zn4   2.009073 S    
O16   C8    1.325194 A    
C49   I9    2.173253 S    
C1    C34   1.454174 S    
C20   H28   1.113474 S    
C19   H19   1.114264 S    
C20   H20   1.113334 S    
C34   C38   1.544527 S    
C3    C36   1.454181 S    
C44   N1    1.504854 S    
C15   H7    1.102582 S    
C16   H16   1.113806 S    
C51   I16   2.174092 S    
C46   I6    2.148922 S    
C11   H11   1.106556 S    
O1    Zn1   2.002166 S    
Zn3   N4    2.094333 S    
C12   H12   1.114196 S    
O9    Zn1   2.001536 S    
C44   I4    2.149015 S    
H41   C37   1.110448 S    
Zn1   N2    2.094333 S    
C52   N4    1.544771 S    
C22   H22   1.113429 S    
C47   N4    1.529444 S    
O3    Zn2   2.002169 S    
C13   C17   1.525731 S    
O7    C4    1.315932 A    
C21   C35   1.551856 S    
C14   H14   1.113807 S    
C33   C37   1.544525 S    
C47   H55   1.115227 S    
C15   C19   1.525734 S    
O14   C7    1.325190 A    
O13   Zn3   2.001536 S    
O1    C1    1.315863 A    
H35   C26   1.112537 S    
O2    Zn2   2.009073 S    
C17   C33   1.551862 S    
O6    C3    1.320796 A    
C44   H52   1.113805 S    
O11   Zn2   2.001531 S    
C18   H18   1.113334 S    
C41   I1    2.202726 S    
C24   H32   1.113586 S    
O7    Zn4   2.002169 S    
C9    H9    1.106518 S    
C13   C31   1.553370 S    
C19   H27   1.100303 S    
C16   C20   1.540859 S    
C5    C29   1.469795 S    
C43   N2    1.529449 S    
C18   H26   1.113475 S    
O8    C4    1.320800 A    
C47   I7    2.202735 S    
H45   C39   1.110481 S    
C14   C31   1.554276 S    
O14   Zn4   2.008430 S    
C16   C32   1.554273 S    
O10   Zn2   2.008430 S    
O15   Zn4   2.001531 S    
Zn2   N1    2.094333 S    
C51   I13   2.173419 S    
C9    C21   1.525802 S    
C14   C18   1.540863 S    
C15   H15   1.106401 S    
C49   C50   1.588424 S    
C45   I5    2.202738 S    
C16   H8    1.083384 S    
H42   C37   1.111593 S    
C12   C24   1.540966 S    
H36   C26   1.112829 S    
C51   C52   1.588487 S    
C23   H31   1.100284 S    
C36   C40   1.544488 S    
C22   H30   1.113581 S    
C45   C46   1.611190 S    
O12   Zn1   2.008441 S    
C28   C38   1.523663 S    
O12   C6    1.325225 A    
H38   C27   1.112710 S    
C45   N3    1.529439 S    
C8    C32   1.469767 S    
C46   N4    1.504841 S    
H47   C40   1.110490 S    
C10   H10   1.114116 S    
C2    C33   1.454171 S    
O4    C2    1.320853 A    
C21   H21   1.114298 S    
C35   C39   1.544500 S    
C52   I15   2.173414 S    
O16   Zn3   2.008441 S    
C9    C29   1.553354 S    
Zn4   N3    2.094333 S    
C13   H5    1.102584 S    
O15   C8    1.320536 A    
C20   C34   1.557460 S    
O3    C2    1.315868 A    
C24   C36   1.557274 S    
C41   C42   1.611209 S    
O9    C5    1.320520 A    
C41   N1    1.529454 S    
C52   I14   2.174095 S    
C4    C35   1.454177 S    
H43   C38   1.110447 S    
H39   C28   1.112439 S    
C28   C32   1.547529 S    
H33   C25   1.112500 S    
C12   C30   1.554215 S    
C42   N2    1.504850 S    
C12   H4    1.083661 S    
C43   I3    2.202734 S    
C51   N3    1.544777 S    
C42   I2    2.149017 S    
C46   H54   1.113801 S    
C49   N1    1.544798 S    
C45   H53   1.115227 S    
C24   H24   1.113430 S    
C9    H1    1.102713 S    
C11   H3    1.102747 S    
O8    Zn3   2.009060 S    
C50   N2    1.544812 S    
C10   C29   1.554201 S    
C22   C35   1.557295 S    
H34   C25   1.112792 S    
C48   H56   1.113802 S    
O2    C1    1.320858 A    
C13   H13   1.106402 S    
C25   C39   1.523625 S    
C15   C32   1.553374 S    
C48   I8    2.148928 S    
