data_mof_unit_36420.cif
_audit_creation_date              2012-10-26T21:07:45-0400
_audit_creation_method            fapswitch 2.2
_symmetry_space_group_name_H-M    P1
_symmetry_Int_Tables_number       1
_space_group_crystal_system       triclinic
_cell_length_a                    10.890761
_cell_length_b                    9.096085
_cell_length_c                    7.796577
_cell_angle_alpha                 90.007901
_cell_angle_beta                  101.364916
_cell_angle_gamma                 90.000757
_cell_volume                      757.210232568

loop_
_atom_site_label
_atom_site_type_symbol
_atom_type_description
_atom_site_fract_x
_atom_site_fract_y
_atom_site_fract_z
_atom_type_partial_charge
C1    C     C_R   0.500088 0.220065 0.500019 0.572067
C2    C     C_1   0.500171 0.934634 0.500063 -0.006361
C3    C     C_R   0.500114 0.779945 0.500039 0.545923
C4    C     C_R   0.261052 0.506815 0.431698 0.521292
C5    C     C_R   0.738327 0.497150 0.568308 0.543856
C6    C     C_2   0.124175 0.526633 0.399369 0.213222
C7    C     C_2   0.874064 0.484131 0.600737 0.223477
C8    C     C_2   0.072471 0.571695 0.534284 -0.083610
C9    C     C_2   0.937968 0.584292 0.527065 -0.074510
C10   C     C_1   0.500168 0.065387 0.500045 0.004300
Cu1   Cu    Cu3+1 0.500010 0.500000 0.669080 1.104344
Cu2   Cu    Cu3+1 0.499990 0.500000 0.330920 1.118948
H1    H     H_    0.889949 0.678745 0.459193 0.145958
H2    H     H_    0.130987 0.594795 0.661158 0.173597
H3    H     H_    0.837903 0.307091 0.896262 0.392512
H4    H     H_    0.130932 0.279118 0.165623 0.360372
N1    N     N_1   0.499980 0.500000 0.076820 -0.052405
N2    N     N_1   0.500020 0.500000 0.923180 -0.055320
O1    O     O_R   0.500010 0.288400 0.642760 -0.483233
O2    O     O_2   0.069730 0.337081 0.794323 -0.230706
O3    O     O_3   0.848719 0.233248 0.807144 -0.460231
O4    O     O_2   0.901075 0.531099 0.166954 -0.261555
O5    O     O_2   0.092882 0.560905 0.052602 -0.250360
O6    O     O_3   0.041227 0.301762 0.159650 -0.437184
O7    O     O_R   0.499990 0.711600 0.357240 -0.497896
O8    O     O_R   0.499990 0.288400 0.357240 -0.495847
O9    O     O_R   0.500010 0.711600 0.642760 -0.498000
O10   O     O_R   0.320690 0.500000 0.590310 -0.516804
O11   O     O_R   0.679310 0.500000 0.409690 -0.485326
O12   O     O_R   0.320680 0.500000 0.304730 -0.475356
O13   O     O_R   0.679320 0.500000 0.695270 -0.493642
O14   O     O_2   0.950579 0.216198 0.534829 -0.211798
S1    S     S_3+6 0.940892 0.315097 0.685946 0.089109
S2    S     S_3+6 0.035641 0.484599 0.188784 0.061169

loop_
_geom_bond_atom_site_label_1
_geom_bond_atom_site_label_2
_ccdc_geom_bond_type
Cu2   N1    S    
C6    C8    D    
Cu1   Cu2   S    
Cu1   N2    S    
Cu2   O11   S    
C5    C7    S    
Cu1   O9    S    
Cu2   O7    S    
O5    S2    D    
O14   S1    D    
C3    O9    A    
N1    N2    T    
Cu1   O13   S    
H4    O6    S    
C7    S1    S    
Cu1   O1    S    
Cu1   O10   S    
O2    S1    D    
C4    O10   A    
C2    C3    S    
C5    O11   A    
C1    O8    A    
O4    S2    D    
O6    S2    S    
C1    O1    A    
O3    S1    S    
C2    C10   T    
H3    O3    S    
C3    O7    A    
C4    C6    S    
C7    C9    D    
C9    H1    S    
C8    H2    S    
Cu2   O12   S    
C4    O12   A    
C1    C10   S    
C6    S2    S    
Cu2   O8    S    
C8    C9    S    
C5    O13   A    
