data_mof_unit_43677.cif
_audit_creation_date              2012-12-10T16:46:43-0500
_audit_creation_method            fapswitch 2.2
_symmetry_space_group_name_H-M    P1
_symmetry_Int_Tables_number       1
_space_group_crystal_system       triclinic
_cell_length_a                    15.849932
_cell_length_b                    8.693441
_cell_length_c                    7.452557
_cell_angle_alpha                 103.007118
_cell_angle_beta                  94.041405
_cell_angle_gamma                 92.180939
_cell_volume                      996.518377042

loop_
_atom_site_label
_atom_site_type_symbol
_atom_type_description
_atom_site_fract_x
_atom_site_fract_y
_atom_site_fract_z
_atom_type_partial_charge
C1    C     C_R   0.497489 0.199739 0.453271 0.879265
C2    C     C_3   0.952445 0.412318 0.642506 -0.377039
C3    C     C_3   0.917091 0.499754 0.495951 0.335054
C4    C     C_3   0.956070 0.671714 0.545640 -0.381213
C5    C     C_3   0.053951 0.672034 0.550458 -0.378342
C6    C     C_1   0.824804 0.499517 0.492267 -0.118873
C7    C     C_1   0.175197 0.500524 0.507738 -0.118790
C8    C     C_1   0.250811 0.500431 0.507605 -0.174252
C9    C     C_2   0.496284 0.031847 0.427027 -0.372762
C10   C     C_2   0.503714 0.968153 0.572974 -0.372723
C11   C     C_R   0.340321 0.499906 0.502602 0.823771
C12   C     C_R   0.502510 0.800261 0.546729 0.879250
C13   C     C_R   0.659679 0.500098 0.497399 0.823775
C14   C     C_3   0.050319 0.412641 0.647277 -0.379884
C15   C     C_3   0.042550 0.415956 0.309468 -0.378753
C16   C     C_3   0.944675 0.415634 0.304699 -0.377906
C17   C     C_1   0.749190 0.499593 0.492398 -0.174253
C18   C     C_3   0.082910 0.500300 0.504054 0.335353
Cu1   Cu    Cu3+1 0.509300 0.517380 0.684380 0.950451
Cu2   Cu    Cu3+1 0.490700 0.482620 0.315620 0.950451
H1    H     H_    0.925440 0.288169 0.609807 0.159642
H2    H     H_    0.078314 0.471230 0.788485 0.159446
H3    H     H_    0.933491 0.470697 0.781502 0.158697
H4    H     H_    0.931765 0.737138 0.442134 0.158511
H5    H     H_    0.489278 0.960281 0.286359 0.179704
H6    H     H_    0.510720 0.039719 0.713641 0.179712
H7    H     H_    0.434947 0.376773 0.948703 0.225473
H8    H     H_    0.565053 0.623227 0.051297 0.225448
H9    H     H_    0.070279 0.288666 0.616767 0.158956
H10   H     H_    0.064972 0.476900 0.203829 0.158797
H11   H     H_    0.917500 0.291571 0.265865 0.160116
H12   H     H_    0.920150 0.476488 0.196890 0.159070
H13   H     H_    0.082000 0.735237 0.689932 0.160002
H14   H     H_    0.076620 0.737631 0.449263 0.159060
N1    N     N_2   0.476670 0.456430 0.038530 -0.215710
N2    N     N_2   0.523330 0.543570 0.961470 -0.215720
O1    O     O_R   0.506050 0.286130 0.619770 -0.584313
O2    O     O_R   0.490330 0.256780 0.308370 -0.586774
O3    O     O_R   0.387300 0.514690 0.655770 -0.583640
O4    O     O_R   0.371580 0.485340 0.344370 -0.576230
O5    O     O_R   0.509670 0.743220 0.691630 -0.586780
O6    O     O_R   0.493950 0.713870 0.380230 -0.584330
O7    O     O_R   0.628420 0.514660 0.655630 -0.576237
O8    O     O_R   0.612700 0.485310 0.344230 -0.583648
H15   H     H_    0.062339 0.292021 0.272798 0.159016
H16   H     H_    0.937147 0.734808 0.682814 0.159153

loop_
_geom_bond_atom_site_label_1
_geom_bond_atom_site_label_2
_ccdc_geom_bond_type
C15   C18   S    
Cu2   O6    S    
C12   O5    A    
C1    O1    A    
C16   H12   S    
Cu2   O2    S    
C9    C10   D    
C14   C18   S    
Cu1   Cu2   S    
C13   C17   S    
C7    C18   S    
C5    H14   S    
C10   H6    S    
C2    H1    S    
C2    C3    S    
C2    C14   S    
C9    H5    S    
C7    C8    T    
C4    H16   S    
C16   H11   S    
C11   O3    A    
C14   H2    S    
C10   C12   S    
C1    O2    A    
C8    C11   S    
Cu2   O4    S    
Cu1   O3    S    
Cu2   O8    S    
Cu1   O7    S    
Cu1   N2    S    
C11   O4    A    
C4    H4    S    
C15   H15   S    
C14   H9    S    
C15   C16   S    
Cu1   O5    S    
C13   O7    A    
C1    C9    S    
H8    N2    S    
C15   H10   S    
C3    C6    S    
C2    H3    S    
C6    C17   T    
C12   O6    A    
C5    C18   S    
Cu1   O1    S    
H7    N1    S    
Cu2   N1    S    
C3    C16   S    
C13   O8    A    
C3    C4    S    
N1    N2    D    
C4    C5    S    
C5    H13   S    
