data_mof_unit_8700.cif
_audit_creation_date              2012-12-10T19:00:13-0500
_audit_creation_method            fapswitch 2.2
_symmetry_space_group_name_H-M    P1
_symmetry_Int_Tables_number       1
_space_group_crystal_system       triclinic
_cell_length_a                    9.563514
_cell_length_b                    10.848726
_cell_length_c                    13.518515
_cell_angle_alpha                 91.186567
_cell_angle_beta                  73.673875
_cell_angle_gamma                 90.825937
_cell_volume                      1345.67397186

loop_
_atom_site_label
_atom_site_type_symbol
_atom_type_description
_atom_site_fract_x
_atom_site_fract_y
_atom_site_fract_z
_atom_type_partial_charge
C1    C     C_R   0.499859 0.737665 0.502975 0.884617
C2    C     C_R   0.452375 0.463013 0.973666 0.067177
C3    C     C_R   0.497142 0.459191 0.864633 -0.096401
C4    C     C_R   0.556768 0.493387 0.027741 -0.123405
C5    C     C_R   0.706541 0.504312 0.972984 -0.309255
C6    C     C_R   0.750588 0.481139 0.867156 0.741930
C7    C     C_R   0.648500 0.452968 0.815432 -0.171862
C8    C     C_R   0.516659 0.516863 0.134359 0.537661
C9    C     C_R   0.768741 0.539409 0.132811 0.472136
C10   C     C_R   0.388922 0.455432 0.809753 -0.321599
C11   C     C_R   0.369746 0.934353 0.517771 -0.089633
C12   C     C_R   0.424641 0.486012 0.698598 0.879458
C13   C     C_R   0.497172 0.871021 0.514339 -0.169120
C14   C     C_R   0.619135 0.939058 0.524930 0.647292
C15   C     C_R   0.617309 0.067529 0.524497 -0.269186
C16   C     C_R   0.494890 0.129467 0.512769 -0.128528
C17   C     C_R   0.368843 0.061393 0.516410 -0.006718
C18   C     C_3   0.274130 0.062168 0.445593 -0.340140
C19   C     C_3   0.272122 0.922667 0.449043 0.498165
C20   C     C_R   0.942377 0.405012 0.454590 0.018568
C21   C     C_R   0.904843 0.584457 0.556481 0.740201
C22   C     C_R   0.053734 0.584747 0.556025 -0.054207
C23   C     C_R   0.498706 0.262349 0.501870 0.817168
C24   C     C_R   0.090326 0.405685 0.453417 0.183438
C25   C     C_3   0.133949 0.371910 0.341348 0.409096
C26   C     C_3   0.974797 0.364806 0.345027 -0.430069
C27   C     C_R   0.577361 0.509236 0.300947 0.934213
C28   C     C_R   0.809572 0.535774 0.025731 0.691028
C29   C     C_R   0.622197 0.521469 0.188134 -0.376448
C30   C     C_R   0.246103 0.420165 0.862903 0.596161
C31   C     C_R   0.208534 0.400277 0.968595 0.639588
C32   C     C_R   0.308199 0.425855 0.024112 -0.230967
Cu1   Cu    Cu3+1 0.359330 0.500020 0.500010 1.066841
Cu2   Cu    Cu3+1 0.640670 0.499980 0.499990 1.056523
H1    H     H_    0.693711 0.417831 0.738221 0.185963
N1    N     N_R   0.852320 0.499070 0.499340 -0.245938
N2    N     N_R   0.148230 0.499110 0.499340 -0.249184
O1    O     O_R   0.381190 0.680360 0.500000 -0.589496
O2    O     O_R   0.618780 0.680320 0.499990 -0.482158
O3    O     O_R   0.323230 0.500000 0.650990 -0.517696
O4    O     O_R   0.560820 0.499960 0.650980 -0.582938
O5    O     O_R   0.381220 0.319680 0.500010 -0.557966
O6    O     O_R   0.618810 0.319640 0.500000 -0.609336
O7    O     O_R   0.439180 0.500040 0.349020 -0.531259
O8    O     O_R   0.676770 0.500000 0.349010 -0.555955
F1    F     F_    0.871435 0.567406 0.181496 -0.598906
H2    H     H_    0.714640 0.117665 0.528002 0.193819
H3    H     H_    0.166071 0.103925 0.482387 0.195793
H4    H     H_    0.333720 0.097576 0.368570 0.276452
H5    H     H_    0.163769 0.881721 0.487646 0.113196
F2    F     F_    0.341075 0.869001 0.354280 -0.593323
F3    F     F_    0.814558 0.670249 0.614061 -0.590504
H6    H     H_    0.093190 0.654611 0.600028 0.174256
H7    H     H_    0.193082 0.446548 0.292599 0.190718
F4    F     F_    0.200552 0.258867 0.320578 -0.659975
H8    H     H_    0.944991 0.433895 0.295809 0.260228
F5    F     F_    0.893160 0.482294 0.812654 -0.560496
H9    H     H_    0.934506 0.269580 0.336760 0.234267
F6    F     F_    0.949739 0.562807 0.974127 -0.535002
F7    F     F_    0.379437 0.552890 0.183478 -0.635929
F8    F     F_    0.145535 0.396673 0.811464 -0.543462
H10   H     H_    0.273180 0.407392 0.105470 0.235271
F9    F     F_    0.074387 0.355732 0.018060 -0.586406
F10   F     F_    0.743135 0.882987 0.529190 -0.597758

loop_
_geom_bond_atom_site_label_1
_geom_bond_atom_site_label_2
_ccdc_geom_bond_type
C12   O3    A    
C2    C4    A    
C6    C7    A    
C15   H2    S    
C27   C29   S    
C5    C28   A    
C26   H9    S    
C10   C30   A    
C23   O5    A    
Cu1   O1    S    
C19   H5    S    
C9    C29   A    
C4    C8    A    
C14   F10   S    
C22   H6    S    
C27   O8    A    
C2    C3    A    
C32   H10   S    
C9    F1    S    
Cu2   O8    S    
C31   C32   A    
C13   C14   A    
C24   C25   S    
C21   N1    A    
C11   C13   A    
C6    F5    S    
C11   C19   S    
C30   C31   A    
Cu2   O4    S    
C20   C26   S    
C1    O1    A    
C8    C29   A    
C10   C12   S    
Cu1   Cu2   S    
C17   C18   S    
C16   C23   S    
Cu2   N1    S    
C5    C6    A    
C30   F8    S    
Cu1   O3    S    
C1    C13   S    
C15   C16   A    
Cu1   O5    S    
Cu2   O2    S    
C20   N1    A    
C16   C17   A    
C19   F2    S    
C31   F9    S    
C23   O6    A    
C25   H7    S    
C9    C28   A    
C12   O4    A    
C2    C32   A    
C18   C19   S    
C28   F6    S    
C24   N2    A    
C3    C10   A    
C8    F7    S    
C1    O2    A    
C14   C15   A    
C11   C17   A    
C3    C7    A    
C25   C26   S    
C21   C22   A    
C22   N2    A    
C7    H1    S    
C27   O7    A    
C20   C24   A    
C21   F3    S    
Cu1   N2    S    
Cu2   O6    S    
C25   F4    S    
C18   H4    S    
C18   H3    S    
C4    C5    A    
Cu1   O7    S    
C26   H8    S    
