data_mof_unit_66630.cif
_audit_creation_date              2013-03-05T15:41:22-0500
_audit_creation_method            fapswitch 2.2
_symmetry_space_group_name_H-M    P1
_symmetry_Int_Tables_number       1
_space_group_crystal_system       triclinic
_cell_length_a                    7.946809
_cell_length_b                    8.630363
_cell_length_c                    10.813868
_cell_angle_alpha                 91.512902
_cell_angle_beta                  83.743213
_cell_angle_gamma                 94.411887
_cell_volume                      734.932875202

loop_
_atom_site_label
_atom_site_type_symbol
_atom_site_description
_atom_site_fract_x
_atom_site_fract_y
_atom_site_fract_z
_atom_type_partial_charge
O1    O     O_R   0.389250 0.738570 0.508370 -0.632075
O2    O     O_R   0.678390 0.711620 0.486510 -0.589095
C1    C     C_R   0.546124 0.793312 0.496156 0.833950
O3    O     O_R   0.355430 0.513500 0.696140 -0.580962
O4    O     O_R   0.644580 0.486550 0.674270 -0.671994
C2    C     C_R   0.499123 0.497308 0.740730 0.905640
Zn1   Zn    Zn3+2 0.306940 0.517990 0.514600 1.092996
Zn2   Zn    Zn3+2 0.693060 0.482010 0.485400 1.120339
O5    O     O_R   0.321610 0.288380 0.513490 -0.575554
O6    O     O_R   0.610750 0.261430 0.491630 -0.576959
O7    O     O_R   0.355420 0.513450 0.325730 -0.558051
O8    O     O_R   0.644570 0.486500 0.303860 -0.521231
C3    C     C_R   0.455374 0.205963 0.503484 1.008628
C4    C     C_R   0.500684 0.501923 0.257810 0.938535
C5    C     C_3   0.332499 0.557054 0.942543 -0.416741
H1    H     H_    0.220505 0.473773 0.938311 0.293321
H2    H     H_    0.302333 0.664221 0.896675 0.208703
C6    C     C_3   0.357964 0.596694 0.077563 0.044192
H3    H     H_    0.402689 0.722388 0.073673 0.174600
C7    C     C_3   0.503539 0.316453 0.919105 0.015892
C8    C     C_3   0.661207 0.599855 0.913935 -0.211544
C9    C     C_3   0.500051 0.491511 0.876252 -0.188307
C10   C     C_3   0.500552 0.495520 0.119832 -0.306039
C11   C     C_3   0.478818 0.315159 0.069182 0.355390
C12   C     C_3   0.661058 0.593226 0.057517 -0.003036
H4    H     H_    0.652632 0.715174 0.094485 0.164098
C13   C     C_2   0.574293 0.955926 0.492770 0.137404
C14   C     C_2   0.436902 0.041647 0.506041 -0.373188
H5    H     H_    0.307295 0.989807 0.519151 0.209551
N1    N     N_2   0.950330 0.457950 0.465890 -0.099773
H6    H     H_    0.008949 0.370296 0.415977 0.271876
N2    N     N_2   0.049670 0.542050 0.534110 -0.147065
H7    H     H_    0.991444 0.631567 0.581713 0.202724
N3    N     N_R   0.818693 0.552457 0.097288 0.245848
O9    O     O_R   0.885839 0.647082 0.176499 -0.270125
O10   O     O_R   0.886215 0.424104 0.061092 -0.294509
C15   C     C_1   0.669665 0.258347 0.869110 0.309925
N4    N     N_1   0.798035 0.211571 0.830268 -0.026862
N5    N     N_R   0.598700 0.207093 0.111029 0.216603
O11   O     O_R   0.688747 0.237958 0.202732 -0.267896
O12   O     O_R   0.582479 0.061847 0.075629 -0.341574
N6    N     N_R   0.748395 0.018260 0.474511 0.239236
O13   O     O_R   0.832955 0.008561 0.364946 -0.248149
O14   O     O_R   0.830309 0.051623 0.570721 -0.376228
N7    N     N_R   0.201634 0.600626 0.160548 0.278124
O15   O     O_R   0.117743 0.472534 0.198211 -0.248311
O16   O     O_R   0.178879 0.727124 0.227265 -0.285953
N8    N     N_R   0.375829 0.206564 0.865407 0.218688
O17   O     O_R   0.260796 0.251628 0.800355 -0.351363
O18   O     O_R   0.370472 0.059119 0.889181 -0.327510
N9    N     N_R   0.308330 0.248335 0.121295 0.258652
O19   O     O_R   0.288550 0.198706 0.235067 -0.326263
O20   O     O_R   0.176877 0.232652 0.058760 -0.221295
C16   C     C_1   0.830526 0.565177 0.851479 0.316768
N10   N     N_1   0.963829 0.539391 0.805030 -0.155892
C17   C     C_1   0.648085 0.760736 0.874393 0.206082
N11   N     N_1   0.641190 0.885380 0.840054 -0.074217

loop_
_geom_bond_atom_site_label_1
_geom_bond_atom_site_label_2
_geom_bond_distance
_ccdc_geom_bond_type
C4    C10   1.491753 S    
C5    C6    1.522252 S    
N1    N2    1.305665 D    
C10   C11   1.639207 S    
C3    C14   1.415102 S    
C5    H2    1.114976 S    
C15   N4    1.158049 T    
O4    Zn2   2.036666 S    
C12   N3    1.439173 S    
Zn2   O8    2.043319 S    
Zn2   N1    2.058274 S    
N2    H7    1.028602 S    
C11   N9    1.488718 S    
N8    O18   1.301431 A    
O2    C1    1.303447 A    
N9    O19   1.302754 A    
N5    O12   1.301939 A    
O1    Zn1   1.965197 S    
C8    C9    1.609318 S    
Zn1   O7    2.036664 S    
C7    C15   1.489490 S    
C13   N6    1.440199 S    
C7    N8    1.489264 S    
N6    O14   1.300788 A    
O3    Zn1   2.043319 S    
O4    C2    1.301227 A    
C1    C13   1.404865 S    
N8    O17   1.300424 A    
C7    C9    1.595077 S    
C6    H3    1.115649 S    
C8    C17   1.478137 S    
N3    O10   1.300380 A    
C10   C12   1.571382 S    
C8    C16   1.486410 S    
O7    C4    1.308038 A    
O2    Zn2   1.993621 S    
O3    C2    1.305408 A    
N6    O13   1.300862 A    
C6    C10   1.594211 S    
C2    C9    1.468535 S    
C6    N7    1.453168 S    
C7    C11   1.613602 S    
C13   C14   1.358117 D    
C11   N5    1.495054 S    
C17   N11   1.154411 T    
Zn2   O6    1.965196 S    
N3    O9    1.296537 A    
N7    O16   1.305916 A    
N5    O11   1.295313 A    
Zn1   O5    1.993621 S    
C8    C12   1.555116 S    
C16   N10   1.156891 T    
C14   H5    1.087062 S    
O5    C3    1.317116 A    
Zn1   N2    2.058274 S    
N9    O20   1.301639 A    
C12   H4    1.120156 S    
N7    O15   1.297544 A    
C5    C9    1.578985 S    
N1    H6    1.028813 S    
C5    H1    1.104308 S    
O8    C4    1.313076 A    
O1    C1    1.292888 A    
O6    C3    1.283732 A    
