data_mof_unit_62105.cif
_audit_creation_date              2013-03-05T15:48:03-0500
_audit_creation_method            fapswitch 2.2
_symmetry_space_group_name_H-M    P1
_symmetry_Int_Tables_number       1
_space_group_crystal_system       triclinic
_cell_length_a                    14.251377
_cell_length_b                    14.217451
_cell_length_c                    28.451377
_cell_angle_alpha                 90.018731
_cell_angle_beta                  89.687548
_cell_angle_gamma                 120.459081
_cell_volume                      4969.08703145

loop_
_atom_site_label
_atom_site_type_symbol
_atom_site_description
_atom_site_fract_x
_atom_site_fract_y
_atom_site_fract_z
_atom_type_partial_charge
O1    O     O_R   0.479630 0.139450 0.552170 -0.495214
O2    O     O_R   0.860550 0.340180 0.552170 -0.492168
O3    O     O_R   0.659820 0.520370 0.552170 -0.498432
O4    O     O_R   0.139450 0.479630 0.052170 -0.492464
O5    O     O_R   0.340180 0.860550 0.052170 -0.495173
O6    O     O_R   0.520370 0.659820 0.052170 -0.496244
O7    O     O_R   0.516200 0.360080 0.548600 -0.492376
O8    O     O_R   0.639920 0.156120 0.548600 -0.495744
O9    O     O_R   0.843880 0.483800 0.548600 -0.488673
O10   O     O_R   0.360080 0.516200 0.048600 -0.492108
O11   O     O_R   0.156120 0.639920 0.048600 -0.486538
O12   O     O_R   0.483800 0.843880 0.048600 -0.491854
C1    C     C_R   0.572520 0.448592 0.569574 0.565923
C2    C     C_R   0.551645 0.125579 0.569783 0.564794
C3    C     C_R   0.868847 0.422653 0.570746 0.573439
C4    C     C_R   0.447430 0.573836 0.070128 0.569520
C5    C     C_R   0.116612 0.548059 0.067844 0.566734
C6    C     C_R   0.430325 0.882710 0.067992 0.559407
O13   O     O_R   0.478560 0.139320 0.448720 -0.488177
O14   O     O_R   0.860680 0.339240 0.448720 -0.465979
O15   O     O_R   0.660760 0.521440 0.448720 -0.494527
O16   O     O_R   0.139320 0.478560 0.948720 -0.478459
O17   O     O_R   0.339240 0.860680 0.948720 -0.495419
O18   O     O_R   0.521440 0.660760 0.948720 -0.488034
O19   O     O_R   0.515210 0.359960 0.452710 -0.494231
O20   O     O_R   0.640040 0.155250 0.452710 -0.504876
O21   O     O_R   0.844750 0.484790 0.452710 -0.469523
O22   O     O_R   0.359960 0.515210 0.952710 -0.502292
O23   O     O_R   0.155250 0.640040 0.952710 -0.478713
O24   O     O_R   0.484790 0.844750 0.952710 -0.494286
C7    C     C_R   0.569983 0.451032 0.432881 0.558198
C8    C     C_R   0.549642 0.119875 0.432818 0.557661
C9    C     C_R   0.841218 0.407164 0.426812 0.529319
C10   C     C_R   0.451444 0.569151 0.933084 0.559533
C11   C     C_R   0.148638 0.561718 0.927228 0.536015
C12   C     C_R   0.429595 0.880595 0.932782 0.555744
Cr1   Cr    Cr6+3 0.504830 0.254570 0.500510 1.091549
Cr2   Cr    Cr6+3 0.745430 0.250260 0.500510 1.094505
Cr3   Cr    Cr6+3 0.749740 0.495170 0.500510 1.099258
Cr4   Cr    Cr6+3 0.254570 0.504830 0.000510 1.095672
Cr5   Cr    Cr6+3 0.250260 0.745430 0.000510 1.097949
Cr6   Cr    Cr6+3 0.495170 0.749740 0.000510 1.094814
O25   O     O_3   0.666667 0.333333 0.499990 -0.324728
O26   O     O_3   0.333333 0.666667 0.999990 -0.311925
C13   C     C_3   0.073668 0.593052 0.724277 -0.155186
C14   C     C_3   0.401886 0.480919 0.725319 -0.153178
C15   C     C_3   0.523899 0.923824 0.724508 -0.150133
C16   C     C_3   0.592984 0.073740 0.225085 -0.156345
C17   C     C_3   0.480970 0.403821 0.225284 -0.154171
C18   C     C_3   0.920602 0.523828 0.222994 -0.150935
C19   C     C_3   0.997489 0.576737 0.765821 0.203317
C20   C     C_3   0.419584 0.420903 0.765898 0.199631
C21   C     C_3   0.584872 0.000790 0.765463 0.208736
C22   C     C_3   0.575686 0.995749 0.265935 0.204118
C23   C     C_3   0.420500 0.419795 0.266382 0.198881
C24   C     C_3   0.995106 0.581838 0.264896 0.207753
H1    H     H_    0.118953 0.672449 0.706513 0.149512
H2    H     H_    0.323102 0.441721 0.707623 0.152932
H3    H     H_    0.557771 0.882558 0.703179 0.148381
H4    H     H_    0.672460 0.118713 0.207527 0.148503
H5    H     H_    0.443017 0.325278 0.207028 0.151936
H6    H     H_    0.881564 0.559776 0.201703 0.148282
C25   C     C_1   0.104352 0.547366 0.881623 0.059706
C26   C     C_1   0.461675 0.548992 0.884952 0.066932
C27   C     C_1   0.449907 0.909438 0.884607 0.067985
C28   C     C_1   0.542404 0.089343 0.384853 0.063157
C29   C     C_1   0.549382 0.461757 0.384955 0.066374
C30   C     C_1   0.884082 0.435638 0.380584 0.061192
C31   C     C_1   0.915503 0.449967 0.616122 0.046048
C32   C     C_1   0.543420 0.468506 0.614868 0.043233
C33   C     C_1   0.535556 0.080988 0.615762 0.047216
C34   C     C_1   0.453043 0.922645 0.114987 0.044889
C35   C     C_1   0.466709 0.545141 0.115567 0.043092
C36   C     C_1   0.076265 0.534572 0.114515 0.045625
C37   C     C_3   0.119657 0.530738 0.752080 -0.192550
C38   C     C_3   0.464655 0.589851 0.753197 -0.185521
C39   C     C_3   0.415266 0.878602 0.752993 -0.194166
C40   C     C_3   0.531698 0.120120 0.253755 -0.189527
C41   C     C_3   0.589523 0.467593 0.253044 -0.186839
C42   C     C_3   0.872240 0.413208 0.250156 -0.197048
C43   C     C_3   0.042914 0.517198 0.793137 -0.007948
C44   C     C_3   0.480370 0.526283 0.793488 -0.007261
C45   C     C_3   0.478907 0.956232 0.793657 -0.005669
C46   C     C_3   0.517236 0.041657 0.294165 -0.007458
C47   C     C_3   0.525453 0.481498 0.293830 -0.007762
C48   C     C_3   0.947538 0.473924 0.291804 -0.004442
C49   C     C_3   0.029206 0.420589 0.731622 -0.098136
C50   C     C_3   0.574781 0.611089 0.731388 -0.103585
C51   C     C_3   0.395889 0.968130 0.732362 -0.106121
C52   C     C_3   0.421801 0.030681 0.232796 -0.099629
C53   C     C_3   0.609133 0.577878 0.231972 -0.102200
C54   C     C_3   0.961486 0.392902 0.229971 -0.109076
C55   C     C_3   0.984153 0.483740 0.704394 -0.009656
C56   C     C_3   0.511340 0.502961 0.703840 -0.014032
C57   C     C_3   0.503616 0.012407 0.704354 -0.010493
C58   C     C_3   0.483826 0.985140 0.204748 -0.010161
C59   C     C_3   0.501362 0.513441 0.204484 -0.013174
C60   C     C_3   0.008951 0.502697 0.203218 -0.010113
C61   C     C_3   0.953182 0.408994 0.773297 0.202379
C62   C     C_3   0.588260 0.545824 0.771843 0.200604
C63   C     C_3   0.461862 0.046748 0.772867 0.200845
C64   C     C_3   0.409076 0.952805 0.273753 0.199410
C65   C     C_3   0.543258 0.589408 0.272921 0.201259
C66   C     C_3   0.037825 0.455949 0.271516 0.201033
C67   C     C_3   0.907080 0.470855 0.745333 0.243805
C68   C     C_3   0.525186 0.437072 0.743543 0.241359
C69   C     C_3   0.569414 0.091202 0.744106 0.245594
C70   C     C_3   0.469968 0.906270 0.244965 0.244329
C71   C     C_3   0.435115 0.525479 0.244734 0.241733
C72   C     C_3   0.085572 0.565654 0.243953 0.245709
C73   C     C_1   0.075726 0.535906 0.841589 0.047720
C74   C     C_1   0.468997 0.537596 0.843620 0.049632
C75   C     C_1   0.462282 0.927534 0.843221 0.045277
C76   C     C_1   0.534617 0.069555 0.343605 0.046116
C77   C     C_1   0.537408 0.469512 0.343776 0.048848
C78   C     C_1   0.912153 0.453585 0.340349 0.046483
C79   C     C_1   0.948889 0.465572 0.655668 0.030213
C80   C     C_1   0.528066 0.486297 0.654628 0.025040
C81   C     C_1   0.519462 0.047197 0.655392 0.030680
C82   C     C_1   0.466375 0.952109 0.155371 0.030256
C83   C     C_1   0.484320 0.530200 0.155360 0.026178
C84   C     C_1   0.044417 0.519528 0.154429 0.029087
H7    H     H_    0.045001 0.356334 0.717593 0.175153
H8    H     H_    0.642575 0.691471 0.718024 0.175842
H9    H     H_    0.313820 0.950998 0.720274 0.174984
H10   H     H_    0.357965 0.047082 0.219250 0.174852
H11   H     H_    0.689030 0.646577 0.218766 0.176860
H12   H     H_    0.944135 0.310810 0.217144 0.172387
H13   H     H_    0.209007 0.564411 0.756061 0.125559
H14   H     H_    0.437161 0.649602 0.757518 0.129149
H15   H     H_    0.351302 0.792724 0.756739 0.128924
H16   H     H_    0.565899 0.209894 0.258113 0.125306
H17   H     H_    0.650228 0.441470 0.256832 0.129321
H18   H     H_    0.785910 0.350200 0.252830 0.126745
N1    N     N_R   0.976536 0.660103 0.784416 0.126301
O27   O     O_R   0.941078 0.705726 0.756071 -0.240837
O28   O     O_R   0.994526 0.689688 0.828209 -0.264551
N2    N     N_R   0.333942 0.315571 0.784885 0.121543
O29   O     O_R   0.279252 0.233377 0.756358 -0.242013
O30   O     O_R   0.314005 0.298358 0.829729 -0.261787
N3    N     N_R   0.689936 0.023337 0.783829 0.126285
O31   O     O_R   0.773769 0.063573 0.755682 -0.240260
O32   O     O_R   0.700498 0.006205 0.827773 -0.267157
N4    N     N_R   0.658535 0.973833 0.283732 0.126889
O33   O     O_R   0.703259 0.938191 0.254762 -0.243109
O34   O     O_R   0.689743 0.992811 0.327260 -0.267058
N5    N     N_R   0.315959 0.332916 0.285417 0.119971
O35   O     O_R   0.234470 0.277033 0.256889 -0.242225
O36   O     O_R   0.297483 0.316017 0.330336 -0.258031
N6    N     N_R   0.018468 0.686812 0.284429 0.125275
O37   O     O_R   0.060407 0.772265 0.257182 -0.239265
O38   O     O_R   0.002837 0.696180 0.328767 -0.262872
Br1   Br    Br    0.775612 0.474763 0.732427 -0.312056
Br2   Br    Br    0.519167 0.300822 0.726012 -0.322825
Br3   Br    Br    0.701688 0.218984 0.721103 -0.343055
Br4   Br    Br    0.473480 0.774853 0.229639 -0.317373
Br5   Br    Br    0.297818 0.517524 0.229252 -0.312199
Br6   Br    Br    0.215613 0.698227 0.222698 -0.330572
Br7   Br    Br    0.875043 0.283073 0.813740 -0.258425
Br8   Br    Br    0.716858 0.616914 0.810601 -0.263538
Br9   Br    Br    0.406546 0.117163 0.813610 -0.265437
Br10  Br    Br    0.281857 0.875748 0.313528 -0.258281
Br11  Br    Br    0.610344 0.717580 0.312432 -0.265385
Br12  Br    Br    0.103487 0.396440 0.312378 -0.253420

loop_
_geom_bond_atom_site_label_1
_geom_bond_atom_site_label_2
_geom_bond_distance
_ccdc_geom_bond_type
C63   C69   1.556566 S    
C22   N4    1.458473 S    
C21   C69   1.535959 S    
O20   C8    1.258494 A    
C60   C72   1.535890 S    
C61   Br7   1.932709 S    
C51   C57   1.547726 S    
C46   C64   1.531079 S    
C2    C33   1.419754 S    
C45   C75   1.452572 S    
C67   Br1   1.939412 S    
N5    O35   1.308861 A    
O16   Cr4   2.100590 S    
C50   H8    1.122915 S    
C48   C66   1.542502 S    
C14   C38   1.558931 S    
C42   H18   1.097079 S    
N1    O27   1.289806 A    
C51   H9    1.122974 S    
O21   C9    1.306542 A    
C16   C22   1.536761 S    
O16   C11   1.276629 A    
O15   C7    1.253747 A    
C39   C51   1.549060 S    
C53   H11   1.122360 S    
O10   Cr4   1.983695 S    
N5    O36   1.301078 A    
C32   C80   1.201962 T    
O8    Cr2   1.965400 S    
C26   C74   1.198206 T    
C1    C32   1.423306 S    
C13   C19   1.536376 S    
C14   C20   1.531862 S    
O9    Cr3   1.984487 S    
O18   Cr6   2.093965 S    
O19   C7    1.255025 A    
C48   C78   1.445829 S    
C39   H15   1.097132 S    
C16   C40   1.561669 S    
C29   C77   1.198005 T    
C40   H16   1.118865 S    
C52   C64   1.552938 S    
O12   Cr6   1.976353 S    
C31   C79   1.200066 T    
O13   Cr1   2.092540 S    
C55   C67   1.542383 S    
C38   H14   1.107774 S    
C56   C68   1.543706 S    
O4    Cr4   2.087679 S    
O21   Cr3   1.971565 S    
C59   C83   1.460069 S    
C68   Br2   1.959592 S    
C55   C79   1.454964 S    
C70   Br4   1.943620 S    
C20   N2    1.471189 S    
C64   C70   1.560641 S    
C45   C63   1.544027 S    
C19   C43   1.516950 S    
C41   C53   1.565431 S    
O3    C1    1.241333 A    
O1    Cr1   2.089973 S    
C15   C21   1.535066 S    
O23   Cr5   1.972276 S    
C58   C70   1.542562 S    
C13   C55   1.536234 S    
C14   H2    1.093757 S    
C52   H10   1.117809 S    
Cr6   O26   1.988274 S    
C41   H17   1.106715 S    
O13   C8    1.259440 A    
C54   H12   1.124567 S    
C24   C72   1.537031 S    
C15   C39   1.563496 S    
C71   Br5   1.954577 S    
C16   H4    1.095928 S    
C49   C61   1.553042 S    
C6    C34   1.425757 S    
C3    C31   1.416654 S    
C50   C56   1.546887 S    
C18   C60   1.538773 S    
C15   H3    1.108686 S    
C17   H5    1.095288 S    
O5    Cr5   2.091373 S    
C4    C35   1.425158 S    
C20   C68   1.536622 S    
C43   C73   1.438899 S    
C47   C77   1.452472 S    
N4    O34   1.299404 A    
C38   C44   1.545899 S    
O3    Cr3   2.091762 S    
C12   C27   1.416455 S    
C37   C43   1.539643 S    
Cr3   O25   1.983535 S    
O5    C6    1.244273 A    
C43   C61   1.527549 S    
C57   C81   1.456017 S    
C17   C23   1.532563 S    
C17   C59   1.550216 S    
C39   C45   1.541092 S    
C18   C24   1.534357 S    
C17   C41   1.558828 S    
C18   C42   1.562626 S    
C65   Br11  1.934562 S    
C44   C74   1.452671 S    
C23   C47   1.516110 S    
C7    C29   1.420802 S    
O22   Cr4   1.969849 S    
O14   Cr2   2.082669 S    
O2    Cr2   2.094023 S    
C24   C48   1.529777 S    
C14   C56   1.548865 S    
Cr4   O26   1.983862 S    
C64   Br10  1.932022 S    
C13   H1    1.097455 S    
C34   C82   1.205431 T    
C10   C26   1.420796 S    
O7    Cr1   1.975651 S    
N4    O33   1.289900 A    
C53   C59   1.547891 S    
C20   C44   1.517276 S    
O2    C3    1.236088 A    
C13   C37   1.560436 S    
C50   C62   1.551285 S    
C57   C69   1.535952 S    
C30   C78   1.194692 T    
C60   C84   1.452416 S    
C23   N5    1.471246 S    
O14   C9    1.293017 A    
C37   C49   1.553663 S    
C36   C84   1.198958 T    
C35   C83   1.203004 T    
C33   C81   1.200232 T    
C69   Br3   1.948748 S    
C5    C36   1.417983 S    
C18   H6    1.108965 S    
Cr5   O26   1.999939 S    
N6    O38   1.298319 A    
Cr1   O25   1.988671 S    
O4    C5    1.253184 A    
C24   N6    1.464526 S    
C28   C76   1.199274 T    
C41   C47   1.546188 S    
C66   C72   1.558761 S    
C8    C28   1.420271 S    
N1    O28   1.299564 A    
C38   C50   1.564742 S    
O11   C5    1.254618 A    
O8    C2    1.254000 A    
C16   C58   1.537598 S    
C51   C63   1.551430 S    
C27   C75   1.198195 T    
O15   Cr3   2.102294 S    
C58   C82   1.463219 S    
O20   Cr2   1.973375 S    
C53   C65   1.552263 S    
C62   Br8   1.933817 S    
C72   Br6   1.949344 S    
C47   C65   1.541538 S    
C66   Br12  1.938608 S    
C52   C58   1.552286 S    
N2    O30   1.301634 A    
O24   C12   1.269408 A    
C62   C68   1.563622 S    
O23   C11   1.291628 A    
C42   C48   1.541033 S    
O17   Cr5   2.082955 S    
C21   C45   1.530517 S    
C65   C71   1.561191 S    
C46   C76   1.449531 S    
N3    O32   1.297920 A    
C59   C71   1.544009 S    
O9    C3    1.263244 A    
Cr2   O25   1.999869 S    
C42   C54   1.547587 S    
O10   C4    1.253039 A    
N3    O31   1.301118 A    
C49   H7    1.118838 S    
C56   C80   1.458348 S    
C19   N1    1.459651 S    
C40   C52   1.554356 S    
C22   C70   1.519994 S    
C49   C55   1.552050 S    
C63   Br9   1.938258 S    
O11   Cr5   1.965494 S    
C21   N3    1.462702 S    
O22   C10   1.256340 A    
C25   C73   1.194934 T    
C22   C46   1.519390 S    
C61   C67   1.558909 S    
O18   C10   1.255621 A    
C19   C67   1.518950 S    
N2    O29   1.309454 A    
C54   C66   1.552067 S    
C44   C62   1.541847 S    
O6    C4    1.241895 A    
C40   C46   1.540747 S    
O7    C1    1.250860 A    
C54   C60   1.548646 S    
O17   C12   1.252190 A    
O6    Cr6   2.096700 S    
O12   C6    1.269544 A    
C15   C57   1.539443 S    
N6    O37   1.301377 A    
O24   Cr6   1.975365 S    
C11   C25   1.414831 S    
O1    C2    1.246665 A    
C23   C71   1.536978 S    
C37   H13   1.116674 S    
C9    C30   1.416946 S    
O19   Cr1   1.972554 S    
