data_mof_unit_15505.cif
_audit_creation_date              2012-10-26T19:35:13-0400
_audit_creation_method            fapswitch 2.2
_symmetry_space_group_name_H-M    P1
_symmetry_Int_Tables_number       1
_space_group_crystal_system       triclinic
_cell_length_a                    10.767322
_cell_length_b                    10.815244
_cell_length_c                    9.584019
_cell_angle_alpha                 90.402696
_cell_angle_beta                  90.480128
_cell_angle_gamma                 90.56552
_cell_volume                      1115.94888566

loop_
_atom_site_label
_atom_site_type_symbol
_atom_type_description
_atom_site_fract_x
_atom_site_fract_y
_atom_site_fract_z
_atom_type_partial_charge
C1    C     C_R   0.497944 0.262412 0.499640 0.529436
C2    C     C_R   0.478835 0.934474 0.372275 -0.155075
C3    C     C_R   0.486249 0.870564 0.499397 0.008899
C4    C     C_R   0.262733 0.495587 0.499547 0.535163
C5    C     C_R   0.476134 0.936971 0.624007 0.022879
C6    C     C_3   0.552887 0.932110 0.754372 -0.268723
C7    C     C_3   0.552374 0.072543 0.754283 -0.267829
C8    C     C_R   0.570847 0.583665 0.074857 0.179289
C9    C     C_R   0.417802 0.428282 0.069840 0.184326
C10   C     C_R   0.420477 0.427389 0.922319 0.039860
C11   C     C_R   0.571032 0.583362 0.927822 0.118127
C12   C     C_R   0.065387 0.393348 0.573236 0.027339
C13   C     C_3   0.708610 0.599531 0.922005 -0.260482
C14   C     C_3   0.708696 0.600280 0.081140 -0.050015
C15   C     C_R   0.498120 0.737532 0.500185 0.556248
C16   C     C_R   0.737290 0.496167 0.500483 0.543199
C17   C     C_R   0.128992 0.297176 0.642048 -0.107754
C18   C     C_R   0.063794 0.205494 0.713043 -0.118296
C19   C     C_R   0.934655 0.206470 0.714968 -0.125382
C20   C     C_R   0.869905 0.299054 0.645729 -0.114987
C21   C     C_R   0.934075 0.394172 0.574843 0.023493
C22   C     C_R   0.128960 0.486674 0.498672 0.002213
C23   C     C_R   0.064287 0.574925 0.422492 -0.160888
C24   C     C_R   0.936285 0.575715 0.424069 -0.161958
C25   C     C_R   0.871065 0.488042 0.501291 -0.002474
C26   C     C_R   0.475873 0.064224 0.623678 0.014707
C27   C     C_R   0.486080 0.129113 0.498706 0.005051
C28   C     C_R   0.478934 0.063225 0.371946 -0.163143
Cu1   Cu    Cu3+1 0.499990 0.499980 0.640670 0.922281
Cu2   Cu    Cu3+1 0.500010 0.500020 0.359330 0.946152
H1    H     H_    0.113360 0.645587 0.364455 0.125776
H2    H     H_    0.113693 0.132497 0.765285 0.115050
H3    H     H_    0.884403 0.134227 0.768829 0.104921
H4    H     H_    0.769698 0.293741 0.646506 0.133492
H5    H     H_    0.887751 0.647033 0.367390 0.151514
H6    H     H_    0.479998 0.110317 0.272657 0.129860
H7    H     H_    0.479437 0.885829 0.273098 0.140872
H8    H     H_    0.500758 0.891481 0.842877 0.137695
H9    H     H_    0.357447 0.294158 0.204808 0.265360
H10   H     H_    0.253407 0.411399 0.171833 0.259812
H11   H     H_    0.695504 0.791252 0.094283 0.226314
H12   H     H_    0.646420 0.892435 0.736761 0.132821
H13   H     H_    0.838690 0.734769 0.121917 0.221426
H14   H     H_    0.499750 0.112964 0.842589 0.137888
H15   H     H_    0.645619 0.114290 0.737021 0.129940
H16   H     H_    0.357198 0.367732 0.864102 0.136275
H17   H     H_    0.755802 0.517301 0.877822 0.145271
H18   H     H_    0.735847 0.688998 0.874072 0.124354
H19   H     H_    0.758586 0.521189 0.128446 0.167395
H20   H     H_    0.229014 0.290173 0.639596 0.127605
N1    N     N_R   0.500790 0.500930 0.147930 -0.230842
N2    N     N_R   0.500790 0.500890 0.852020 -0.259876
N3    N     N_3   0.322153 0.354653 0.131371 -0.655677
N4    N     N_3   0.744534 0.719905 0.142495 -0.630266
O1    O     O_R   0.500000 0.319640 0.618810 -0.518770
O2    O     O_R   0.500010 0.319680 0.381230 -0.520017
O3    O     O_R   0.319640 0.499980 0.618820 -0.506264
O4    O     O_R   0.319650 0.500020 0.381230 -0.514233
O5    O     O_R   0.499990 0.680320 0.618770 -0.492441
O6    O     O_R   0.500000 0.680360 0.381190 -0.487457
O7    O     O_R   0.680350 0.499980 0.618770 -0.512607
O8    O     O_R   0.680360 0.500020 0.381180 -0.486849

loop_
_geom_bond_atom_site_label_1
_geom_bond_atom_site_label_2
_ccdc_geom_bond_type
C17   H20   S    
C4    O3    A    
C13   H18   S    
C2    C28   A    
C23   C24   A    
C6    H8    S    
C10   H16   S    
C6    C7    S    
C12   C22   A    
C4    C22   S    
C15   O6    A    
H13   N4    S    
C19   C20   A    
C9    N1    A    
Cu2   N1    S    
C20   H4    S    
C17   C18   A    
C1    O1    A    
C10   N2    A    
C2    H7    S    
C7    H14   S    
C24   C25   A    
C12   C17   A    
C11   C13   S    
C8    N1    A    
C26   C27   A    
Cu1   Cu2   S    
C7    C26   S    
C16   O8    A    
C8    C11   A    
C7    H15   S    
Cu2   O6    S    
C14   N4    S    
C1    O2    A    
H9    N3    S    
C2    C3    A    
Cu2   O8    S    
C6    H12   S    
C5    C6    S    
Cu1   O7    S    
H11   N4    S    
C14   H19   S    
C18   H2    S    
C16   O7    A    
C5    C26   A    
C24   H5    S    
Cu2   O4    S    
C16   C25   S    
C9    N3    S    
C20   C21   A    
C28   H6    S    
C1    C27   S    
H10   N3    S    
C9    C10   A    
C4    O4    A    
C27   C28   A    
C13   H17   S    
C21   C25   A    
C22   C23   A    
C18   C19   A    
C3    C15   S    
C8    C14   S    
C11   N2    A    
Cu1   O1    S    
C19   H3    S    
C13   C14   S    
Cu2   O2    S    
C12   C21   A    
Cu1   N2    S    
Cu1   O5    S    
Cu1   O3    S    
C3    C5    A    
C15   O5    A    
C23   H1    S    
