data_mof_unit_5872.cif
_audit_creation_date              2012-10-26T20:01:54-0400
_audit_creation_method            fapswitch 2.2
_symmetry_space_group_name_H-M    P1
_symmetry_Int_Tables_number       1
_space_group_crystal_system       triclinic
_cell_length_a                    11.705441
_cell_length_b                    10.862245
_cell_length_c                    9.648323
_cell_angle_alpha                 90.954235
_cell_angle_beta                  89.55898
_cell_angle_gamma                 93.419902
_cell_volume                      1224.3767755

loop_
_atom_site_label
_atom_site_type_symbol
_atom_type_description
_atom_site_fract_x
_atom_site_fract_y
_atom_site_fract_z
_atom_type_partial_charge
C1    C     C_R   0.507795 0.263358 0.499200 0.540940
C2    C     C_R   0.487271 0.872328 0.509770 -0.004523
C3    C     C_R   0.656666 0.660521 0.144128 -0.092919
C4    C     C_R   0.284238 0.499649 0.500406 0.554117
C5    C     C_R   0.737156 0.737474 0.074489 -0.055935
C6    C     C_R   0.735223 0.740027 0.929053 -0.000588
C7    C     C_R   0.655700 0.661287 0.858243 -0.077343
C8    C     C_R   0.576844 0.579050 0.926219 0.130787
C9    C     C_R   0.576905 0.578937 0.074861 0.176410
C10   C     C_R   0.428524 0.423383 0.075004 0.049179
C11   C     C_R   0.427859 0.421422 0.927288 0.114704
C12   C     C_R   0.597724 0.076341 0.865174 -0.142605
C13   C     C_R   0.493812 0.737468 0.502439 0.544961
C14   C     C_R   0.715767 0.500668 0.499616 0.544719
C15   C     C_1   0.162455 0.500144 0.501065 0.012123
C16   C     C_1   0.059943 0.500610 0.500613 0.001816
C17   C     C_1   0.940081 0.500977 0.499596 0.003771
C18   C     C_1   0.837556 0.500984 0.499059 0.013522
C19   C     C_R   0.600515 0.129364 0.734936 -0.088081
C20   C     C_2   0.808420 0.830490 0.848683 0.268807
C21   C     C_2   0.346525 0.329236 0.859316 0.248942
C22   C     C_2   0.520725 0.915416 0.025045 0.204912
C23   C     C_R   0.538448 0.962747 0.884148 0.033299
C24   C     C_2   0.821144 0.812668 0.160059 0.200798
C25   C     C_R   0.496656 0.895235 0.768373 -0.054342
C26   C     C_R   0.510457 0.942627 0.633313 0.014642
C27   C     C_R   0.544410 0.068455 0.621573 0.031671
C28   C     C_R   0.516740 0.129725 0.499082 0.000818
C29   C     C_R   0.479149 0.061138 0.382368 -0.153952
C30   C     C_R   0.468564 0.933686 0.386807 -0.153554
Cu1   Cu    Cu3+1 0.499990 0.499990 0.640660 0.928866
Cu2   Cu    Cu3+1 0.500010 0.500010 0.359340 0.964870
H1    H     H_    0.655927 0.670463 0.749226 0.218840
H2    H     H_    0.447544 0.809991 0.787127 0.194677
H3    H     H_    0.370701 0.361647 0.132801 0.170568
H4    H     H_    0.799662 0.836556 0.266458 0.120953
H5    H     H_    0.441578 0.882458 0.295089 0.199961
H6    H     H_    0.660126 0.667672 0.253693 0.173875
H7    H     H_    0.456560 0.105911 0.287740 0.151546
H8    H     H_    0.846964 0.912848 0.898177 0.170862
H9    H     H_    0.333292 0.325604 0.749651 0.182752
H10   H     H_    0.645532 0.218643 0.724556 0.151987
H11   H     H_    0.636328 0.127055 0.952237 0.105546
H12   H     H_    0.565749 0.960826 0.111316 0.086858
N1    N     N_R   0.501070 0.501210 0.147910 -0.258106
N2    N     N_R   0.501110 0.501290 0.852040 -0.278592
O1    O     O_R   0.499990 0.319640 0.618810 -0.538496
O2    O     O_2   0.291048 0.252768 0.927631 -0.523539
O3    O     O_2   0.455384 0.825765 0.046319 -0.516091
O4    O     O_2   0.916697 0.842944 0.116481 -0.478800
O5    O     O_R   0.500000 0.319660 0.381240 -0.506618
O6    O     O_R   0.337190 0.500000 0.618790 -0.517873
O7    O     O_R   0.337200 0.500030 0.381210 -0.479396
O8    O     O_R   0.500000 0.680340 0.618760 -0.537415
O9    O     O_R   0.500010 0.680360 0.381190 -0.503683
O10   O     O_R   0.662800 0.499970 0.618790 -0.515299
O11   O     O_R   0.662810 0.500000 0.381210 -0.519352
O12   O     O_2   0.824647 0.815411 0.724494 -0.516000

loop_
_geom_bond_atom_site_label_1
_geom_bond_atom_site_label_2
_ccdc_geom_bond_type
C1    C28   S    
C14   O10   A    
Cu2   O5    S    
C9    N1    A    
C6    C7    A    
C3    C9    A    
C4    O7    A    
C19   C27   A    
Cu2   N1    S    
C14   C18   S    
Cu2   O9    S    
Cu1   Cu2   S    
Cu1   O6    S    
C19   H10   S    
C25   H2    S    
C2    C30   A    
C21   O2    D    
C29   H7    S    
C4    C15   S    
C17   C18   T    
C7    C8    A    
C2    C26   A    
C24   H4    S    
C1    O5    A    
C12   C23   A    
C26   C27   A    
C29   C30   A    
C5    C24   S    
Cu2   O11   S    
C10   N1    A    
C22   O3    D    
C21   H9    S    
C12   C19   A    
C28   C29   A    
C4    O6    A    
C12   H11   S    
C23   C25   A    
Cu1   O8    S    
C24   O4    D    
C5    C6    A    
Cu1   O10   S    
C10   H3    S    
C8    N2    A    
C16   C17   S    
C10   C11   A    
C7    H1    S    
C20   O12   D    
C15   C16   T    
Cu2   O7    S    
C6    C20   S    
C3    H6    S    
C13   O8    A    
C27   C28   A    
C14   O11   A    
C2    C13   S    
C22   C23   S    
C1    O1    A    
C11   N2    A    
Cu1   O1    S    
C3    C5    A    
C25   C26   A    
C20   H8    S    
C11   C21   S    
C22   H12   S    
C30   H5    S    
C8    C9    A    
C13   O9    A    
Cu1   N2    S    
