data_mof_unit_27093.cif
_audit_creation_date              2012-12-11T14:01:15-0500
_audit_creation_method            fapswitch 2.2
_symmetry_space_group_name_H-M    P1
_symmetry_Int_Tables_number       1
_space_group_crystal_system       triclinic
_cell_length_a                    19.18549
_cell_length_b                    11.093982
_cell_length_c                    18.894046
_cell_angle_alpha                 90.677616
_cell_angle_beta                  89.485006
_cell_angle_gamma                 89.428704
_cell_volume                      4020.82662797

loop_
_atom_site_label
_atom_site_type_symbol
_atom_type_description
_atom_site_fract_x
_atom_site_fract_y
_atom_site_fract_z
_atom_type_partial_charge
C1    C     C_R   0.271528 0.043469 0.851984 0.528305
C2    C     C_R   0.728771 0.046080 0.150038 0.525454
C3    C     C_R   0.774146 0.536303 0.855769 0.534712
C4    C     C_R   0.226641 0.537437 0.145059 0.536069
C5    C     C_R   0.548741 0.034861 0.051749 -0.097968
C6    C     C_R   0.448733 0.035425 0.949906 -0.107849
C7    C     C_R   0.042548 0.534795 0.055740 -0.118723
C8    C     C_R   0.955459 0.552883 0.944043 -0.141469
C9    C     C_R   0.025629 0.649193 0.032883 0.032009
C10   C     C_R   0.979336 0.658476 0.975994 0.027599
C11   C     C_R   0.524526 0.144218 0.027276 0.046652
C12   C     C_R   0.474773 0.144149 0.972929 0.053901
C13   C     C_2   0.242173 0.576184 0.916507 -0.102747
C14   C     C_2   0.759328 0.565054 0.086591 -0.126055
C15   C     C_2   0.743519 0.059270 0.906234 -0.056644
C16   C     C_2   0.250462 0.077319 0.081494 -0.045482
C17   C     C_2   0.247675 0.569134 0.073006 -0.149829
C18   C     C_2   0.754054 0.567270 0.928983 -0.128078
C19   C     C_2   0.753571 0.098445 0.085638 -0.131235
C20   C     C_2   0.242276 0.097464 0.915992 -0.142023
C21   C     C_2   0.282982 0.491569 0.028853 0.002007
C22   C     C_2   0.718417 0.490633 0.971685 0.001503
C23   C     C_2   0.766056 0.028555 0.029055 0.030336
C24   C     C_2   0.209013 0.030704 0.964532 -0.001788
C25   C     C_2   0.289865 0.515104 0.952292 -0.151258
C26   C     C_2   0.709701 0.515866 0.047815 -0.137949
C27   C     C_2   0.780654 0.085648 0.962993 -0.117677
C28   C     C_2   0.198137 0.079074 0.035159 -0.121090
C29   C     C_2   0.434533 0.823489 0.564424 -0.088355
C30   C     C_2   0.489171 0.839526 0.417101 -0.083266
C31   C     C_2   0.931781 0.323591 0.564461 -0.093699
C32   C     C_2   0.989803 0.339897 0.417611 -0.079745
C33   C     C_2   0.451447 0.748840 0.443669 0.116750
C34   C     C_2   0.453669 0.731358 0.520816 0.105867
C35   C     C_2   0.949379 0.251933 0.443167 0.115923
C36   C     C_2   0.951161 0.232178 0.520279 0.100986
C37   C     C_2   0.242477 0.559612 0.585917 -0.107327
C38   C     C_2   0.745441 0.610669 0.429397 -0.097821
C39   C     C_2   0.743504 0.060212 0.585492 -0.104239
C40   C     C_2   0.252444 0.078509 0.419722 -0.104458
C41   C     C_2   0.222432 0.524189 0.433668 -0.103299
C42   C     C_2   0.745863 0.598775 0.584841 -0.098927
C43   C     C_2   0.722627 0.025077 0.433507 -0.108385
C44   C     C_2   0.258526 0.077006 0.575442 -0.093558
C45   C     C_R   0.440029 0.817235 0.861430 0.574951
C46   C     C_R   0.558510 0.816140 0.138387 0.579812
C47   C     C_R   0.938393 0.318652 0.860836 0.568860
C48   C     C_R   0.031990 0.321000 0.145790 0.547222
C49   C     C_2   0.169622 0.536610 0.479850 -0.163666
C50   C     C_2   0.786448 0.671495 0.547504 -0.166960
C51   C     C_2   0.670041 0.034180 0.480174 -0.161938
C52   C     C_2   0.313239 0.095703 0.532261 -0.169182
C53   C     C_2   0.181197 0.575353 0.553133 -0.140052
C54   C     C_2   0.774603 0.692543 0.473024 -0.154780
C55   C     C_2   0.681569 0.072505 0.553556 -0.138413
C56   C     C_2   0.307628 0.113294 0.457071 -0.166155
C57   C     C_R   0.259620 0.634849 0.849949 0.572812
C58   C     C_R   0.740942 0.632533 0.151004 0.573209
C59   C     C_R   0.758186 0.127754 0.844420 0.546674
C60   C     C_R   0.239313 0.135890 0.149473 0.553176
C61   C     C_R   0.273715 0.042632 0.647205 0.542607
C62   C     C_R   0.708956 0.999537 0.359758 0.553399
C63   C     C_R   0.771823 0.546276 0.649278 0.547380
C64   C     C_R   0.208918 0.499388 0.359745 0.557198
C65   C     C_R   0.434636 0.818008 0.641954 0.593399
C66   C     C_R   0.528048 0.825080 0.350892 0.554743
C67   C     C_R   0.934081 0.317997 0.642127 0.595508
C68   C     C_R   0.028160 0.325131 0.351036 0.547341
C69   C     C_R   0.259852 0.634041 0.647372 0.541445
C70   C     C_R   0.737936 0.643482 0.355928 0.540124
C71   C     C_R   0.760009 0.134180 0.647289 0.538562
C72   C     C_R   0.239568 0.136911 0.353096 0.544888
C73   C     C_R   0.533722 0.817988 0.064928 0.033789
C74   C     C_R   0.462708 0.818674 0.935711 0.018573
C75   C     C_R   0.999451 0.327648 0.076724 0.007694
C76   C     C_R   0.953719 0.326985 0.936900 -0.004416
C77   C     C_R   0.520136 0.926278 0.030034 -0.049815
C78   C     C_R   0.476536 0.926557 0.971556 -0.060310
C79   C     C_R   0.004027 0.433160 0.035657 -0.050377
C80   C     C_R   0.969430 0.437836 0.971452 -0.056612
C81   C     C_R   0.479991 0.709275 0.968216 0.120492
C82   C     C_R   0.515270 0.709051 0.031930 0.123889
C83   C     C_R   0.957175 0.219068 0.975650 0.088500
C84   C     C_R   0.969478 0.222695 0.047844 0.119583
Cr1   Cr    Cr6+3 0.230530 0.836340 0.748870 1.054155
Cr2   Cr    Cr6+3 0.769470 0.836340 0.251130 1.037987
Cr3   Cr    Cr6+3 0.730530 0.336340 0.748870 1.047412
Cr4   Cr    Cr6+3 0.269470 0.336340 0.251130 1.041728
Cr5   Cr    Cr6+3 0.387420 0.989430 0.750820 1.050504
Cr6   Cr    Cr6+3 0.612580 0.989430 0.249180 1.045924
Cr7   Cr    Cr6+3 0.887420 0.489430 0.750820 1.038833
Cr8   Cr    Cr6+3 0.112580 0.489430 0.249180 1.050537
Cr9   Cr    Cr6+3 0.385640 0.677860 0.749230 1.006312
Cr10  Cr    Cr6+3 0.614360 0.677860 0.250770 1.022020
Cr11  Cr    Cr6+3 0.885640 0.177860 0.749230 1.017769
Cr12  Cr    Cr6+3 0.114360 0.177860 0.250770 1.030920
H1    H     H_    0.116191 0.531572 0.461578 0.135916
H2    H     H_    0.832939 0.710916 0.570209 0.152737
H3    H     H_    0.616590 0.026017 0.462383 0.134100
H4    H     H_    0.365892 0.101903 0.552585 0.151436
H5    H     H_    0.139628 0.628712 0.577736 0.161329
H6    H     H_    0.795437 0.776258 0.452750 0.150842
H7    H     H_    0.639133 0.122338 0.579158 0.159326
H8    H     H_    0.349584 0.164341 0.433161 0.159039
H9    H     H_    0.276350 0.532109 0.449832 0.098784
H10   H     H_    0.697419 0.564790 0.563355 0.110727
H11   H     H_    0.776476 0.035990 0.449132 0.094018
H12   H     H_    0.205435 0.071676 0.556454 0.102227
H13   H     H_    0.281802 0.498684 0.564229 0.085750
H14   H     H_    0.723892 0.526614 0.448060 0.094129
H15   H     H_    0.784280 0.003126 0.562810 0.080027
H16   H     H_    0.212059 0.022343 0.442157 0.106133
H17   H     H_    0.593231 0.034015 0.084116 0.201856
H18   H     H_    0.404176 0.035401 0.917690 0.190989
H19   H     H_    0.088368 0.526146 0.086047 0.186302
H20   H     H_    0.921150 0.564071 0.901988 0.217840
H21   H     H_    0.335480 0.481193 0.924111 0.179738
H22   H     H_    0.660849 0.493902 0.073094 0.179377
H23   H     H_    0.816044 0.161655 0.962748 0.137210
H24   H     H_    0.146989 0.115891 0.048951 0.145549
H25   H     H_    0.223863 0.649765 0.052517 0.164281
H26   H     H_    0.777616 0.647044 0.951538 0.138353
H27   H     H_    0.752301 0.195977 0.081695 0.140394
H28   H     H_    0.253202 0.191240 0.925959 0.166427
H29   H     H_    0.192195 0.598060 0.941103 0.111915
H30   H     H_    0.811940 0.570103 0.065439 0.089433
H31   H     H_    0.700599 0.996158 0.907201 0.134123
H32   H     H_    0.302385 0.046327 0.065858 0.128767
H33   H     H_    0.505149 0.913572 0.451254 0.052057
H34   H     H_    0.414148 0.905685 0.541624 0.047548
H35   H     H_    0.007826 0.411120 0.452734 0.056602
H36   H     H_    0.910227 0.405814 0.542294 0.059571
O1    O     O_R   0.215090 0.709860 0.828130 -0.489484
O2    O     O_R   0.784910 0.709860 0.171870 -0.470394
O3    O     O_R   0.715090 0.209860 0.828130 -0.483805
O4    O     O_R   0.284910 0.209860 0.171870 -0.489366
O5    O     O_R   0.445660 0.919250 0.676780 -0.496123
O6    O     O_R   0.554340 0.919250 0.323220 -0.521632
O7    O     O_R   0.945660 0.419250 0.676780 -0.493310
O8    O     O_R   0.054340 0.419250 0.323220 -0.521578
O9    O     O_R   0.456260 0.718170 0.670000 -0.471062
O10   O     O_R   0.543740 0.718170 0.330000 -0.472842
O11   O     O_R   0.956260 0.218170 0.670000 -0.467695
O12   O     O_R   0.043740 0.218170 0.330000 -0.478632
O13   O     O_R   0.320940 0.626760 0.674370 -0.532940
O14   O     O_R   0.679060 0.626760 0.325630 -0.502804
O15   O     O_R   0.820940 0.126760 0.674370 -0.535233
O16   O     O_R   0.179060 0.126760 0.325630 -0.502615
O17   O     O_3   0.334530 0.834540 0.749640 -0.311714
O18   O     O_3   0.665470 0.834540 0.250360 -0.297882
O19   O     O_3   0.834530 0.334540 0.749640 -0.316712
O20   O     O_3   0.165470 0.334540 0.250360 -0.291588
O21   O     O_R   0.236990 0.958390 0.823710 -0.461279
O22   O     O_R   0.763010 0.958390 0.176290 -0.479359
O23   O     O_R   0.736990 0.458390 0.823710 -0.446488
O24   O     O_R   0.263010 0.458390 0.176290 -0.447351
O25   O     O_R   0.332380 0.074750 0.830850 -0.501369
O26   O     O_R   0.667620 0.074750 0.169150 -0.494066
O27   O     O_R   0.832380 0.574750 0.830850 -0.517782
O28   O     O_R   0.167620 0.574750 0.169150 -0.497591
O29   O     O_R   0.445800 0.917770 0.825070 -0.491858
O30   O     O_R   0.554200 0.917770 0.174930 -0.510248
O31   O     O_R   0.945800 0.417770 0.825070 -0.512378
O32   O     O_R   0.054200 0.417770 0.174930 -0.512205
O33   O     O_R   0.456410 0.716580 0.829970 -0.490971
O34   O     O_R   0.543590 0.716580 0.170030 -0.498278
O35   O     O_R   0.956410 0.216580 0.829970 -0.475905
O36   O     O_R   0.043590 0.216580 0.170030 -0.490804
O37   O     O_R   0.321080 0.625290 0.822650 -0.511170
O38   O     O_R   0.678920 0.625290 0.177350 -0.508164
O39   O     O_R   0.821080 0.125290 0.822650 -0.515605
O40   O     O_R   0.178920 0.125290 0.177350 -0.501927
O41   O     O_R   0.214930 0.711450 0.668160 -0.510685
O42   O     O_R   0.785070 0.711450 0.331840 -0.521676
O43   O     O_R   0.714930 0.211450 0.668160 -0.512236
O44   O     O_R   0.285070 0.211450 0.331840 -0.523914
O45   O     O_R   0.236850 0.959870 0.675420 -0.499019
O46   O     O_R   0.763150 0.959870 0.324580 -0.524836
O47   O     O_R   0.736850 0.459870 0.675420 -0.498950
O48   O     O_R   0.263150 0.459870 0.324580 -0.515744
O49   O     O_R   0.332230 0.076350 0.670880 -0.523270
O50   O     O_R   0.667770 0.076350 0.329120 -0.501818
O51   O     O_R   0.832230 0.576350 0.670880 -0.518605
O52   O     O_R   0.167770 0.576350 0.329120 -0.497669
N1    N     N_2   0.457880 0.598134 0.938986 -0.496989
H37   H     H_    0.429410 0.548724 0.973930 0.285093
C85   C     C_3   0.509262 0.531556 0.897022 -0.196813
H38   H     H_    0.527112 0.453402 0.926229 0.229094
H39   H     H_    0.555290 0.587475 0.883588 0.182776
H40   H     H_    0.485275 0.498619 0.847348 0.164164
N2    N     N_2   0.537823 0.597687 0.059717 -0.497086
H41   H     H_    0.565780 0.547121 0.023784 0.287002
C86   C     C_3   0.487086 0.533162 0.101525 -0.203452
H42   H     H_    0.469661 0.455008 0.071525 0.232635
H43   H     H_    0.440971 0.590379 0.115885 0.171323
H44   H     H_    0.511625 0.500198 0.150654 0.169840
N3    N     N_2   0.954075 0.105788 0.940680 -0.499877
H45   H     H_    0.918057 0.048188 0.961118 0.296012
C87   C     C_3   0.021946 0.054609 0.922856 -0.186678
H46   H     H_    0.049358 0.026640 0.971215 0.203388
H47   H     H_    0.055211 0.121460 0.895600 0.161144
H48   H     H_    0.015776 0.976316 0.886618 0.205477
N4    N     N_2   0.962466 0.115430 0.088453 -0.484957
H49   H     H_    0.976145 0.033316 0.066693 0.321566
C88   C     C_3   0.910044 0.113707 0.143820 -0.260664
H50   H     H_    0.935205 0.102881 0.195994 0.174921
H51   H     H_    0.876993 0.034154 0.135631 0.196847
H52   H     H_    0.877710 0.197450 0.144802 0.115997
C89   C     C_2   0.054191 0.752661 0.073533 0.605542
O53   O     O_2   0.072238 0.844241 0.043889 -0.519988
O54   O     O_R   0.060715 0.744399 0.146959 -0.669569
H53   H     H_    0.080941 0.819896 0.169111 0.335780
C90   C     C_2   0.951093 0.773814 0.951301 0.563362
O55   O     O_2   0.945989 0.857714 0.992783 -0.522594
O56   O     O_R   0.926082 0.785106 0.882326 -0.705606
H54   H     H_    0.904156 0.867021 0.873494 0.336223
C91   C     C_2   0.552983 0.252273 0.060731 0.584564
O57   O     O_2   0.565145 0.339322 0.025103 -0.564460
O58   O     O_R   0.568800 0.253274 0.132831 -0.691238
H55   H     H_    0.591977 0.330610 0.148665 0.323091
C92   C     C_2   0.448390 0.251057 0.937236 0.584073
O59   O     O_2   0.433829 0.340281 0.971631 -0.569778
O60   O     O_R   0.436403 0.247883 0.864343 -0.690184
H56   H     H_    0.413412 0.324362 0.846745 0.319698
C93   C     C_2   0.316823 0.379234 0.052776 0.650753
O61   O     O_2   0.306766 0.286110 0.020170 -0.555244
O62   O     O_R   0.364292 0.379887 0.108293 -0.683185
H57   H     H_    0.389372 0.299669 0.113863 0.347523
C94   C     C_2   0.684222 0.379633 0.946964 0.646131
O63   O     O_2   0.693344 0.286951 0.979538 -0.540298
O64   O     O_R   0.636363 0.382018 0.891832 -0.679314
H58   H     H_    0.610805 0.303007 0.885724 0.351794
C95   C     C_2   0.768593 0.896406 0.031357 0.592537
O65   O     O_2   0.720849 0.836375 0.007818 -0.568910
O66   O     O_R   0.827752 0.842045 0.058978 -0.632643
H59   H     H_    0.832710 0.755126 0.044010 0.329571
C96   C     C_2   0.194376 0.901913 0.954941 0.650606
O67   O     O_2   0.231875 0.827583 0.983053 -0.563492
O68   O     O_R   0.137148 0.866274 0.914886 -0.671349
H60   H     H_    0.127191 0.777121 0.918576 0.343276
N5    N     N_2   0.424709 0.655581 0.398920 -0.486350
H61   H     H_    0.408935 0.579548 0.425105 0.249385
C97   C     C_3   0.373706 0.695151 0.347891 -0.271862
H62   H     H_    0.394112 0.769566 0.315144 0.156721
H63   H     H_    0.325237 0.725921 0.375563 0.140200
H64   H     H_    0.361272 0.619197 0.311628 0.178196
N6    N     N_2   0.491051 0.628882 0.546259 -0.473148
H65   H     H_    0.536412 0.609532 0.518461 0.255166
C98   C     C_3   0.450440 0.522601 0.560505 -0.266524
H66   H     H_    0.456109 0.456357 0.516223 0.108387
H67   H     H_    0.394705 0.545722 0.567863 0.155185
H68   H     H_    0.469576 0.480101 0.609616 0.165500
N7    N     N_2   0.919574 0.163122 0.397382 -0.485010
H69   H     H_    0.900461 0.088957 0.423008 0.247709
C99   C     C_3   0.870286 0.209507 0.346562 -0.288382
H70   H     H_    0.894078 0.280266 0.313366 0.148376
H71   H     H_    0.823568 0.247287 0.374456 0.141674
H72   H     H_    0.853804 0.135422 0.310716 0.163204
N8    N     N_2   0.990961 0.131965 0.545167 -0.470425
H73   H     H_    0.036505 0.116765 0.516856 0.254566
C100  C     C_3   0.953184 0.021811 0.556986 -0.274290
H74   H     H_    0.946797 0.970811 0.506639 0.110065
H75   H     H_    0.901569 0.041130 0.581123 0.171575
H76   H     H_    0.983148 0.964236 0.593806 0.154043

loop_
_geom_bond_atom_site_label_1
_geom_bond_atom_site_label_2
_ccdc_geom_bond_type
C16   C28   D    
N6    C98   S    
C71   O15   A    
N4    H49   S    
C99   H71   S    
C61   O45   A    
C37   C69   S    
C82   N2    S    
C69   O13   A    
Cr1   O21   S    
C33   N5    S    
O68   H60   S    
Cr6   O18   S    
C67   O11   A    
Cr10  O34   S    
C38   C70   S    
C81   C82   A    
C63   O47   A    
C40   H16   S    
C4    O28   A    
C77   C78   A    
C58   O2    A    
Cr11  O11   S    
N4    C88   S    
Cr9   O37   S    
C98   H66   S    
C92   O59   D    
C75   C79   A    
C41   H9    S    
Cr6   O30   S    
C35   N7    S    
Cr4   O24   S    
C58   O38   A    
C47   C76   S    
C5    C11   A    
Cr7   O51   S    
Cr2   O18   S    
C6    C12   A    
N7    H69   S    
C64   O48   A    
C75   C84   A    
C6    C78   A    
Cr12  O12   S    
C97   H62   S    
Cr12  O20   S    
C55   H7    S    
Cr2   O46   S    
C47   O35   A    
C3    C18   S    
N5    H61   S    
C16   C60   S    
C36   N8    S    
C7    H19   S    
Cr3   O43   S    
N3    C87   S    
O62   H57   S    
C45   O29   A    
C6    H18   S    
C85   H40   S    
C30   H33   S    
C93   O62   S    
Cr9   O17   S    
Cr10  O14   S    
Cr2   O2    S    
C39   C55   D    
C20   C24   D    
C53   H5    S    
C86   H43   S    
C48   O36   A    
C70   O42   A    
Cr8   O20   S    
C87   H48   S    
Cr1   O41   S    
O66   H59   S    
Cr12  O36   S    
Cr9   O13   S    
C70   O14   A    
C23   C27   S    
C83   N3    S    
C67   O7    A    
C95   O65   D    
C11   C91   S    
C91   O58   S    
Cr7   O27   S    
Cr1   O17   S    
Cr5   O29   S    
C32   H35   S    
C46   O34   A    
C32   C68   S    
C64   O52   A    
C47   O31   A    
C44   C52   D    
C39   H15   S    
C99   H72   S    
Cr9   O33   S    
C87   H46   S    
C2    O22   A    
C92   O60   S    
C15   H31   S    
C96   O67   D    
C3    O27   A    
Cr4   O20   S    
C48   C75   S    
Cr7   O31   S    
C69   O41   A    
C59   O39   A    
C76   C83   A    
C81   N1    S    
Cr6   O6    S    
C94   O63   D    
C33   C34   S    
C57   O37   A    
C14   H30   S    
C44   H12   S    
C51   H3    S    
C14   C58   S    
Cr5   O17   S    
C98   H67   S    
C20   H28   S    
N2    H41   S    
Cr10  O10   S    
C32   C35   D    
Cr6   O50   S    
C63   O51   A    
Cr4   O4    S    
O60   H56   S    
C89   O53   D    
C28   H24   S    
C50   H2    S    
C9    C89   S    
O58   H55   S    
C100  H75   S    
C19   C23   D    
N7    C99   S    
C43   H11   S    
C51   C55   S    
C97   H63   S    
C91   O57   D    
C88   H50   S    
C49   H1    S    
C29   C34   D    
C52   H4    S    
C17   C21   D    
Cr12  O16   S    
C25   H21   S    
C45   C74   S    
Cr2   O42   S    
C35   C36   S    
C60   O40   A    
Cr6   O26   S    
C31   C67   S    
O56   H54   S    
N2    C86   S    
O54   H53   S    
C31   H36   S    
Cr4   O48   S    
Cr3   O3    S    
C62   O50   A    
C65   O9    A    
C15   C27   D    
C83   C84   A    
C38   C54   D    
C90   O55   D    
C2    O26   A    
C97   H64   S    
C19   H27   S    
C3    O23   A    
C93   O61   D    
Cr11  O15   S    
C40   C56   D    
C50   C54   S    
C14   C26   D    
C1    O21   A    
C95   O66   S    
C56   H8    S    
C30   C66   S    
C66   O10   A    
C42   C50   D    
Cr7   O7    S    
C4    C17   S    
C84   N4    S    
C17   H25   S    
C38   H14   S    
C4    O24   A    
C42   H10   S    
C18   H26   S    
Cr5   O5    S    
C96   O68   S    
Cr8   O52   S    
C29   C65   S    
C68   O8    A    
Cr11  O19   S    
C74   C81   A    
C5    C77   A    
N8    H73   S    
Cr8   O8    S    
C73   C82   A    
O64   H58   S    
Cr9   O9    S    
C7    C79   A    
C9    C10   A    
C88   H52   S    
C7    C9    A    
C21   C25   S    
C1    C20   S    
C15   C59   S    
C40   C72   S    
C30   C33   D    
C5    H17   S    
C2    C19   S    
C18   C22   D    
C57   O1    A    
C37   H13   S    
C54   H6    S    
C8    C10   A    
C24   C28   S    
N8    C100  S    
Cr11  O35   S    
Cr12  O40   S    
C62   O46   A    
C100  H76   S    
C76   C80   A    
C10   C90   S    
Cr5   O25   S    
C48   O32   A    
C27   H23   S    
C44   C61   S    
Cr10  O18   S    
C41   C49   D    
C21   C93   S    
C66   O6    A    
C61   O49   A    
Cr4   O44   S    
C26   H22   S    
C60   O4    A    
Cr8   O28   S    
C1    O25   A    
Cr8   O32   S    
Cr2   O22   S    
C90   O56   S    
C65   O5    A    
C85   H38   S    
C94   O64   S    
C72   O16   A    
Cr10  O38   S    
C86   H44   S    
Cr7   O19   S    
C43   C51   D    
N1    H37   S    
C100  H74   S    
C22   C94   S    
Cr11  O39   S    
C13   C25   D    
C49   C53   S    
C42   C63   S    
C59   O3    A    
C89   O54   S    
C71   O43   A    
C68   O12   A    
Cr3   O23   S    
C16   H32   S    
N3    H45   S    
C72   O44   A    
C87   H47   S    
C12   C92   S    
C85   H39   S    
C98   H68   S    
N1    C85   S    
C37   C53   D    
C8    H20   S    
Cr3   O47   S    
C79   C80   A    
C23   C95   S    
C29   H34   S    
C52   C56   S    
C13   C57   S    
C43   C62   S    
C73   C77   A    
Cr1   O45   S    
C86   H42   S    
C22   C26   S    
Cr1   O1    S    
C34   N6    S    
C8    C80   A    
C39   C71   S    
C31   C36   D    
Cr3   O19   S    
C41   C64   S    
N5    C97   S    
N6    H65   S    
C88   H51   S    
C45   O33   A    
C13   H29   S    
C46   C73   S    
C24   C96   S    
C99   H70   S    
C11   C12   A    
Cr5   O49   S    
C46   O30   A    
C74   C78   A    
