data_mof_unit_59451.cif
_audit_creation_date              2012-12-10T18:16:21-0500
_audit_creation_method            fapswitch 2.2
_symmetry_space_group_name_H-M    P1
_symmetry_Int_Tables_number       1
_space_group_crystal_system       triclinic
_cell_length_a                    12.624601
_cell_length_b                    13.083119
_cell_length_c                    27.67941
_cell_angle_alpha                 91.119943
_cell_angle_beta                  103.328066
_cell_angle_gamma                 82.038958
_cell_volume                      4405.41098962

loop_
_atom_site_label
_atom_site_type_symbol
_atom_type_description
_atom_site_fract_x
_atom_site_fract_y
_atom_site_fract_z
_atom_type_partial_charge
C1    C     C_R   0.438509 0.691304 0.492648 0.869405
C2    C     C_R   0.528327 0.588963 0.724265 0.154181
C3    C     C_R   0.512321 0.499211 0.747388 0.245028
C4    C     C_R   0.510458 0.495299 0.898727 -0.084114
C5    C     C_R   0.415934 0.537234 0.863191 -0.005880
C6    C     C_R   0.320460 0.577828 0.878095 -0.127991
C7    C     C_R   0.607464 0.454728 0.883359 -0.090975
C8    C     C_R   0.506376 0.495669 0.646464 -0.097715
C9    C     C_R   0.496015 0.496307 0.353287 -0.061536
C10   C     C_R   0.412316 0.546097 0.015842 0.044048
C11   C     C_R   0.592549 0.436699 0.035008 0.061845
C12   C     C_R   0.501931 0.498724 0.593647 0.875920
C13   C     C_R   0.500999 0.490638 0.050560 0.073297
C14   C     C_R   0.327491 0.605949 0.033687 -0.211210
C15   C     C_R   0.327500 0.607114 0.083816 -0.135935
C16   C     C_R   0.411531 0.548216 0.117858 -0.018042
C17   C     C_R   0.498245 0.489325 0.101375 -0.054216
C18   C     C_R   0.582497 0.429554 0.135817 -0.018690
C19   C     C_R   0.577924 0.429139 0.185828 0.495456
C20   C     C_R   0.411790 0.547673 0.168407 0.488014
C21   C     C_R   0.562489 0.548601 0.284051 -0.120498
C22   C     C_R   0.564827 0.551676 0.334322 -0.229901
C23   C     C_R   0.561253 0.308534 0.504976 0.844557
C24   C     C_R   0.425860 0.436494 0.321772 -0.214960
C25   C     C_R   0.424216 0.430804 0.270885 0.148662
C26   C     C_R   0.492832 0.489074 0.252410 0.284901
C27   C     C_R   0.411810 0.540803 0.964658 0.053549
C28   C     C_R   0.507251 0.493896 0.949573 0.074357
C29   C     C_R   0.599206 0.445539 0.984890 0.005119
C30   C     C_R   0.318327 0.579971 0.927864 -0.209100
C31   C     C_R   0.701456 0.413424 0.919668 0.231737
C32   C     C_R   0.674029 0.374822 0.070209 -0.212469
C33   C     C_R   0.668831 0.371373 0.119671 -0.140610
C34   C     C_R   0.498634 0.499379 0.406180 0.851738
C35   C     C_R   0.695936 0.409088 0.969164 -0.251359
C36   C     C_R   0.699066 0.063538 0.462646 -0.203006
C37   C     C_R   0.597045 0.199398 0.500270 -0.044360
C38   C     C_R   0.301623 0.839553 0.501730 -0.186445
C39   C     C_R   0.273842 0.945046 0.506316 -0.143443
C40   C     C_R   0.346275 0.011889 0.499889 -0.188632
C41   C     C_R   0.446274 0.973814 0.486386 0.090307
C42   C     C_R   0.464510 0.869528 0.473899 0.067903
C43   C     C_R   0.528990 0.035500 0.485293 0.056563
C44   C     C_R   0.618994 0.998566 0.463603 0.139409
C45   C     C_R   0.418414 0.536889 0.813115 0.492506
C46   C     C_R   0.624932 0.898780 0.443053 0.069981
C47   C     C_R   0.548309 0.835466 0.448983 -0.225960
C48   C     C_R   0.525107 0.132811 0.506481 -0.250924
C49   C     C_R   0.686693 0.164210 0.479924 -0.195804
C50   C     C_R   0.398642 0.801228 0.487109 -0.094179
C51   C     C_R   0.087714 0.344713 0.430982 -0.303083
C52   C     C_R   0.804801 0.630171 0.559592 0.306927
C53   C     C_R   0.910217 0.656537 0.571101 -0.260646
C54   C     C_R   0.988678 0.607414 0.548196 -0.240317
C55   C     C_R   0.962929 0.529723 0.513340 0.023595
C56   C     C_R   0.605649 0.458105 0.832252 0.522800
C57   C     C_R   0.854167 0.503696 0.502610 0.190675
C58   C     C_R   0.041544 0.476833 0.489164 0.000073
C59   C     C_R   0.010927 0.398153 0.454897 0.189106
C60   C     C_R   0.904394 0.373152 0.445134 -0.281652
C61   C     C_R   0.827451 0.425015 0.468761 -0.193109
C62   C     C_R   0.150473 0.498450 0.497846 -0.055069
C63   C     C_R   0.194000 0.369421 0.441403 0.007771
C64   C     C_R   0.495329 0.408759 0.720686 -0.116411
C65   C     C_R   0.492811 0.404882 0.669824 0.063804
C66   C     C_R   0.524349 0.585727 0.673328 -0.223236
H1    H     H_    0.533011 0.653299 0.653599 0.164328
H2    H     H_    0.483981 0.342369 0.740586 0.135477
H3    H     H_    0.741501 0.325605 0.060396 0.149643
H4    H     H_    0.374682 0.393455 0.337614 0.147221
H5    H     H_    0.733340 0.323089 0.145293 0.189258
H6    H     H_    0.770992 0.379605 0.995181 0.164397
H7    H     H_    0.743793 0.215574 0.475100 0.147935
H8    H     H_    0.769525 0.039169 0.447209 0.143948
H9    H     H_    0.463217 0.161078 0.526442 0.149291
H10   H     H_    0.249073 0.787864 0.511054 0.149302
H11   H     H_    0.320621 0.092930 0.504478 0.131430
H12   H     H_    0.198239 0.974828 0.516977 0.144222
H13   H     H_    0.553926 0.758939 0.433323 0.160630
H14   H     H_    0.254588 0.328540 0.423421 0.131869
H15   H     H_    0.880420 0.312700 0.419223 0.157817
H16   H     H_    0.065905 0.284286 0.404726 0.148909
H17   H     H_    0.181683 0.556688 0.522962 0.128399
H18   H     H_    0.246511 0.608692 0.851251 0.194856
H19   H     H_    0.068426 0.632372 0.558838 0.152854
H20   H     H_    0.931564 0.716211 0.597824 0.183605
H21   H     H_    0.747812 0.401172 0.460140 0.208761
H22   H     H_    0.619354 0.598272 0.358249 0.157373
H23   H     H_    0.615109 0.592460 0.269426 0.143998
H24   H     H_    0.260908 0.654365 0.095744 0.190717
H25   H     H_    0.261393 0.655472 0.009971 0.147362
H26   H     H_    0.240779 0.610108 0.936222 0.150591
N1    N     N_R   0.512420 0.498815 0.798963 -0.358674
N2    N     N_R   0.493531 0.487770 0.200931 -0.357674
N3    N     N_R   0.222180 0.444690 0.474320 -0.102537
N4    N     N_R   0.776980 0.554780 0.525420 -0.148978
O1    O     O_R   0.366730 0.627160 0.487740 -0.617513
O2    O     O_2   0.331378 0.606543 0.185086 -0.567836
O3    O     O_2   0.694982 0.421111 0.815272 -0.511896
O4    O     O_2   0.657098 0.371017 0.219215 -0.567517
O5    O     O_R   0.544830 0.662520 0.504140 -0.587529
O6    O     O_R   0.410970 0.482310 0.563040 -0.625756
O7    O     O_R   0.589070 0.517670 0.579450 -0.572493
O8    O     O_R   0.455170 0.337480 0.495860 -0.619787
O9    O     O_R   0.633270 0.372840 0.512260 -0.630275
O10   O     O_R   0.410930 0.482330 0.420550 -0.614072
O11   O     O_R   0.589030 0.517690 0.436960 -0.644542
O12   O     O_2   0.327681 0.574333 0.778577 -0.563526
Zn1   Zn    Zn3+2 0.381080 0.476390 0.489050 0.936786
Zn2   Zn    Zn3+2 0.618920 0.523610 0.510950 0.958174
I1    I     I_    0.859296 0.354840 0.907028 -0.275682
C67   C     C_3   0.353063 0.363478 0.235510 -0.408513
C68   C     C_3   0.288048 0.296225 0.259501 -0.381881
C69   C     C_3   0.222998 0.229730 0.220899 -0.830667
H27   H     H_    0.163578 0.279242 0.191916 0.265333
H28   H     H_    0.279431 0.177208 0.203139 0.264424
H29   H     H_    0.176658 0.182320 0.239202 0.251951
H30   H     H_    0.345502 0.244455 0.288233 0.227553
H31   H     H_    0.229226 0.346234 0.277086 0.231260
H32   H     H_    0.293745 0.414097 0.206971 0.232171
H33   H     H_    0.407357 0.311698 0.216296 0.211207
C70   C     C_3   0.712268 0.855531 0.415761 -0.434266
C71   C     C_3   0.816722 0.806647 0.452317 -0.321297
C72   C     C_3   0.904889 0.761390 0.425395 -0.863476
H34   H     H_    0.875081 0.699418 0.399971 0.265340
H35   H     H_    0.926913 0.822574 0.403765 0.261694
H36   H     H_    0.979727 0.727751 0.452927 0.252568
H37   H     H_    0.850056 0.864995 0.479156 0.224292
H38   H     H_    0.796188 0.743781 0.473359 0.241731
H39   H     H_    0.681049 0.795492 0.389308 0.199822
H40   H     H_    0.730369 0.916079 0.392498 0.198864
C73   C     C_3   0.548783 0.685132 0.755067 -0.406727
C74   C     C_3   0.570610 0.777710 0.727200 -0.362007
C75   C     C_3   0.592047 0.868606 0.761794 -0.833408
H41   H     H_    0.519661 0.894071 0.777662 0.262562
H42   H     H_    0.665366 0.846523 0.792458 0.269621
H43   H     H_    0.607324 0.934177 0.740641 0.255709
H44   H     H_    0.643780 0.755266 0.711440 0.256289
H45   H     H_    0.498062 0.803264 0.696613 0.229679
H46   H     H_    0.476182 0.710044 0.770875 0.225276
H47   H     H_    0.620873 0.663783 0.786484 0.218144
I2    I     I_    0.697552 0.717289 0.598455 -0.393061
C76   C     C_3   0.477827 0.306430 0.639903 -0.399321
C77   C     C_3   0.478913 0.208594 0.670024 -0.367150
C78   C     C_3   0.471005 0.114026 0.636818 -0.849369
H48   H     H_    0.394019 0.125184 0.607259 0.256541
H49   H     H_    0.542669 0.100055 0.619461 0.269324
H50   H     H_    0.470514 0.044962 0.659419 0.257198
H51   H     H_    0.556438 0.194644 0.699231 0.239882
H52   H     H_    0.407791 0.218271 0.687841 0.229464
H53   H     H_    0.398546 0.319786 0.611811 0.222466
H54   H     H_    0.545133 0.291409 0.619800 0.196150

loop_
_geom_bond_atom_site_label_1
_geom_bond_atom_site_label_2
_ccdc_geom_bond_type
C10   C27   A    
C58   C62   A    
C21   C26   A    
C26   N2    S    
C41   C42   A    
C54   C55   A    
C47   H13   S    
O9    Zn2   S    
C45   N1    A    
C75   H43   S    
C78   H48   S    
C24   H4    S    
C71   C72   S    
C21   H23   S    
C53   C54   A    
C8    C66   A    
O7    Zn2   S    
C34   O11   A    
C64   H2    S    
C28   C29   A    
C38   C39   A    
C65   C76   S    
C9    C22   A    
C15   C16   A    
C23   O9    A    
C63   N3    A    
O1    Zn1   S    
C18   C19   A    
C77   H52   S    
C61   H21   S    
C25   C67   S    
C4    C28   A    
C68   H31   S    
C73   C74   S    
C57   N4    A    
C2    C73   S    
C53   H20   S    
C22   H22   S    
C43   C48   A    
C45   O12   S    
C8    C12   S    
C76   H53   S    
C66   H1    S    
C74   H44   S    
C62   N3    A    
C71   H38   S    
C27   C30   A    
C41   C43   A    
C48   H9    S    
C7    C56   A    
C4    C7    A    
C67   C68   S    
C78   H49   S    
C44   C46   A    
C69   H27   S    
C63   H14   S    
C56   N1    A    
C7    C31   A    
C34   O10   A    
C39   H12   S    
C6    H18   S    
C24   C25   A    
C12   O7    A    
C30   H26   S    
C10   C14   A    
C1    O1    A    
C39   C40   A    
C67   H32   S    
C16   C17   A    
C75   H42   S    
C58   C59   A    
C23   C37   S    
N4    Zn2   S    
C52   I2    S    
C60   C61   A    
C62   H17   S    
C43   C44   A    
C12   O6    A    
C77   H51   S    
C37   C49   A    
C60   H15   S    
C8    C65   A    
C23   O8    A    
C14   C15   A    
C16   C20   A    
C17   C18   A    
C51   C63   A    
C3    N1    S    
C37   C48   A    
O5    Zn2   S    
C51   H16   S    
C32   H3    S    
C19   N2    A    
C36   H8    S    
C42   C50   A    
C72   H36   S    
C40   C41   A    
C6    C30   A    
C38   H10   S    
C35   H6    S    
C74   H45   S    
C55   C57   A    
N3    Zn1   S    
C74   C75   S    
O11   Zn2   S    
C31   C35   A    
C36   C44   A    
C51   C59   A    
C1    O5    A    
C70   H40   S    
C78   H50   S    
C52   C53   A    
C72   H35   S    
C68   C69   S    
C1    C50   S    
C73   H47   S    
C20   N2    A    
C46   C47   A    
C76   H54   S    
C40   H11   S    
C77   C78   S    
C2    C66   A    
C10   C13   A    
C11   C32   A    
C54   H19   S    
C69   H28   S    
C19   O4    S    
C9    C24   A    
C57   C61   A    
C75   H41   S    
C38   C50   A    
C73   H46   S    
C29   C35   A    
C13   C17   A    
C64   C65   A    
C2    C3    A    
C25   C26   A    
C67   H33   S    
C32   C33   A    
C15   H24   S    
C11   C13   A    
C71   H37   S    
C5    C6    A    
C5    C45   A    
C4    C5    A    
C9    C34   S    
C52   N4    A    
C49   H7    S    
C42   C47   A    
C3    C64   A    
C18   C33   A    
C14   H25   S    
C69   H29   S    
C33   H5    S    
C68   H30   S    
C59   C60   A    
C20   O2    S    
C11   C29   A    
C55   C58   A    
C27   C28   A    
C31   I1    S    
O8    Zn1   S    
C46   C70   S    
O6    Zn1   S    
C56   O3    S    
C70   C71   S    
C21   C22   A    
C70   H39   S    
C36   C49   A    
C76   C77   S    
C72   H34   S    
O10   Zn1   S    
