data_mof_unit_64006.cif
_audit_creation_date              2012-12-10T19:53:06-0500
_audit_creation_method            fapswitch 2.2
_symmetry_space_group_name_H-M    P1
_symmetry_Int_Tables_number       1
_space_group_crystal_system       triclinic
_cell_length_a                    18.273688
_cell_length_b                    18.273632
_cell_length_c                    38.81183
_cell_angle_alpha                 90.0108
_cell_angle_beta                  90.017473
_cell_angle_gamma                 89.999143
_cell_volume                      12960.30353

loop_
_atom_site_label
_atom_site_type_symbol
_atom_type_description
_atom_site_fract_x
_atom_site_fract_y
_atom_site_fract_z
_atom_type_partial_charge
C1    C     C_R   0.500000 0.141158 0.499998 0.941534
C2    C     C_R   0.000068 0.499965 0.215224 0.301868
C3    C     C_3   0.032499 0.636029 0.322402 -0.888400
C4    C     C_3   0.365885 0.959985 0.676970 -0.894027
C5    C     C_3   0.967620 0.636133 0.677606 -0.888222
C6    C     C_3   0.636072 0.041114 0.676315 -0.893891
C7    C     C_3   0.032250 0.363953 0.677619 -0.888197
C8    C     C_3   0.863853 0.532399 0.822388 -0.888051
C9    C     C_3   0.467772 0.864477 0.822201 -0.886216
C10   C     C_3   0.136008 0.467664 0.822387 -0.887988
C11   C     C_3   0.546402 0.134098 0.823577 -0.892010
C12   C     C_3   0.863963 0.467677 0.177601 -0.888062
C13   C     C_R   0.504583 0.999261 0.784736 0.284957
C14   C     C_3   0.463210 0.135049 0.177588 -0.886648
C15   C     C_3   0.136158 0.532235 0.177626 -0.888064
C16   C     C_3   0.536678 0.865034 0.177601 -0.886638
C17   C     C_R   0.999915 0.500053 0.784777 0.301879
C18   C     C_R   0.999917 0.500056 0.715223 0.301896
C19   C     C_R   0.501844 0.999652 0.715218 0.277197
C20   C     C_R   0.000067 0.499965 0.284777 0.301895
C21   C     C_R   0.499917 0.000048 0.284836 0.280136
C22   C     C_R   0.499990 1.000000 0.432639 0.892235
C23   C     C_R   0.000003 0.499994 0.432640 0.892011
C24   C     C_R   0.500025 0.000082 0.567367 0.892004
C25   C     C_R   0.858842 0.500000 0.500003 0.942022
C26   C     C_R   0.999999 0.500006 0.567360 0.892023
C27   C     C_R   0.999990 0.500000 0.932640 0.891990
C28   C     C_R   0.500098 0.999981 0.932632 0.891576
C29   C     C_R   0.000010 0.499997 0.067360 0.892018
C30   C     C_R   0.499999 0.000006 0.067363 0.891594
C31   C     C_1   0.499999 0.217553 0.499994 -0.191756
C32   C     C_1   0.782447 0.500001 0.500010 -0.191546
C33   C     C_1   0.500001 0.782447 0.500006 -0.191800
C34   C     C_1   0.217553 0.499999 0.499990 -0.191539
C35   C     C_1   0.999999 0.717553 0.999994 -0.191402
C36   C     C_R   0.500000 0.858842 0.500002 0.941725
C37   C     C_1   0.282447 0.000001 0.000010 -0.191516
C38   C     C_1   0.000001 0.282447 0.000006 -0.191476
C39   C     C_1   0.717553 0.999999 0.999990 -0.191551
C40   C     C_1   0.499999 0.282285 0.499993 -0.182348
C41   C     C_1   0.717715 0.500001 0.500012 -0.182192
C42   C     C_1   0.500001 0.717715 0.500007 -0.182331
C43   C     C_1   0.282285 0.499999 0.499988 -0.182186
C44   C     C_1   0.999999 0.782285 0.999993 -0.182033
C45   C     C_1   0.217715 0.000001 0.000012 -0.182092
C46   C     C_1   0.000001 0.217715 0.000007 -0.182119
C47   C     C_R   0.141158 0.499999 0.499997 0.942021
C48   C     C_1   0.782285 0.999999 0.999988 -0.182183
C49   C     C_R   0.435656 0.015747 0.376766 -0.201179
C50   C     C_R   0.986020 0.435226 0.376770 -0.187967
C51   C     C_R   0.564259 0.984273 0.376765 -0.201172
C52   C     C_R   0.014050 0.564729 0.376783 -0.187952
C53   C     C_R   0.436233 0.984137 0.623399 -0.201458
C54   C     C_R   0.986009 0.564790 0.623221 -0.187927
C55   C     C_R   0.564525 0.016794 0.623112 -0.200891
C56   C     C_R   0.013932 0.435263 0.623227 -0.187928
C57   C     C_R   0.935200 0.513997 0.876777 -0.187889
C58   C     C_R   1.000000 0.641158 0.999998 0.942020
C59   C     C_R   0.486322 0.935447 0.876678 -0.187692
C60   C     C_R   0.064715 0.486027 0.876776 -0.187841
C61   C     C_R   0.518925 0.063800 0.876834 -0.200983
C62   C     C_R   0.935272 0.486030 0.123219 -0.187823
C63   C     C_R   0.484028 0.064316 0.123231 -0.188122
C64   C     C_R   0.064805 0.513920 0.123230 -0.187840
C65   C     C_R   0.515923 0.935736 0.123237 -0.188114
C66   C     C_R   0.435014 0.017205 0.340785 0.176666
C67   C     C_R   0.985585 0.434439 0.340761 0.173240
C68   C     C_R   0.564866 0.982840 0.340784 0.176669
C69   C     C_R   0.358842 0.000000 0.000004 0.941783
C70   C     C_R   0.014526 0.565501 0.340774 0.173235
C71   C     C_R   0.436038 0.982668 0.659398 0.176897
C72   C     C_R   0.985531 0.565581 0.659230 0.173168
C73   C     C_R   0.565537 0.018296 0.659086 0.176423
C74   C     C_R   0.014361 0.434494 0.659236 0.173169
C75   C     C_R   0.934402 0.514466 0.840767 0.173105
C76   C     C_R   0.487755 0.934384 0.840665 0.170859
C77   C     C_R   0.065477 0.485586 0.840767 0.173114
C78   C     C_R   0.522591 0.064032 0.840878 0.178283
C79   C     C_R   0.934506 0.485566 0.159227 0.173132
C80   C     C_R   0.000000 0.358842 0.000002 0.941984
C81   C     C_R   0.483467 0.065090 0.159248 0.173111
C82   C     C_R   0.065600 0.514362 0.159239 0.173134
C83   C     C_R   0.516441 0.934983 0.159254 0.173112
C84   C     C_R   0.499931 0.000031 0.322509 0.075813
C85   C     C_R   0.000063 0.499967 0.322549 0.055390
C86   C     C_R   0.501048 0.000340 0.677529 0.076613
C87   C     C_R   0.999933 0.500043 0.677451 0.055405
C88   C     C_R   0.999931 0.500036 0.822549 0.055404
C89   C     C_R   0.505911 0.999100 0.822503 0.066479
C90   C     C_R   0.000059 0.499961 0.177451 0.055403
C91   C     C_R   0.641158 0.999999 0.999996 0.941738
C92   C     C_R   0.499941 0.000041 0.177494 0.057004
C93   C     C_R   0.358684 0.500000 0.499996 0.930269
C94   C     C_R   0.500000 0.358684 0.499997 0.930274
C95   C     C_R   0.641316 0.500000 0.500004 0.930266
C96   C     C_R   0.500000 0.641316 0.500003 0.930281
C97   C     C_R   0.858683 1.000000 0.999996 0.930263
C98   C     C_R   1.000000 0.858684 0.999997 0.930299
C99   C     C_R   0.141316 0.000000 0.000004 0.930287
C100  C     C_R   0.000000 0.141316 0.000003 0.930249
C101  C     C_R   0.499967 0.000006 0.394850 -0.125447
C102  C     C_R   0.499923 0.000052 0.215302 0.295803
C103  C     C_R   0.000022 0.499982 0.394853 -0.131244
C104  C     C_R   0.500215 0.000348 0.605165 -0.125364
C105  C     C_R   0.999982 0.500021 0.605148 -0.131252
C106  C     C_R   0.999967 0.500006 0.894853 -0.131242
C107  C     C_R   0.501428 0.999844 0.894834 -0.128082
C108  C     C_R   0.000030 0.499983 0.105148 -0.131262
C109  C     C_R   0.499986 0.000021 0.105157 -0.130760
C110  C     C_3   0.364429 0.039215 0.323379 -0.894521
C111  C     C_3   0.967635 0.363904 0.322373 -0.888399
C112  C     C_3   0.635433 0.960837 0.323376 -0.894510
H1    H     H_    0.385872 0.028648 0.390692 0.172006
H2    H     H_    0.472428 0.885998 0.890630 0.165927
H3    H     H_    0.114759 0.474727 0.890788 0.166545
H4    H     H_    0.531546 0.113577 0.890834 0.171724
H5    H     H_    0.885222 0.474771 0.109202 0.166576
H6    H     H_    0.471193 0.113958 0.109202 0.166174
H7    H     H_    0.114843 0.525186 0.109222 0.166560
H8    H     H_    0.528773 0.886086 0.109213 0.166176
H9    H     H_    0.369978 0.047595 0.295247 0.251929
H10   H     H_    0.322310 0.996535 0.327975 0.247521
H11   H     H_    0.344782 0.091750 0.334413 0.239585
H12   H     H_    0.974695 0.385198 0.390778 0.166497
H13   H     H_    0.921246 0.372656 0.304349 0.245866
H14   H     H_    0.016094 0.344363 0.307827 0.256814
H15   H     H_    0.951628 0.319995 0.340670 0.234938
H16   H     H_    0.629852 0.952461 0.295242 0.251928
H17   H     H_    0.677554 0.003518 0.327983 0.247525
H18   H     H_    0.655094 0.908300 0.334399 0.239577
H19   H     H_    0.078901 0.627266 0.304399 0.245866
H20   H     H_    0.984055 0.655573 0.307836 0.256819
H21   H     H_    0.048499 0.679941 0.340711 0.234937
H22   H     H_    0.371816 0.951780 0.705095 0.252140
H23   H     H_    0.614057 0.971363 0.390690 0.172012
H24   H     H_    0.323274 0.002209 0.672430 0.247546
H25   H     H_    0.346671 0.907211 0.666015 0.239530
H26   H     H_    0.921205 0.627424 0.695606 0.245881
H27   H     H_    0.016078 0.655636 0.692177 0.256822
H28   H     H_    0.951667 0.680053 0.659300 0.234967
H29   H     H_    0.630593 0.050009 0.704418 0.251682
H30   H     H_    0.678469 0.998656 0.671825 0.247873
H31   H     H_    0.655284 0.093596 0.665066 0.239309
H32   H     H_    0.078640 0.372675 0.695647 0.245903
H33   H     H_    0.983773 0.344458 0.692160 0.256809
H34   H     H_    0.025361 0.614764 0.390800 0.166512
H35   H     H_    0.048229 0.320024 0.659320 0.234962
H36   H     H_    0.844331 0.483945 0.807822 0.256807
H37   H     H_    0.819942 0.548371 0.840692 0.235041
H38   H     H_    0.872577 0.578808 0.804384 0.245873
H39   H     H_    0.422232 0.874822 0.803887 0.245986
H40   H     H_    0.515914 0.843189 0.807965 0.257118
H41   H     H_    0.449694 0.821213 0.840411 0.234759
H42   H     H_    0.155523 0.516131 0.807842 0.256870
H43   H     H_    0.179933 0.451668 0.840689 0.234988
H44   H     H_    0.127264 0.421275 0.804363 0.245856
H45   H     H_    0.386427 0.970768 0.609575 0.171719
H46   H     H_    0.559219 0.127126 0.795879 0.251145
H47   H     H_    0.502717 0.175911 0.826325 0.248996
H48   H     H_    0.597002 0.154864 0.836077 0.238308
H49   H     H_    0.844477 0.516147 0.192162 0.256854
H50   H     H_    0.820028 0.451724 0.159293 0.235028
H51   H     H_    0.872676 0.421269 0.195609 0.245820
H52   H     H_    0.417247 0.124805 0.195666 0.245467
H53   H     H_    0.511056 0.156330 0.192054 0.257429
H54   H     H_    0.445588 0.178296 0.159265 0.234729
H55   H     H_    0.155643 0.483758 0.192180 0.256848
H56   H     H_    0.974742 0.614827 0.609206 0.166526
H57   H     H_    0.180083 0.548183 0.159328 0.235033
H58   H     H_    0.127464 0.578640 0.195644 0.245823
H59   H     H_    0.582617 0.875290 0.195706 0.245466
H60   H     H_    0.488814 0.843758 0.192038 0.257429
H61   H     H_    0.554326 0.821778 0.159286 0.234727
H62   H     H_    0.614042 0.030178 0.609078 0.171993
H63   H     H_    0.025216 0.385217 0.609217 0.166525
H64   H     H_    0.885170 0.525286 0.890790 0.166559
N1    N     N_R   0.457080 0.952445 0.267207 -0.164831
N2    N     N_R   0.460100 0.046099 0.767519 -0.165481
N3    N     N_R   0.045117 0.545352 0.767133 -0.171664
N4    N     N_R   0.547506 0.952510 0.766654 -0.170144
N5    N     N_R   0.954904 0.545303 0.232876 -0.171714
N6    N     N_R   0.456972 0.952592 0.232959 -0.171484
N7    N     N_R   0.045233 0.454628 0.232881 -0.171714
N8    N     N_R   0.542868 0.047513 0.232982 -0.171486
N9    N     N_R   0.954790 0.545189 0.267119 -0.171730
N10   N     N_R   0.542754 0.047656 0.267230 -0.164823
N11   N     N_R   0.045346 0.454741 0.267124 -0.171729
N12   N     N_R   0.458913 0.046459 0.733268 -0.165379
N13   N     N_R   0.954598 0.454873 0.732867 -0.171720
N14   N     N_R   0.546072 0.952596 0.732412 -0.163803
N15   N     N_R   0.045231 0.545240 0.732890 -0.171692
N16   N     N_R   0.954711 0.454758 0.767110 -0.171735
O1    O     O_R   0.560480 0.107240 0.500130 -0.618363
O2    O     O_R   0.392760 0.060480 0.000130 -0.618236
O3    O     O_R   0.939520 0.392760 0.000130 -0.618230
O4    O     O_R   0.607240 0.939520 0.000130 -0.618179
O5    O     O_R   0.060480 0.392760 0.999870 -0.618205
O6    O     O_R   0.392760 0.939520 0.999870 -0.618190
O7    O     O_R   0.939520 0.607240 0.999870 -0.618190
O8    O     O_R   0.607240 0.060480 0.999870 -0.618339
O9    O     O_R   0.560480 0.999920 0.449200 -0.624998
O10   O     O_R   0.000080 0.560480 0.449200 -0.625120
O11   O     O_R   0.439520 0.000080 0.449200 -0.625015
O12   O     O_R   0.892760 0.560480 0.500130 -0.618222
O13   O     O_R   0.999920 0.439520 0.449200 -0.625120
O14   O     O_R   0.560480 0.000080 0.550800 -0.624998
O15   O     O_R   0.000080 0.439520 0.550800 -0.625116
O16   O     O_R   0.439520 0.999920 0.550800 -0.624723
O17   O     O_R   0.999920 0.560480 0.550800 -0.625120
O18   O     O_R   0.060480 0.499920 0.949200 -0.625090
O19   O     O_R   0.500080 0.060480 0.949200 -0.624690
O20   O     O_R   0.939520 0.500080 0.949200 -0.625117
O21   O     O_R   0.499920 0.939520 0.949200 -0.624868
O22   O     O_R   0.060480 0.500080 0.050800 -0.625099
O23   O     O_R   0.439520 0.892760 0.500130 -0.618268
O24   O     O_R   0.500080 0.939520 0.050800 -0.624803
O25   O     O_R   0.939520 0.499920 0.050800 -0.625092
O26   O     O_R   0.499920 0.060480 0.050800 -0.624801
O27   O     O_R   0.392500 0.499870 0.471390 -0.619840
O28   O     O_R   0.500130 0.392500 0.471390 -0.619866
O29   O     O_R   0.607500 0.500130 0.471390 -0.619825
O30   O     O_R   0.499870 0.607500 0.471390 -0.619861
O31   O     O_R   0.392500 0.500130 0.528610 -0.619809
O32   O     O_R   0.500130 0.607500 0.528610 -0.619861
O33   O     O_R   0.607500 0.499870 0.528610 -0.619832
O34   O     O_R   0.107240 0.439520 0.500130 -0.618223
O35   O     O_R   0.499870 0.392500 0.528610 -0.619855
O36   O     O_R   0.892500 0.999870 0.971390 -0.619912
O37   O     O_R   0.000130 0.892500 0.971390 -0.619779
O38   O     O_R   0.107500 0.000130 0.971390 -0.619804
O39   O     O_R   0.999870 0.107500 0.971390 -0.619871
O40   O     O_R   0.892500 0.000130 0.028610 -0.619772
O41   O     O_R   0.000130 0.107500 0.028610 -0.619791
O42   O     O_R   0.107500 0.999870 0.028610 -0.619812
O43   O     O_R   0.999870 0.892500 0.028610 -0.619800
O44   O     O_R   0.560480 0.892760 0.499870 -0.618221
O45   O     O_R   0.892760 0.439520 0.499870 -0.618241
O46   O     O_R   0.439520 0.107240 0.499870 -0.618271
O47   O     O_R   0.107240 0.560480 0.499870 -0.618239
O48   O     O_R   0.060480 0.607240 0.000130 -0.618189
Zn1   Zn    Zn3+2 0.580810 0.000000 0.500000 0.962314
Zn2   Zn    Zn3+2 0.500000 0.500000 0.538260 0.977361
Zn3   Zn    Zn3+2 0.000000 0.000000 0.961740 0.977432
Zn4   Zn    Zn3+2 1.000000 0.000000 0.038260 0.977536
Zn5   Zn    Zn3+2 1.000000 0.580810 0.500000 0.962277
Zn6   Zn    Zn3+2 0.419190 0.000000 0.500000 0.962442
Zn7   Zn    Zn3+2 1.000000 0.419190 0.500000 0.962270
Zn8   Zn    Zn3+2 0.080810 0.500000 0.000000 0.962477
Zn9   Zn    Zn3+2 0.500000 0.080810 0.000000 0.962622
Zn10  Zn    Zn3+2 0.919190 0.500000 0.000000 0.962459
Zn11  Zn    Zn3+2 0.500000 0.919190 0.000000 0.962742
Zn12  Zn    Zn3+2 0.500000 0.500000 0.461740 0.977320

loop_
_geom_bond_atom_site_label_1
_geom_bond_atom_site_label_2
_ccdc_geom_bond_type
C16   H61   S    
C27   O18   A    
C49   H1    S    
O3    Zn10  S    
C52   C103  A    
C37   C69   S    
C17   C88   S    
O39   Zn3   S    
C26   O15   A    
O18   Zn8   S    
C25   O12   A    
C80   O3    A    
C10   H42   S    
O35   Zn2   S    
C99   O38   A    
C11   H47   S    
C21   N10   A    
C18   N13   A    
C28   O19   A    
C48   C97   S    
O11   Zn6   S    
C53   C104  A    
O45   Zn7   S    
C95   O29   A    
C22   C101  S    
C22   O11   A    
C63   C81   A    
C35   C58   S    
C3    H19   S    
C33   C42   T    
C51   C68   A    
C5    C72   S    
C59   H2    S    
C110  H9    S    
C49   C101  A    
C19   N12   A    
C65   C83   A    
C97   O40   A    
C62   C108  A    
O34   Zn7   S    
C28   C107  S    
C13   N2    A    
C98   O37   A    
C12   C79   S    
C1    C31   S    
C33   C36   S    
O9    Zn1   S    
C31   C40   T    
C15   H57   S    
C68   C112  S    
C24   O14   A    
C2    C90   S    
C8    H38   S    
C69   O2    A    
C62   H5    S    
C14   H53   S    
O38   Zn3   S    
O7    Zn10  S    
C12   H49   S    
C81   C92   A    
C51   H23   S    
O6    Zn11  S    
C79   C90   A    
O8    Zn9   S    
C23   C103  S    
C98   O43   A    
C77   C88   A    
C96   O32   A    
C9    H40   S    
C111  H13   S    
C32   C41   T    
C21   C84   S    
C29   C108  S    
C5    H27   S    
C9    C76   S    
C40   C94   S    
C74   C87   A    
C15   C82   S    
C50   C67   A    
O12   Zn5   S    
C22   O9    A    
C92   C102  S    
C76   C89   A    
C30   O26   A    
N2    N12   A    
C17   N3    A    
C25   C32   S    
C29   O25   A    
C57   C106  A    
C20   N9    A    
C9    H41   S    
C50   C103  A    
C17   N16   A    
C23   O13   A    
C15   H55   S    
C100  O41   A    
C8    H36   S    
C44   C98   S    
C61   H4    S    
C58   O48   A    
C26   C105  S    
C39   C91   S    
C7    H32   S    
C10   C77   S    
C11   H48   S    
C64   C108  A    
C7    C74   S    
C7    H35   S    
C78   C89   A    
C58   O7    A    
C18   N15   A    
C67   C85   A    
C56   C74   A    
C49   C66   A    
C30   C109  S    
C3    H20   S    
C102  N6    A    
C62   C79   A    
C5    H26   S    
C3    C70   S    
C50   H12   S    
C45   C99   S    
C10   H44   S    
C60   C77   A    
C63   H6    S    
N5    N9    A    
C56   H63   S    
C27   C106  S    
O33   Zn2   S    
C12   H50   S    
C55   C104  A    
C24   O16   A    
C8    C75   S    
C59   C107  A    
C15   H58   S    
C20   N11   A    
C3    H21   S    
C2    N5    A    
C68   C84   A    
O44   Zn1   S    
C63   C109  A    
N13   N16   A    
C1    O1    A    
C95   O33   A    
C55   H62   S    
C83   C92   A    
C11   C78   S    
N7    N11   A    
C110  H11   S    
C71   C86   A    
C16   H60   S    
O41   Zn4   S    
O29   Zn12  S    
C25   O45   A    
C61   C78   A    
C65   C109  A    
C20   C85   S    
O46   Zn6   S    
C111  H14   S    
C94   O28   A    
O2    Zn9   S    
N3    N15   A    
C93   O31   A    
C66   C110  S    
C6    H29   S    
C35   C44   T    
C64   H7    S    
C64   C82   A    
C94   O35   A    
C47   O47   A    
C91   O8    A    
C67   C111  S    
C19   C86   S    
C96   O30   A    
O27   Zn12  S    
O28   Zn12  S    
C111  H15   S    
C69   O6    A    
C112  H17   S    
O26   Zn9   S    
C42   C96   S    
O14   Zn1   S    
C6    H30   S    
O25   Zn10  S    
C37   C45   T    
C53   C71   A    
O17   Zn5   S    
C72   C87   A    
C60   C106  A    
C56   C105  A    
C47   O34   A    
C6    C73   S    
C4    H22   S    
C28   O21   A    
C99   O42   A    
O10   Zn5   S    
C46   C100  S    
C9    H39   S    
C52   H34   S    
C54   C105  A    
C13   C89   S    
O40   Zn4   S    
O1    Zn1   S    
C100  O39   A    
C34   C43   T    
C4    H25   S    
C54   H56   S    
O13   Zn7   S    
O15   Zn7   S    
C10   H43   S    
C23   O10   A    
C1    O46   A    
C36   O44   A    
C13   N4    A    
O5    Zn8   S    
C53   H45   S    
C18   C87   S    
C82   C90   A    
O43   Zn4   S    
C4    H24   S    
O47   Zn5   S    
C93   O27   A    
C57   C75   A    
C30   O24   A    
C8    H37   S    
C102  N8    A    
C36   O23   A    
N4    N14   A    
C110  H10   S    
C12   H51   S    
C91   O4    A    
C16   H59   S    
O32   Zn2   S    
C29   O22   A    
C41   C95   S    
O36   Zn3   S    
C38   C80   S    
O24   Zn11  S    
O37   Zn3   S    
C80   O5    A    
O4    Zn11  S    
C21   N1    A    
C27   O20   A    
C43   C93   S    
C65   H8    S    
N8    N10   A    
O21   Zn11  S    
C26   O17   A    
C2    N7    A    
C16   C83   S    
C14   H52   S    
C61   C107  A    
O16   Zn6   S    
C73   C86   A    
C38   C46   T    
C52   C70   A    
C19   N14   A    
C66   C84   A    
C55   C73   A    
C5    H28   S    
C75   C88   A    
C97   O36   A    
C54   C72   A    
O19   Zn9   S    
O23   Zn6   S    
C14   H54   S    
C57   H64   S    
O42   Zn4   S    
O48   Zn8   S    
C112  H18   S    
C60   H3    S    
O22   Zn8   S    
C34   C47   S    
O31   Zn2   S    
C14   C81   S    
C24   C104  S    
C6    H31   S    
C70   C85   A    
O20   Zn10  S    
C59   C76   A    
C4    C71   S    
C51   C101  A    
N1    N6    A    
C11   H46   S    
C112  H16   S    
C39   C48   T    
C7    H33   S    
O30   Zn12  S    
