data_mof_unit_18689.cif
_audit_creation_date              2013-03-05T16:11:43-0500
_audit_creation_method            fapswitch 2.2
_symmetry_space_group_name_H-M    P1
_symmetry_Int_Tables_number       1
_space_group_crystal_system       triclinic
_cell_length_a                    10.626582
_cell_length_b                    9.932627
_cell_length_c                    10.533153
_cell_angle_alpha                 89.955833
_cell_angle_beta                  90.121654
_cell_angle_gamma                 90.408545
_cell_volume                      1111.74189904

loop_
_atom_site_label
_atom_site_type_symbol
_atom_site_description
_atom_site_fract_x
_atom_site_fract_y
_atom_site_fract_z
_atom_type_partial_charge
O1    O     O_R   0.316770 0.614620 0.499990 -0.582520
O2    O     O_R   0.683230 0.385380 0.500010 -0.582596
O3    O     O_R   0.683230 0.614620 0.500010 -0.608466
O4    O     O_R   0.316770 0.385380 0.499990 -0.608486
C1    C     C_R   0.872082 0.500070 0.500599 -0.052488
C2    C     C_R   0.127918 0.499928 0.499403 -0.052466
C3    C     C_R   0.260372 0.499778 0.499321 0.893445
C4    C     C_R   0.739628 0.500221 0.500680 0.893459
O5    O     O_R   0.499970 0.614650 0.313950 -0.592985
O6    O     O_R   0.500030 0.385350 0.686050 -0.592853
O7    O     O_R   0.500030 0.614650 0.686050 -0.582379
O8    O     O_R   0.499970 0.385350 0.313950 -0.582362
C5    C     C_R   0.502907 0.500105 0.258021 0.982311
C6    C     C_R   0.497091 0.499895 0.741979 0.982322
Zn1   Zn    Zn3+2 0.500000 0.653120 0.500000 1.089745
Zn2   Zn    Zn3+2 0.500000 0.346880 0.500000 1.089764
N1    N     N_R   0.500000 0.857200 0.500000 -0.226262
N2    N     N_R   0.500000 0.142800 0.500000 -0.226261
C7    C     C_3   0.383927 0.489438 0.043955 0.233925
C8    C     C_3   0.616069 0.510563 0.956045 0.233985
C9    C     C_3   0.432884 0.603777 0.960675 0.265869
C10   C     C_3   0.567111 0.396223 0.039326 0.265926
C11   C     C_3   0.445960 0.381907 0.959157 -0.241784
C12   C     C_3   0.554035 0.618094 0.040843 -0.241890
H1    H     H_    0.402242 0.287095 0.924068 0.253560
H2    H     H_    0.597752 0.712906 0.075933 0.253532
C13   C     C_3   0.496294 0.499245 0.876217 -0.317205
C14   C     C_3   0.503701 0.500755 0.123783 -0.317234
C15   C     C_R   0.583041 0.072671 0.573792 0.217916
C16   C     C_R   0.416958 0.927328 0.426209 0.217871
C17   C     C_R   0.416708 0.070867 0.426389 0.243121
C18   C     C_R   0.583299 0.929133 0.573603 0.243096
C19   C     C_R   0.063516 0.416893 0.414533 -0.030693
C20   C     C_R   0.936484 0.583101 0.585471 -0.030685
C21   C     C_R   0.934349 0.415942 0.415946 -0.082907
C22   C     C_R   0.065651 0.584054 0.584056 -0.082814
H3    H     H_    0.112924 0.356132 0.345939 0.228813
H4    H     H_    0.887078 0.643857 0.654069 0.228816
H5    H     H_    0.883197 0.351735 0.350537 0.216353
H6    H     H_    0.116804 0.648261 0.649465 0.216364
N3    N     N_R   0.668743 0.143925 0.654337 0.271225
O9    O     O_R   0.641352 0.158392 0.773798 -0.269804
O10   O     O_R   0.784389 0.162279 0.617553 -0.276794
N4    N     N_R   0.331163 0.856071 0.345750 0.271172
O11   O     O_R   0.358308 0.841839 0.226175 -0.269542
O12   O     O_R   0.215583 0.837605 0.382751 -0.276942
N5    N     N_R   0.326240 0.139772 0.350644 0.251063
O13   O     O_R   0.355423 0.173904 0.235131 -0.292182
O14   O     O_R   0.208125 0.130699 0.381652 -0.324398
N6    N     N_R   0.673749 0.860227 0.649367 0.251059
O15   O     O_R   0.644557 0.826140 0.764890 -0.292173
O16   O     O_R   0.791865 0.869263 0.618358 -0.324424
N7    N     N_R   0.257197 0.481368 0.096010 0.240215
O17   O     O_R   0.185152 0.378607 0.070136 -0.280504
O18   O     O_R   0.215050 0.577819 0.167273 -0.305824
N8    N     N_R   0.742797 0.518630 0.903989 0.240212
O19   O     O_R   0.814844 0.621388 0.929864 -0.280514
O20   O     O_R   0.784937 0.422183 0.832713 -0.305812
N9    N     N_R   0.356723 0.714864 0.914466 0.274454
O21   O     O_R   0.391843 0.838645 0.934903 -0.243023
O22   O     O_R   0.252954 0.690524 0.852865 -0.351859
N10   N     N_R   0.643273 0.285138 0.085536 0.274452
O23   O     O_R   0.608149 0.161355 0.065108 -0.243033
O24   O     O_R   0.747044 0.309479 0.147133 -0.351878

loop_
_geom_bond_atom_site_label_1
_geom_bond_atom_site_label_2
_geom_bond_distance
_ccdc_geom_bond_type
O4    Zn2   1.986980 S    
C1    C4    1.407545 S    
N6    O16   1.300109 A    
C2    C22   1.393794 A    
C5    C14   1.414001 S    
C2    C3    1.407543 S    
O1    Zn1   1.981628 S    
C8    C13   1.527484 S    
C11   C13   1.548926 S    
C6    C13   1.414004 S    
C10   N10   1.455889 S    
O2    Zn2   1.981627 S    
N3    O9    1.300437 A    
C21   H5    1.082133 S    
N5    O13   1.300377 A    
C2    C19   1.392198 A    
N10   O24   1.299548 A    
C8    N8    1.456770 S    
C18   N6    1.426341 S    
C1    C20   1.392196 A    
C7    N7    1.456774 S    
N7    O18   1.300177 A    
N6    O15   1.300374 A    
C9    C13   1.528860 S    
N9    O21   1.300293 A    
N5    O14   1.300113 A    
N2    C15   1.368595 A    
C17   N5    1.426353 S    
N7    O17   1.300230 A    
N8    O19   1.300225 A    
N1    C16   1.368598 A    
N3    O10   1.300888 A    
C16   N4    1.427873 S    
N10   O23   1.300292 A    
O4    C3    1.288420 A    
C1    C21   1.393796 A    
C10   C14   1.528858 S    
N8    O20   1.300204 A    
C9    N9    1.455886 S    
C15   C18   1.425737 A    
C20   C22   1.372677 A    
C11   H1    1.110343 S    
C7    C14   1.527484 S    
C16   C17   1.425740 A    
C19   C21   1.372679 A    
O7    C6    1.282868 A    
C19   H3    1.081072 S    
N9    O22   1.299549 A    
C8    C10   1.523786 S    
O8    Zn2   1.996309 S    
C22   H6    1.082133 S    
O3    Zn1   1.986979 S    
O8    C5    1.282868 A    
Zn2   N2    2.027051 S    
O3    C4    1.288425 A    
O6    C6    1.282217 A    
C9    C12   1.543919 S    
Zn1   N1    2.027051 S    
N1    C18   1.372589 A    
O5    C5    1.282215 A    
C7    C11   1.545028 S    
O1    C3    1.284770 A    
O6    Zn2   1.996885 S    
N2    C17   1.372588 A    
N4    O12   1.301071 A    
C15   N3    1.427768 S    
C10   C11   1.543919 S    
O7    Zn1   1.996308 S    
C8    C12   1.545028 S    
O2    C4    1.284766 A    
N4    O11   1.300738 A    
C12   C14   1.548925 S    
O5    Zn1   1.996886 S    
C12   H2    1.110343 S    
C7    C9    1.523787 S    
C20   H4    1.081066 S    
