data_mof_unit_50875.cif
_audit_creation_date              2012-12-10T20:41:54-0500
_audit_creation_method            fapswitch 2.2
_symmetry_space_group_name_H-M    P1
_symmetry_Int_Tables_number       1
_space_group_crystal_system       triclinic
_cell_length_a                    14.928212
_cell_length_b                    15.258675
_cell_length_c                    9.92884
_cell_angle_alpha                 89.987674
_cell_angle_beta                  88.641034
_cell_angle_gamma                 90.218225
_cell_volume                      2260.98555719

loop_
_atom_site_label
_atom_site_type_symbol
_atom_type_description
_atom_site_fract_x
_atom_site_fract_y
_atom_site_fract_z
_atom_type_partial_charge
C1    C     C_R   0.379504 0.881028 0.500874 0.868967
C2    C     C_R   0.928414 0.467716 0.073879 0.149502
C3    C     C_R   0.576510 0.019604 0.065232 0.452003
C4    C     C_R   0.076510 0.519604 0.065232 0.452002
C5    C     C_R   0.574326 0.020796 0.922546 -0.215961
C6    C     C_R   0.074326 0.520796 0.922546 -0.215961
C7    C     C_R   0.428668 0.967138 0.931997 0.198899
C8    C     C_R   0.928668 0.467139 0.931997 0.198899
C9    C     C_3   0.334251 0.997926 0.930128 -0.495872
C10   C     C_3   0.834251 0.497927 0.930128 -0.495872
C11   C     C_3   0.334157 0.998800 0.083148 -0.474573
C12   C     C_R   0.381989 0.121935 0.500515 0.860738
C13   C     C_3   0.834157 0.498801 0.083148 -0.474572
C14   C     C_R   0.619437 0.120050 0.499283 0.887445
C15   C     C_R   0.621968 0.882108 0.498998 0.898413
C16   C     C_R   0.119437 0.620050 0.499283 0.887429
C17   C     C_R   0.121968 0.382108 0.498998 0.898407
C18   C     C_R   0.301624 0.239669 0.618630 0.141744
C19   C     C_R   0.323207 0.741731 0.582607 0.097238
C20   C     C_R   0.801624 0.739669 0.618630 0.141744
C21   C     C_R   0.823206 0.241733 0.582612 0.097235
C22   C     C_R   0.326632 0.197804 0.499098 -0.105756
C23   C     C_R   0.879503 0.381028 0.500874 0.868969
C24   C     C_R   0.314084 0.814592 0.500266 -0.089120
C25   C     C_R   0.826632 0.697804 0.499098 -0.105755
C26   C     C_R   0.814084 0.314591 0.500266 -0.089125
C27   C     C_R   0.299997 0.232752 0.375336 -0.235664
C28   C     C_R   0.246488 0.818409 0.405235 -0.206698
C29   C     C_R   0.799997 0.732752 0.375336 -0.235664
C30   C     C_R   0.746490 0.318407 0.405231 -0.206698
C31   C     C_R   0.735257 0.797148 0.374247 -0.177185
C32   C     C_R   0.681866 0.253601 0.404623 -0.124350
C33   C     C_R   0.235257 0.297148 0.374247 -0.177171
C34   C     C_R   0.881989 0.621935 0.500515 0.860740
C35   C     C_R   0.181864 0.753603 0.404626 -0.124351
C36   C     C_R   0.698325 0.826760 0.496906 -0.113632
C37   C     C_R   0.686791 0.184790 0.496917 -0.088734
C38   C     C_R   0.198325 0.326760 0.496906 -0.113635
C39   C     C_R   0.186791 0.684790 0.496917 -0.088743
C40   C     C_R   0.737999 0.803838 0.617386 0.133109
C41   C     C_R   0.759585 0.176997 0.581134 0.073575
C42   C     C_R   0.237999 0.303838 0.617386 0.133108
C43   C     C_R   0.259586 0.676996 0.581129 0.073564
C44   C     C_3   0.695999 0.774496 0.747828 -0.455270
C45   C     C_3   0.266071 0.203118 0.748873 -0.501850
C46   C     C_3   0.762005 0.164813 0.730435 -0.411064
C47   C     C_3   0.195998 0.274495 0.747828 -0.455270
C48   C     C_3   0.262011 0.664807 0.730428 -0.411060
C49   C     C_3   0.332646 0.736421 0.731785 -0.444441
C50   C     C_3   0.766071 0.703118 0.748873 -0.501849
C51   C     C_3   0.832639 0.236427 0.731792 -0.444436
C52   C     C_R   0.428414 0.967716 0.073879 0.149502
H1    H     H_    0.323520 0.206214 0.279769 0.174036
H2    H     H_    0.626146 0.259297 0.337218 0.176535
H3    H     H_    0.209838 0.318265 0.278310 0.207239
H4    H     H_    0.126142 0.759300 0.337224 0.176533
H5    H     H_    0.704205 0.823809 0.829098 0.221754
H6    H     H_    0.788319 0.099370 0.758144 0.226430
H7    H     H_    0.204205 0.323809 0.829098 0.221753
H8    H     H_    0.288326 0.599364 0.758130 0.226425
H9    H     H_    0.626661 0.748951 0.736768 0.203618
H10   H     H_    0.698413 0.183985 0.782912 0.222484
H11   H     H_    0.126661 0.248951 0.736768 0.203618
H12   H     H_    0.241192 0.873410 0.336962 0.150526
H13   H     H_    0.198422 0.683978 0.782911 0.222488
H14   H     H_    0.314458 0.211412 0.831326 0.209324
H15   H     H_    0.399836 0.712413 0.760152 0.204358
H16   H     H_    0.814458 0.711413 0.831326 0.209323
H17   H     H_    0.899828 0.212420 0.760167 0.204359
H18   H     H_    0.236968 0.136409 0.737400 0.203416
H19   H     H_    0.309837 0.796776 0.784866 0.210402
H20   H     H_    0.736969 0.636410 0.737401 0.203416
H21   H     H_    0.809828 0.296784 0.784868 0.210398
H22   H     H_    0.632538 0.039613 0.862621 0.199838
H23   H     H_    0.823520 0.706214 0.279769 0.174036
H24   H     H_    0.132538 0.539613 0.862621 0.199836
H25   H     H_    0.329283 0.064019 0.885989 0.210669
H26   H     H_    0.288313 0.948054 0.887945 0.199625
H27   H     H_    0.829283 0.564020 0.885989 0.210669
H28   H     H_    0.788313 0.448056 0.887945 0.199623
H29   H     H_    0.769193 0.025811 0.294742 0.367692
H30   H     H_    0.269174 0.525830 0.294771 0.367691
H31   H     H_    0.741195 0.373407 0.336955 0.150528
H32   H     H_    0.328262 0.065631 0.126949 0.206065
H33   H     H_    0.288472 0.948915 0.129006 0.205070
H34   H     H_    0.828262 0.565632 0.126949 0.206066
H35   H     H_    0.788471 0.448916 0.129006 0.205069
H36   H     H_    0.709838 0.818264 0.278310 0.207237
N1    N     N_R   0.499140 0.000000 0.142800 -0.173486
N2    N     N_R   0.999140 0.500000 0.142800 -0.173486
N3    N     N_R   0.499160 0.000000 0.857150 -0.139231
N4    N     N_R   0.999160 0.500000 0.857150 -0.139231
O1    O     O_R   0.408400 0.908380 0.614690 -0.620408
O2    O     O_R   0.591610 0.908390 0.614650 -0.625671
O3    O     O_R   0.091610 0.591610 0.614650 -0.639104
O4    O     O_R   0.091610 0.408390 0.614650 -0.625670
O5    O     O_R   0.591590 0.091600 0.385310 -0.533022
O6    O     O_R   0.591590 0.908400 0.385310 -0.568290
O7    O     O_R   0.091590 0.591600 0.385310 -0.533033
O8    O     O_R   0.091590 0.408400 0.385310 -0.568292
O9    O     O_2   0.754026 0.035022 0.021647 -0.352250
O10   O     O_2   0.680430 0.147466 0.156534 -0.326643
O11   O     O_3   0.713683 0.996283 0.265676 -0.543888
O12   O     O_R   0.408400 0.091620 0.614690 -0.614870
O13   O     O_2   0.254026 0.535025 0.021647 -0.352228
O14   O     O_2   0.180428 0.647467 0.156536 -0.326654
O15   O     O_3   0.213684 0.496283 0.265674 -0.543887
O16   O     O_R   0.908400 0.408380 0.614690 -0.620407
O17   O     O_R   0.908400 0.591620 0.614690 -0.614870
O18   O     O_R   0.408370 0.908370 0.385350 -0.617311
O19   O     O_R   0.408370 0.091630 0.385350 -0.634706
O20   O     O_R   0.908370 0.408370 0.385350 -0.617310
O21   O     O_R   0.908370 0.591630 0.385350 -0.634704
O22   O     O_R   0.591610 0.091610 0.614650 -0.639111
S1    S     S_3+6 0.682665 0.050919 0.128226 0.015097
S2    S     S_3+6 0.182664 0.550920 0.128226 0.015102
Zn1   Zn    Zn3+2 0.500010 0.000000 0.653130 0.942064
Zn2   Zn    Zn3+2 0.000010 0.500000 0.653130 0.942064
Zn3   Zn    Zn3+2 0.499980 0.000000 0.346870 1.011196
Zn4   Zn    Zn3+2 0.999980 0.500000 0.346870 1.011192

loop_
_geom_bond_atom_site_label_1
_geom_bond_atom_site_label_2
_ccdc_geom_bond_type
C33   H3    S    
C21   C26   A    
O13   S2    D    
O11   S1    S    
C15   O2    A    
O6    Zn3   S    
C27   C33   A    
C34   O21   A    
C23   O20   A    
C46   H10   S    
O4    Zn2   S    
C7    C52   A    
C12   O12   A    
C18   C42   A    
C47   H11   S    
C20   C40   A    
O2    Zn1   S    
C20   C25   A    
C11   C52   S    
C12   C22   S    
C5    H22   S    
O19   Zn3   S    
C23   C26   S    
C30   H31   S    
C2    N2    A    
C2    C13   S    
N4    Zn2   S    
C20   C50   S    
O10   S1    D    
C51   H21   S    
O7    Zn4   S    
N1    Zn3   S    
C28   C35   A    
C13   H34   S    
C41   C46   S    
N3    Zn1   S    
O8    Zn4   S    
C48   H13   S    
C43   C48   S    
C25   C34   S    
C17   C38   S    
C50   H20   S    
C45   H18   S    
C46   H6    S    
C52   N1    A    
O1    Zn1   S    
C32   H2    S    
C19   C43   A    
O17   Zn2   S    
C48   H8    S    
C4    N2    A    
C45   C47   S    
O3    Zn2   S    
C25   C29   A    
C44   H9    S    
O16   Zn2   S    
C36   C40   A    
C4    C6    A    
O20   Zn4   S    
C10   H28   S    
C39   C43   A    
H30   O15   S    
C46   C51   S    
O14   S2    D    
N2    Zn4   S    
O5    Zn3   S    
C35   C39   A    
C1    O18   A    
O21   Zn4   S    
C19   C49   S    
C44   H5    S    
C7    N3    A    
C13   H35   S    
C17   O4    A    
C9    H25   S    
C32   C37   A    
C9    C11   S    
C5    N3    A    
C9    H26   S    
C8    N4    A    
C28   H12   S    
C8    C10   S    
C48   C49   S    
C26   C30   A    
C22   C27   A    
O9    S1    D    
C21   C41   A    
C15   O6    A    
C18   C45   S    
C15   C36   S    
C21   C51   S    
C14   O5    A    
O12   Zn1   S    
H29   O11   S    
C44   C50   S    
C7    C9    S    
C16   O3    A    
C31   H36   S    
C49   H15   S    
C35   H4    S    
C18   C22   A    
C4    S2    S    
C2    C8    A    
C24   C28   A    
C3    C5    A    
C10   C13   S    
O18   Zn3   S    
C10   H27   S    
C27   H1    S    
C16   O7    A    
C6    H24   S    
C29   H23   S    
C11   H32   S    
C33   C38   A    
C3    N1    A    
C19   C24   A    
C29   C31   A    
C14   O22   A    
C14   C37   S    
C30   C32   A    
C11   H33   S    
C6    N4    A    
C23   O16   A    
C42   C47   S    
C37   C41   A    
C17   O8    A    
O15   S2    S    
O22   Zn1   S    
C16   C39   S    
C47   H7    S    
C38   C42   A    
C40   C44   S    
C1    C24   S    
C1    O1    A    
C49   H19   S    
C45   H14   S    
C34   O17   A    
C31   C36   A    
C3    S1    S    
C51   H17   S    
C50   H16   S    
C12   O19   A    
