data_mof_unit_60297.cif
_audit_creation_date              2012-12-10T19:18:02-0500
_audit_creation_method            fapswitch 2.2
_symmetry_space_group_name_H-M    P1
_symmetry_Int_Tables_number       1
_space_group_crystal_system       triclinic
_cell_length_a                    24.415143
_cell_length_b                    24.415122
_cell_length_c                    22.478262
_cell_angle_alpha                 90.001226
_cell_angle_beta                  89.998731
_cell_angle_gamma                 89.999626
_cell_volume                      13399.2626373

loop_
_atom_site_label
_atom_site_type_symbol
_atom_type_description
_atom_site_fract_x
_atom_site_fract_y
_atom_site_fract_z
_atom_type_partial_charge
C1    C     C_R   0.228700 0.271272 0.250024 -0.019213
C2    C     C_R   0.228671 0.728657 0.250002 -0.020102
C3    C     C_R   0.154235 0.681570 0.300665 0.022700
C4    C     C_R   0.318322 0.154127 0.699416 0.022593
C5    C     C_R   0.680808 0.844951 0.301123 0.023229
C6    C     C_R   0.154819 0.681017 0.698990 0.023044
C7    C     C_R   0.845174 0.318983 0.301015 0.023084
C8    C     C_R   0.365826 0.798241 0.232380 0.022373
C9    C     C_R   0.634117 0.201842 0.767300 0.022381
C10   C     C_R   0.201523 0.365605 0.231443 0.021971
C11   C     C_R   0.798213 0.634171 0.767459 0.022335
C12   C     C_R   0.634297 0.201624 0.231804 0.022207
C13   C     C_R   0.728679 0.771361 0.749983 -0.020112
C14   C     C_R   0.365686 0.798384 0.768238 0.022108
C15   C     C_R   0.798433 0.634341 0.231514 0.022094
C16   C     C_R   0.201802 0.365865 0.767496 0.022396
C17   C     C_R   0.147434 0.352547 0.250011 -0.008982
C18   C     C_R   0.852553 0.647467 0.749989 -0.009106
C19   C     C_R   0.352548 0.852546 0.250000 -0.009036
C20   C     C_R   0.647460 0.147464 0.750001 -0.009163
C21   C     C_R   0.852544 0.647437 0.249989 -0.008965
C22   C     C_R   0.147468 0.352554 0.750014 -0.009111
C23   C     C_R   0.647448 0.147447 0.250000 -0.008952
C24   C     C_R   0.271301 0.228665 0.250017 -0.020093
C25   C     C_R   0.352549 0.852549 0.750000 -0.009041
C26   C     C_R   0.852597 0.352605 0.750005 -0.006925
C27   C     C_R   0.147405 0.647401 0.249996 -0.006896
C28   C     C_R   0.647406 0.852607 0.749991 -0.006905
C29   C     C_R   0.352576 0.147414 0.250009 -0.006826
C30   C     C_R   0.147414 0.647414 0.750000 -0.006860
C31   C     C_R   0.852583 0.352583 0.250000 -0.006856
C32   C     C_R   0.352607 0.147407 0.750011 -0.006903
C33   C     C_R   0.647415 0.852574 0.249991 -0.006827
C34   C     C_2   0.079046 0.282178 0.290530 0.590547
C35   C     C_R   0.228675 0.728677 0.750001 -0.020149
C36   C     C_2   0.921438 0.718354 0.711631 0.590921
C37   C     C_2   0.281711 0.921357 0.288643 0.590880
C38   C     C_2   0.718440 0.078525 0.711979 0.591020
C39   C     C_2   0.920963 0.717874 0.290297 0.590672
C40   C     C_2   0.078613 0.281651 0.711647 0.590939
C41   C     C_2   0.718011 0.078886 0.289753 0.590731
C42   C     C_2   0.282020 0.921078 0.710144 0.590736
C43   C     C_2   0.821819 0.381355 0.854593 0.586978
C44   C     C_2   0.177898 0.618931 0.145242 0.586741
C45   C     C_2   0.618702 0.821871 0.854590 0.586757
C46   C     C_R   0.771321 0.271320 0.250000 -0.020118
C47   C     C_2   0.379507 0.176373 0.144317 0.587104
C48   C     C_2   0.176734 0.620110 0.855463 0.587159
C49   C     C_2   0.823269 0.379877 0.144522 0.586936
C50   C     C_2   0.381318 0.178118 0.854617 0.586990
C51   C     C_2   0.620516 0.823675 0.144276 0.587223
C52   C     C_2   0.678129 0.881326 0.645391 0.586992
C53   C     C_2   0.323626 0.120466 0.355700 0.587245
C54   C     C_2   0.881350 0.321833 0.645422 0.586931
C55   C     C_2   0.118939 0.677884 0.354749 0.586731
C56   C     C_2   0.321881 0.118716 0.645405 0.586755
C57   C     C_R   0.271362 0.228680 0.750021 -0.020113
C58   C     C_2   0.676322 0.879454 0.355707 0.587083
C59   C     C_2   0.120108 0.676738 0.644538 0.587160
C60   C     C_2   0.879877 0.323269 0.355477 0.586917
C61   C     C_2   0.421366 0.781715 0.211363 0.590888
C62   C     C_2   0.578511 0.218436 0.788020 0.591025
C63   C     C_2   0.217816 0.420910 0.209482 0.590589
C64   C     C_2   0.781651 0.578610 0.788357 0.590932
C65   C     C_2   0.578888 0.218010 0.210246 0.590728
C66   C     C_2   0.421076 0.782019 0.789858 0.590736
C67   C     C_2   0.782120 0.578991 0.209691 0.590620
C68   C     C_R   0.728665 0.771300 0.249982 -0.020119
C69   C     C_2   0.218356 0.421440 0.788372 0.590923
C70   C     C_1   0.999999 0.500000 0.473333 0.015325
C71   C     C_1   0.000000 0.500000 0.526667 0.015265
C72   C     C_1   0.500000 0.000000 0.473333 0.015374
C73   C     C_R   0.771284 0.728750 0.749976 -0.019144
C74   C     C_1   0.500000 1.000000 0.526667 0.015216
C75   C     C_1   0.499999 1.000000 0.973333 0.015217
C76   C     C_1   0.500000 1.000000 0.026667 0.015376
C77   C     C_1   0.000000 0.500000 0.973333 0.015273
C78   C     C_1   1.000000 0.499999 0.026667 0.015333
C79   C     C_R   1.000000 0.500000 0.089984 0.540854
C80   C     C_R   0.000000 0.500000 0.910016 0.540485
C81   C     C_R   0.500000 0.000000 0.089984 0.540745
C82   C     C_R   0.500000 1.000000 0.910016 0.540470
C83   C     C_R   0.500000 1.000000 0.589983 0.540467
C84   C     C_R   0.271278 0.771267 0.250003 -0.019194
C85   C     C_R   0.500000 0.000000 0.410016 0.540742
C86   C     C_R   0.000000 0.500000 0.589983 0.540465
C87   C     C_R   1.000000 0.500000 0.410016 0.540839
C88   C     C_R   0.105061 0.605059 0.249999 0.597027
C89   C     C_R   0.894940 0.394942 0.750002 0.597327
C90   C     C_R   0.605065 0.894933 0.249998 0.596295
C91   C     C_R   0.394942 0.105060 0.750002 0.597196
C92   C     C_R   0.894935 0.394935 0.250000 0.596476
C93   C     C_R   0.105064 0.605064 0.750000 0.596611
C94   C     C_R   0.394933 0.105065 0.250002 0.596331
C95   C     C_R   0.728730 0.228747 0.749994 -0.019169
C96   C     C_R   0.605060 0.894942 0.749998 0.597206
C97   C     C_R   0.894924 0.605082 0.749996 0.584248
C98   C     C_R   0.105071 0.394923 0.250003 0.585128
C99   C     C_R   0.394923 0.894924 0.750000 0.584854
C100  C     C_R   0.605075 0.105075 0.250000 0.584714
C101  C     C_R   0.105082 0.394925 0.750004 0.584244
C102  C     C_R   0.894922 0.605072 0.249996 0.584963
C103  C     C_R   0.605080 0.105080 0.750000 0.584110
C104  C     C_R   0.394923 0.894923 0.250000 0.584299
C105  C     C_R   0.175374 0.258446 0.267750 -0.104815
C106  C     C_R   0.771270 0.728700 0.249975 -0.019198
C107  C     C_R   0.824860 0.741818 0.733372 -0.104854
C108  C     C_R   0.258233 0.824808 0.266758 -0.104852
C109  C     C_R   0.741846 0.175138 0.733565 -0.104869
C110  C     C_R   0.824613 0.741562 0.267607 -0.104826
C111  C     C_R   0.175180 0.258204 0.733425 -0.104867
C112  C     C_R   0.741634 0.175310 0.267355 -0.104823
C113  C     C_R   0.258371 0.824679 0.732610 -0.104823
C114  C     C_R   0.778275 0.304890 0.799774 -0.105359
C115  C     C_R   0.221572 0.695272 0.200128 -0.105280
C116  C     C_R   0.695175 0.778336 0.799784 -0.105302
C117  C     C_R   0.228751 0.271285 0.750030 -0.019147
C118  C     C_R   0.303927 0.220811 0.199681 -0.105368
C119  C     C_R   0.221008 0.695861 0.800219 -0.105379
C120  C     C_R   0.778988 0.304135 0.199780 -0.105329
C121  C     C_R   0.304862 0.221689 0.799820 -0.105340
C122  C     C_R   0.696057 0.779179 0.199641 -0.105374
C123  C     C_R   0.721694 0.804866 0.700187 -0.105336
C124  C     C_R   0.279163 0.196037 0.300348 -0.105385
C125  C     C_R   0.804871 0.278299 0.700219 -0.105341
C126  C     C_R   0.195285 0.721557 0.299875 -0.105273
C127  C     C_R   0.278342 0.195183 0.700216 -0.105305
C128  C     C_R   0.728718 0.228717 0.250000 -0.019227
C129  C     C_R   0.720794 0.803905 0.300329 -0.105355
C130  C     C_R   0.195860 0.721010 0.699782 -0.105379
C131  C     C_R   0.804136 0.278987 0.300220 -0.105320
C132  C     C_R   0.324820 0.758227 0.233247 -0.104844
C133  C     C_R   0.675120 0.241856 0.766427 -0.104864
C134  C     C_R   0.241536 0.324593 0.232297 -0.104823
C135  C     C_R   0.758204 0.675178 0.766580 -0.104867
C136  C     C_R   0.675311 0.241634 0.232645 -0.104825
C137  C     C_R   0.324677 0.758371 0.767392 -0.104823
C138  C     C_R   0.758419 0.675354 0.232344 -0.104816
C139  C     C_R   0.271278 0.771279 0.750001 -0.019165
C140  C     C_R   0.241819 0.324860 0.766635 -0.104858
C141  C     C_R   0.134364 0.298464 0.268588 0.022039
C142  C     C_R   0.865864 0.701801 0.732508 0.022406
C143  C     C_R   0.298243 0.865818 0.267622 0.022365
C144  C     C_R   0.701838 0.134129 0.732698 0.022378
C145  C     C_R   0.865627 0.701554 0.268453 0.022017
C146  C     C_R   0.134173 0.298214 0.732545 0.022323
C147  C     C_R   0.701624 0.134296 0.268195 0.022207
C148  C     C_R   0.298384 0.865687 0.731763 0.022109
C149  C     C_R   0.818275 0.345929 0.800584 0.022475
C150  C     C_R   0.771333 0.271355 0.749995 -0.020166
C151  C     C_R   0.181581 0.654226 0.199330 0.022694
C152  C     C_R   0.654119 0.818317 0.800582 0.022588
C153  C     C_R   0.344977 0.180830 0.198887 0.023194
C154  C     C_R   0.181015 0.654820 0.801010 0.023048
C155  C     C_R   0.818984 0.345174 0.198984 0.023062
C156  C     C_R   0.345905 0.181693 0.800610 0.022568
C157  C     C_R   0.655022 0.819178 0.198855 0.023221
C158  C     C_R   0.681698 0.845909 0.699396 0.022567
C159  C     C_R   0.319157 0.154998 0.301134 0.023193
C160  C     C_R   0.845917 0.318290 0.699422 0.022514
H1    H     H_    0.166035 0.216926 0.281487 0.171620
H2    H     H_    0.247829 0.701265 0.161796 0.173724
H3    H     H_    0.701085 0.751991 0.838058 0.173763
H4    H     H_    0.297382 0.246491 0.160992 0.173151
H5    H     H_    0.246834 0.702267 0.838818 0.173333
H6    H     H_    0.753160 0.297730 0.161182 0.173332
H7    H     H_    0.298958 0.248030 0.838100 0.173784
H8    H     H_    0.702608 0.753511 0.160943 0.173167
H9    H     H_    0.748039 0.798964 0.661910 0.173789
H10   H     H_    0.253484 0.202575 0.339040 0.173167
H11   H     H_    0.798990 0.251925 0.661960 0.173832
H12   H     H_    0.834411 0.783522 0.720491 0.171243
H13   H     H_    0.201276 0.747810 0.338210 0.173681
H14   H     H_    0.252001 0.201097 0.661940 0.173753
H15   H     H_    0.746463 0.797347 0.339024 0.173146
H16   H     H_    0.202265 0.746837 0.661184 0.173338
H17   H     H_    0.797731 0.253159 0.338818 0.173330
H18   H     H_    0.334341 0.716544 0.220254 0.171346
H19   H     H_    0.665542 0.283589 0.779179 0.171186
H20   H     H_    0.283058 0.333927 0.218561 0.171594
H21   H     H_    0.716496 0.665634 0.779459 0.171224
H22   H     H_    0.665905 0.283217 0.219187 0.171464
H23   H     H_    0.216549 0.834324 0.279751 0.171348
H24   H     H_    0.334079 0.716795 0.780879 0.171387
H25   H     H_    0.716883 0.665996 0.218674 0.171529
H26   H     H_    0.283523 0.334411 0.779517 0.171256
H27   H     H_    0.024630 0.221132 0.303813 0.360454
H28   H     H_    0.976232 0.779454 0.700652 0.360133
H29   H     H_    0.220598 0.976079 0.299955 0.360185
H30   H     H_    0.779541 0.023655 0.701406 0.360106
H31   H     H_    0.975493 0.778905 0.303185 0.360431
H32   H     H_    0.023803 0.220559 0.700713 0.360148
H33   H     H_    0.779072 0.024283 0.302091 0.360327
H34   H     H_    0.783580 0.165566 0.720811 0.171180
H35   H     H_    0.220989 0.975700 0.697752 0.360371
H36   H     H_    0.804812 0.390282 0.941945 0.350924
H37   H     H_    0.194442 0.610318 0.057759 0.350837
H38   H     H_    0.609849 0.805027 0.941979 0.350763
H39   H     H_    0.386444 0.190659 0.056187 0.351179
H40   H     H_    0.191550 0.612778 0.943440 0.351125
H41   H     H_    0.808452 0.387200 0.056535 0.351236
H42   H     H_    0.390174 0.194950 0.942009 0.350779
H43   H     H_    0.613629 0.809481 0.056129 0.351177
H44   H     H_    0.694979 0.890192 0.558005 0.350767
H45   H     H_    0.833964 0.783101 0.281276 0.171500
H46   H     H_    0.309332 0.113514 0.443827 0.351172
H47   H     H_    0.890246 0.304928 0.558045 0.350903
H48   H     H_    0.110355 0.694351 0.442253 0.350833
H49   H     H_    0.305060 0.109879 0.558009 0.350773
H50   H     H_    0.690496 0.886319 0.443860 0.351181
H51   H     H_    0.112770 0.691566 0.556564 0.351124
H52   H     H_    0.887200 0.308451 0.443463 0.351226
H53   H     H_    0.476104 0.720609 0.200079 0.360181
H54   H     H_    0.523629 0.279527 0.798582 0.360104
H55   H     H_    0.278855 0.475343 0.196241 0.360484
H56   H     H_    0.165636 0.216497 0.720545 0.171221
H57   H     H_    0.720555 0.523802 0.799299 0.360132
H58   H     H_    0.524286 0.279072 0.197904 0.360328
H59   H     H_    0.475695 0.720987 0.802256 0.360372
H60   H     H_    0.721081 0.524478 0.196762 0.360390
H61   H     H_    0.279461 0.476229 0.799366 0.360135
H62   H     H_    0.783218 0.165904 0.280813 0.171467
H63   H     H_    0.216794 0.834081 0.719123 0.171384
H64   H     H_    0.751897 0.299005 0.838028 0.173897
O1    O     O_3   1.000000 0.500000 0.250000 -0.482408
O2    O     O_R   0.000000 0.454540 0.882020 -0.522208
O3    O     O_R   0.859890 0.303850 0.409860 -0.677945
O4    O     O_2   0.452223 0.815116 0.188563 -0.476383
O5    O     O_R   0.437850 0.727019 0.216209 -0.679665
O6    O     O_2   0.547685 0.185159 0.811077 -0.475307
O7    O     O_R   0.561932 0.273058 0.782612 -0.679651
O8    O     O_2   0.184083 0.451695 0.187154 -0.475902
O9    O     O_R   0.272645 0.437254 0.212909 -0.679845
O10   O     O_2   0.814987 0.547788 0.811318 -0.475439
O11   O     O_R   0.726994 0.562070 0.783223 -0.679691
O12   O     O_2   0.548093 0.184418 0.187679 -0.476555
O13   O     O_R   0.545460 0.000000 0.117980 -0.521868
O14   O     O_R   0.562452 0.272775 0.214332 -0.679691
O15   O     O_2   0.451823 0.815624 0.812475 -0.475612
O16   O     O_R   0.437544 0.727265 0.785780 -0.679746
O17   O     O_2   0.815818 0.548204 0.187298 -0.476514
O18   O     O_R   0.727314 0.562604 0.213332 -0.679771
O19   O     O_2   0.185000 0.452304 0.811239 -0.476140
O20   O     O_R   0.273029 0.437949 0.783319 -0.679692
O21   O     O_R   0.454540 0.000000 0.882020 -0.522085
O22   O     O_R   0.500000 0.954540 0.617980 -0.522088
O23   O     O_R   0.500000 0.045460 0.382020 -0.521871
O24   O     O_R   0.954540 0.500000 0.617980 -0.522235
O25   O     O_R   0.045460 0.500000 0.382020 -0.522062
O26   O     O_R   0.500000 0.045460 0.617980 -0.522208
O27   O     O_R   0.500000 0.954540 0.382020 -0.521948
O28   O     O_R   0.045460 0.500000 0.617980 -0.521970
O29   O     O_3   1.000000 0.500000 0.750000 -0.482453
O30   O     O_R   0.954540 0.500000 0.382020 -0.521814
O31   O     O_R   0.063990 0.609470 0.215390 -0.504122
O32   O     O_R   0.936010 0.390530 0.784610 -0.503857
O33   O     O_R   0.609470 0.936010 0.215390 -0.504246
O34   O     O_R   0.390530 0.063990 0.784610 -0.504182
O35   O     O_R   0.936010 0.390530 0.215390 -0.504226
O36   O     O_R   0.063990 0.609470 0.784610 -0.504034
O37   O     O_R   0.390530 0.063990 0.215390 -0.504038
O38   O     O_R   0.609470 0.936010 0.784610 -0.503869
O39   O     O_R   0.936010 0.609470 0.784610 -0.510673
O40   O     O_3   0.500000 0.000000 0.250000 -0.482541
O41   O     O_R   0.063990 0.390530 0.215390 -0.510616
O42   O     O_R   0.390530 0.936010 0.784610 -0.510614
O43   O     O_R   0.609470 0.063990 0.215390 -0.510698
O44   O     O_R   0.063990 0.390530 0.784610 -0.510687
O45   O     O_R   0.936010 0.609470 0.215390 -0.510670
O46   O     O_R   0.609470 0.063990 0.784610 -0.510665
O47   O     O_R   0.390530 0.936010 0.215390 -0.510707
O48   O     O_R   0.563990 0.109470 0.715390 -0.510677
O49   O     O_R   0.436010 0.890530 0.284610 -0.510723
O50   O     O_R   0.109470 0.436010 0.715390 -0.510663
O51   O     O_3   0.500000 0.000000 0.750000 -0.482365
O52   O     O_R   0.890530 0.563990 0.284610 -0.510662
O53   O     O_R   0.436010 0.890530 0.715390 -0.510610
O54   O     O_R   0.563990 0.109470 0.284610 -0.510701
O55   O     O_R   0.890530 0.563990 0.715390 -0.510675
O56   O     O_R   0.109470 0.436010 0.284610 -0.510620
O57   O     O_R   0.436010 0.109470 0.284610 -0.504240
O58   O     O_R   0.563990 0.890530 0.715390 -0.504179
O59   O     O_R   0.890530 0.436010 0.284610 -0.504219
O60   O     O_R   0.109470 0.563990 0.715390 -0.504023
O61   O     O_R   0.563990 0.890530 0.284610 -0.504055
O62   O     O_R   0.000000 0.454540 0.117980 -0.521817
O63   O     O_R   0.436010 0.109470 0.715390 -0.503875
O64   O     O_R   0.109470 0.563990 0.284610 -0.504191
O65   O     O_R   0.890530 0.436010 0.715390 -0.503957
O66   O     O_2   0.048226 0.315926 0.312780 -0.476551
O67   O     O_R   0.062728 0.227337 0.287168 -0.679862
O68   O     O_2   0.952294 0.685001 0.688744 -0.476144
O69   O     O_R   0.937955 0.773022 0.716705 -0.679682
O70   O     O_2   0.315114 0.952225 0.311422 -0.476366
O71   O     O_R   0.227009 0.937826 0.283824 -0.679684
O72   O     O_2   0.685165 0.047690 0.688932 -0.475304
O73   O     O_R   1.000000 0.545460 0.882020 -0.521970
O74   O     O_R   0.773067 0.061957 0.717375 -0.679662
O75   O     O_2   0.951714 0.684191 0.312770 -0.475818
O76   O     O_R   0.937378 0.772667 0.286591 -0.679756
O77   O     O_2   0.047793 0.314986 0.688678 -0.475371
O78   O     O_R   0.062071 0.226996 0.716790 -0.679690
O79   O     O_2   0.684418 0.048091 0.312317 -0.476569
O80   O     O_R   0.772775 0.062450 0.285666 -0.679688
O81   O     O_2   0.315623 0.951822 0.687522 -0.475616
O82   O     O_R   0.227266 0.937549 0.714229 -0.679744
O83   O     O_2   0.841918 0.427161 0.851994 -0.480110
O84   O     O_R   0.454540 0.000000 0.117980 -0.521949
O85   O     O_R   0.800635 0.362539 0.908694 -0.678972
O86   O     O_2   0.158049 0.573015 0.147845 -0.480276
O87   O     O_R   0.198678 0.637996 0.091062 -0.678812
O88   O     O_2   0.572823 0.841798 0.851943 -0.480138
O89   O     O_R   0.637608 0.800882 0.908740 -0.678970
O90   O     O_2   0.425844 0.157501 0.146738 -0.480698
O91   O     O_R   0.359228 0.195329 0.089871 -0.677682
O92   O     O_2   0.157608 0.573880 0.852999 -0.480531
O93   O     O_R   0.196141 0.640099 0.909849 -0.677934
O94   O     O_2   0.842413 0.426100 0.146978 -0.480633
O95   O     O_R   0.545460 0.000000 0.882020 -0.522207
O96   O     O_R   0.803850 0.359891 0.090139 -0.677942
O97   O     O_2   0.427188 0.158169 0.851968 -0.480065
O98   O     O_R   0.362419 0.199111 0.908770 -0.678939
O99   O     O_2   0.574172 0.842530 0.146696 -0.480659
O100  O     O_R   0.640830 0.804778 0.089819 -0.677658
O101  O     O_2   0.658170 0.927191 0.648038 -0.480067
O102  O     O_R   0.699139 0.862436 0.591241 -0.678956
O103  O     O_2   0.342525 0.074140 0.353276 -0.480642
O104  O     O_R   0.304651 0.140731 0.410147 -0.677689
O105  O     O_2   0.927200 0.341828 0.648061 -0.480086
O106  O     O_R   0.000000 0.545460 0.117980 -0.522042
O107  O     O_R   0.862492 0.300765 0.591286 -0.678920
O108  O     O_2   0.072993 0.658108 0.352123 -0.480258
O109  O     O_R   0.138038 0.698580 0.408953 -0.678762
O110  O     O_2   0.341793 0.072830 0.648053 -0.480139
O111  O     O_R   0.300914 0.137635 0.591250 -0.678951
O112  O     O_2   0.657501 0.925812 0.353290 -0.480713
O113  O     O_R   0.695190 0.859120 0.410164 -0.677648
O114  O     O_2   0.073880 0.657605 0.647002 -0.480533
O115  O     O_R   0.140092 0.696154 0.590155 -0.677933
O116  O     O_2   0.926101 0.342412 0.353021 -0.480635
Zn1   Zn    Zn3+2 0.064970 0.500000 0.299470 1.062058
Zn2   Zn    Zn3+2 0.435030 0.000000 0.200530 1.061835
Zn3   Zn    Zn3+2 0.000000 0.435030 0.799470 1.061812
Zn4   Zn    Zn3+2 1.000000 0.564970 0.200530 1.062062
Zn5   Zn    Zn3+2 0.435030 0.000000 0.799470 1.061957
Zn6   Zn    Zn3+2 0.564970 0.000000 0.200530 1.061849
Zn7   Zn    Zn3+2 0.000000 0.564970 0.799470 1.061865
Zn8   Zn    Zn3+2 1.000000 0.435030 0.200530 1.062148
Zn9   Zn    Zn3+2 0.935030 0.500000 0.700530 1.061775
Zn10  Zn    Zn3+2 0.500000 0.935030 0.299470 1.061825
Zn11  Zn    Zn3+2 0.500000 0.064970 0.700530 1.061905
Zn12  Zn    Zn3+2 0.935030 0.500000 0.299470 1.062121
Zn13  Zn    Zn3+2 0.064970 0.500000 0.700530 1.061860
Zn14  Zn    Zn3+2 0.500000 0.064970 0.299470 1.061849
Zn15  Zn    Zn3+2 0.500000 0.935030 0.700530 1.061957
Zn16  Zn    Zn3+2 0.564970 0.000000 0.799470 1.061913

loop_
_geom_bond_atom_site_label_1
_geom_bond_atom_site_label_2
_ccdc_geom_bond_type
O33   Zn6   S    
C20   C144  A    
C91   O63   A    
C10   C63   S    
H55   O9    S    
C74   C83   S    
C41   O79   D    
C120  H6    S    
C137  H24   S    
C12   C23   A    
C118  H4    S    
H37   O87   S    
C92   O59   A    
C88   O64   A    
O30   Zn12  S    
C98   O41   A    
H32   O78   S    
C95   C133  A    
C118  C153  A    
C36   C142  S    
C35   C139  S    
C73   C135  A    
C86   O24   A    
C26   C160  A    
C39   O76   S    
O50   Zn13  S    
C110  C145  A    
C17   C98   S    
C108  H23   S    
H49   O111  S    
C79   O62   A    
C4    C56   S    
C43   O83   D    
O59   Zn12  S    
H54   O7    S    
C131  H17   S    
H30   O74   S    
C53   C159  S    
C54   O107  S    
C8    C19   A    
C103  O46   A    
C138  H25   S    
O40   Zn10  S    
C64   O11   S    
C95   C109  A    
C47   C153  S    
C53   O104  S    
C51   C157  S    
C120  C155  A    
O23   Zn14  S    
O25   Zn1   S    
O34   Zn5   S    
C75   C76   T    
O95   Zn16  S    
C14   C137  A    
C39   C145  S    
C28   C158  A    
O28   Zn13  S    
C4    C32   A    
O37   Zn2   S    
O29   Zn7   S    
C6    C30   A    
C13   C73   S    
H58   O14   S    
H60   O18   S    
H53   O5    S    
C96   O38   A    
O44   Zn3   S    
C66   O16   S    
C49   C155  S    
C26   C149  A    
H39   O91   S    
O65   Zn9   S    
O51   Zn16  S    
C69   O20   S    
C28   C96   S    
C104  O47   A    
C91   O34   A    
H31   O76   S    
C13   C123  A    
O45   Zn4   S    
C109  C144  A    
C40   O77   D    
C125  H11   S    
H51   O115  S    
C97   O39   A    
C30   C154  A    
C115  C151  A    
C132  H18   S    
C129  H15   S    
C1    C105  A    
H29   O71   S    
C9    C133  A    
C11   C18   A    
C102  O45   A    
C54   O105  D    
C65   O12   D    
C6    C130  A    
H57   O11   S    
C72   C85   S    
C125  C160  A    
C50   O98   S    
C5    C58   S    
C113  C148  A    
C29   C94   S    
C113  H63   S    
O13   Zn6   S    
C32   C156  A    
H52   O3    S    
C3    C55   S    
C87   O30   A    
C22   C146  A    
C62   O6    D    
O1    Zn4   S    
C5    C33   A    
C113  C139  A    
O21   Zn5   S    
C119  H5    S    
C127  H14   S    
C23   C100  S    
C37   O71   S    
C38   O72   D    
C60   O116  D    
C16   C140  A    
C70   C87   S    
C67   O18   S    
C88   O31   A    
C51   O100  S    
H41   O96   S    
C52   O102  S    
C42   O81   D    
C111  C146  A    
C84   C132  A    
O2    Zn3   S    
C64   O10   D    
O24   Zn9   S    
O51   Zn5   S    
C71   C86   S    
C19   C104  S    
C15   C67   S    
O1    Zn8   S    
C46   C120  A    
C95   C150  S    
C35   C130  A    
C45   O89   S    
C80   O73   A    
C21   C102  S    
C89   O65   A    
C101  O44   A    
C85   O27   A    
C55   O109  S    
C105  H1    S    
C101  O50   A    
O40   Zn6   S    
C135  H21   S    
C92   O35   A    
C34   O67   S    
C87   O25   A    
C48   C154  S    
O48   Zn11  S    
C6    C59   S    
C45   O88   D    
C27   C151  A    
C38   O74   S    
C57   C127  A    
C75   C82   S    
O46   Zn16  S    
C112  C147  A    
C40   C146  S    
C111  C117  A    
C79   O106  A    
C140  H26   S    
C3    C27   A    
C97   O55   A    
C98   O56   A    
O29   Zn3   S    
O43   Zn6   S    
C81   O13   A    
C48   O92   D    
C110  H45   S    
O31   Zn4   S    
O57   Zn14  S    
C1    C24   S    
C12   C136  A    
C136  H22   S    
C85   O23   A    
C39   O75   D    
O49   Zn10  S    
C80   O2    A    
C93   O60   A    
C99   O42   A    
O54   Zn14  S    
C116  H3    S    
C2    C84   S    
C42   C148  S    
C3    C126  A    
C56   O110  D    
C34   C141  S    
C20   C103  S    
C77   C78   T    
C137  C139  A    
C22   C101  S    
C55   O108  D    
C121  C156  A    
C128  C136  A    
H33   O80   S    
O61   Zn10  S    
O53   Zn15  S    
C73   C107  A    
C53   O103  D    
C17   C141  A    
C25   C99   S    
C89   O32   A    
C61   O5    S    
C70   C71   T    
C18   C97   S    
O56   Zn1   S    
C7    C131  A    
O36   Zn7   S    
H43   O100  S    
C5    C129  A    
O52   Zn12  S    
O1    Zn1   S    
C47   O90   D    
C52   C158  S    
C44   O87   S    
C48   O93   S    
C41   O80   S    
C33   C157  A    
C107  H12   S    
C86   O28   A    
C65   O14   S    
C121  H7    S    
C61   O4    D    
C122  H8    S    
O32   Zn3   S    
C111  H56   S    
O62   Zn8   S    
C68   C122  A    
O51   Zn15  S    
C69   O19   D    
C23   C147  A    
O55   Zn9   S    
O35   Zn8   S    
O38   Zn16  S    
H59   O16   S    
C11   C135  A    
C2    C115  A    
C9    C20   A    
C59   O114  D    
C40   O78   S    
C56   O111  S    
C94   O57   A    
C72   C74   T    
C36   O69   S    
O73   Zn7   S    
C119  C154  A    
O26   Zn11  S    
C83   O26   A    
C117  C140  A    
C7    C60   S    
C57   C117  S    
C77   C80   S    
C16   C22   A    
C37   C143  S    
H38   O89   S    
C100  O54   A    
C38   C144  S    
H35   O82   S    
C31   C155  A    
O29   Zn9   S    
C82   O95   A    
C12   C65   S    
O1    Zn12  S    
C45   C152  S    
C60   O3    S    
O84   Zn2   S    
H46   O104  S    
C84   C108  A    
C122  C157  A    
C25   C148  A    
O40   Zn2   S    
C14   C25   A    
O27   Zn10  S    
C112  C128  A    
C13   C116  A    
H27   O67   S    
C125  C150  A    
C54   C160  S    
C94   O37   A    
C62   O7    S    
C114  C149  A    
C90   O33   A    
C104  O49   A    
C4    C127  A    
C108  C143  A    
C21   C145  A    
O60   Zn13  S    
C37   O70   D    
C66   O15   D    
C99   O53   A    
C35   C119  A    
C67   O17   D    
C29   C159  A    
C51   O99   D    
C26   C89   S    
C42   O82   S    
C46   C128  S    
C30   C93   S    
C105  C141  A    
C106  C138  A    
C32   C91   S    
C10   C17   A    
C124  C159  A    
C24   C124  A    
O40   Zn14  S    
C49   O94   D    
O42   Zn5   S    
C50   C156  S    
C8    C132  A    
H28   O69   S    
C43   C149  S    
C100  O43   A    
C8    C61   S    
C15   C138  A    
H48   O109  S    
C68   C129  A    
C68   C106  S    
O29   Zn13  S    
O41   Zn8   S    
C102  O52   A    
C50   O97   D    
H36   O85   S    
C44   C151  S    
C7    C31   A    
C47   O91   S    
C9    C62   S    
C44   O86   D    
C18   C142  A    
C11   C64   S    
C46   C131  A    
C114  H64   S    
C78   C79   S    
C133  H19   S    
C130  H16   S    
C96   O58   A    
H42   O98   S    
C63   O9    S    
C93   O36   A    
C41   C147  S    
O39   Zn7   S    
C90   O61   A    
C14   C66   S    
C109  H34   S    
C107  C142  A    
C126  H13   S    
C123  H9    S    
O47   Zn2   S    
C2    C126  A    
C59   O115  S    
C28   C152  A    
H47   O107  S    
C1    C134  A    
H40   O93   S    
C116  C152  A    
O51   Zn11  S    
C29   C153  A    
C106  C110  A    
C36   O68   D    
C19   C143  A    
C52   O101  D    
C82   O21   A    
C112  H62   S    
C43   O85   S    
C16   C69   S    
C10   C134  A    
C76   C81   S    
C123  C158  A    
O22   Zn15  S    
O58   Zn15  S    
C24   C118  A    
C58   O112  D    
H50   O113  S    
C134  H20   S    
C103  O48   A    
C115  H2    S    
C49   O96   S    
H44   O102  S    
C33   C90   S    
O63   Zn11  S    
O64   Zn1   S    
C83   O22   A    
C27   C88   S    
C57   C121  A    
C15   C21   A    
C124  H10   S    
C31   C92   S    
C58   O113  S    
C114  C150  A    
O106  Zn4   S    
C81   O84   A    
C63   O8    D    
C34   O66   D    
H61   O20   S    
