data_mof_unit_10805.cif
_audit_creation_date              2012-10-26T19:42:13-0400
_audit_creation_method            fapswitch 2.2
_symmetry_space_group_name_H-M    P1
_symmetry_Int_Tables_number       1
_space_group_crystal_system       triclinic
_cell_length_a                    9.602712
_cell_length_b                    10.785837
_cell_length_c                    17.352001
_cell_angle_alpha                 92.959144
_cell_angle_beta                  85.890752
_cell_angle_gamma                 90.08699
_cell_volume                      1790.18904897

loop_
_atom_site_label
_atom_site_type_symbol
_atom_type_description
_atom_site_fract_x
_atom_site_fract_y
_atom_site_fract_z
_atom_type_partial_charge
C1    C     C_R   0.499499 0.737556 0.504378 0.618469
C2    C     C_R   0.528558 0.487776 0.265641 -0.038286
C3    C     C_R   0.351952 0.886685 0.637208 0.246536
C4    C     C_R   0.481735 0.499777 0.649785 0.575756
C5    C     C_R   0.276296 0.962013 0.694193 -0.110209
C6    C     C_R   0.273872 0.089876 0.689827 -0.155699
C7    C     C_R   0.347007 0.145391 0.629005 -0.117752
C8    C     C_R   0.421207 0.073228 0.569347 -0.010339
C9    C     C_R   0.422638 0.941837 0.572313 0.060681
C10   C     C_R   0.499362 0.872075 0.511327 0.013620
C11   C     C_R   0.578790 0.931406 0.453601 -0.167602
C12   C     C_R   0.342661 0.498050 0.776666 -0.146023
C13   C     C_R   0.579046 0.058999 0.452251 -0.152551
C14   C     C_R   0.498550 0.129711 0.508110 0.011213
C15   C     C_R   0.868995 0.334979 0.396604 -0.086862
C16   C     C_R   0.499666 0.262869 0.501746 0.522328
C17   C     C_R   0.947532 0.254133 0.346083 -0.164262
C18   C     C_R   0.091058 0.253740 0.346261 -0.167207
C19   C     C_R   0.156948 0.334232 0.396933 -0.089206
C20   C     C_R   0.081178 0.418604 0.449298 0.157202
C21   C     C_R   0.931635 0.418813 0.449219 0.159207
C22   C     C_R   0.919995 0.577224 0.548388 -0.008259
C23   C     C_R   0.417331 0.452507 0.146147 -0.141777
C24   C     C_R   0.067869 0.577220 0.548350 -0.006901
C25   C     C_R   0.518402 0.497337 0.350189 0.526089
C26   C     C_R   0.472643 0.501791 0.734310 0.020885
C27   C     C_R   0.595464 0.509590 0.773413 -0.122265
C28   C     C_R   0.588852 0.512430 0.853488 -0.105508
C29   C     C_R   0.459238 0.506308 0.895832 0.045637
C30   C     C_R   0.336135 0.501186 0.857198 -0.116950
C31   C     C_R   0.408549 0.463756 0.226171 -0.149749
C32   C     C_R   0.658076 0.499332 0.223942 -0.067246
C33   C     C_R   0.668237 0.491184 0.143268 0.258659
C34   C     C_R   0.545745 0.467654 0.103771 0.033256
C35   C     C_2   0.450676 0.508703 0.980472 -0.138401
C36   C     C_2   0.550018 0.457208 0.019005 -0.147434
Cu1   Cu    Cu3+1 0.359340 0.500010 0.500010 0.950877
Cu2   Cu    Cu3+1 0.640660 0.499990 0.499990 0.940289
H1    H     H_    0.697058 0.514477 0.742304 0.125718
H2    H     H_    0.307690 0.452095 0.257030 0.144776
H3    H     H_    0.152152 0.190542 0.306807 0.124276
H4    H     H_    0.267361 0.326214 0.392318 0.181258
H5    H     H_    0.118000 0.640565 0.587999 0.138191
H6    H     H_    0.751826 0.517322 0.253901 0.157449
H7    H     H_    0.637731 0.409056 0.987859 0.124479
H8    H     H_    0.235324 0.498010 0.889340 0.107591
H9    H     H_    0.323226 0.430816 0.117339 0.127270
H10   H     H_    0.246411 0.492849 0.747729 0.118241
H11   H     H_    0.360872 0.554024 0.011550 0.128044
H12   H     H_    0.638786 0.878130 0.408032 0.129531
H13   H     H_    0.685217 0.521498 0.882039 0.100381
H14   H     H_    0.789322 0.524805 0.051349 0.319753
H15   H     H_    0.307091 0.739095 0.694439 0.308502
H16   H     H_    0.221320 0.921521 0.743444 0.097822
H17   H     H_    0.217357 0.146732 0.734883 0.121586
H18   H     H_    0.346214 0.245556 0.630358 0.150600
H19   H     H_    0.639662 0.102842 0.406086 0.112016
H20   H     H_    0.859823 0.640552 0.588075 0.119697
H21   H     H_    0.759777 0.327514 0.391807 0.177542
H22   H     H_    0.896316 0.191190 0.306533 0.122949
N1    N     N_R   0.852190 0.498790 0.499250 -0.246110
N2    N     N_R   0.148060 0.498710 0.499220 -0.247277
O1    O     O_R   0.381190 0.680360 0.500010 -0.453687
O2    O     O_3   0.362561 0.761050 0.646661 -0.701891
O3    O     O_R   0.618760 0.680340 0.500000 -0.500937
O4    O     O_R   0.367440 0.500030 0.613600 -0.493586
O5    O     O_R   0.605010 0.500010 0.613590 -0.503674
O6    O     O_R   0.381240 0.319660 0.500000 -0.533131
O7    O     O_R   0.618810 0.319640 0.499990 -0.518670
O8    O     O_R   0.394990 0.499990 0.386410 -0.523221
O9    O     O_R   0.632560 0.499970 0.386400 -0.532074
O10   O     O_3   0.798473 0.509484 0.106408 -0.713630

loop_
_geom_bond_atom_site_label_1
_geom_bond_atom_site_label_2
_ccdc_geom_bond_type
C22   H20   S    
C4    O5    A    
C4    C26   S    
Cu2   O3    S    
C35   H11   S    
C6    C7    A    
C25   O9    A    
C9    C10   A    
C29   C35   S    
C1    O3    A    
C19   C20   A    
C19   H4    S    
C15   C21   A    
C6    H17   S    
C12   H10   S    
Cu2   N1    S    
C12   C30   A    
C32   C33   A    
C23   C34   A    
C17   C18   A    
C32   H6    S    
Cu2   O7    S    
C36   H7    S    
C11   H12   S    
C13   C14   A    
Cu2   O5    S    
C22   N1    A    
C4    O4    A    
C11   C13   A    
C26   C27   A    
C29   C30   A    
C7    H18   S    
C3    C9    A    
C1    O1    A    
C22   C24   A    
C28   C29   A    
H14   O10   S    
Cu1   Cu2   S    
C33   C34   A    
C2    C25   S    
C34   C36   S    
C16   O6    A    
Cu1   O4    S    
C20   N2    A    
C5    C6    A    
C28   H13   S    
C14   C16   S    
C23   H9    S    
C10   C11   A    
C1    C10   S    
C17   H22   S    
Cu1   O6    S    
C5    H16   S    
C7    C8    A    
C13   H19   S    
C20   C21   A    
C2    C32   A    
C18   C19   A    
C18   H3    S    
C27   H1    S    
C27   C28   A    
C15   C17   A    
C24   H5    S    
Cu1   N2    S    
Cu2   O9    S    
C8    C9    A    
C8    C14   A    
C25   O8    A    
C33   O10   S    
Cu1   O1    S    
C31   H2    S    
C3    O2    S    
C24   N2    A    
C15   H21   S    
H15   O2    S    
C30   H8    S    
C21   N1    A    
Cu1   O8    S    
C16   O7    A    
C35   C36   D    
C12   C26   A    
C2    C31   A    
C3    C5    A    
C23   C31   A    
