data_mof_unit_53070.cif
_audit_creation_date              2012-12-10T17:24:44-0500
_audit_creation_method            fapswitch 2.2
_symmetry_space_group_name_H-M    P1
_symmetry_Int_Tables_number       1
_space_group_crystal_system       triclinic
_cell_length_a                    23.477731
_cell_length_b                    10.810688
_cell_length_c                    9.590617
_cell_angle_alpha                 90.055002
_cell_angle_beta                  90.124364
_cell_angle_gamma                 92.256239
_cell_volume                      2432.30441423

loop_
_atom_site_label
_atom_site_type_symbol
_atom_type_description
_atom_site_fract_x
_atom_site_fract_y
_atom_site_fract_z
_atom_type_partial_charge
C1    C     C_R   0.505521 0.263068 0.500613 0.823643
C2    C     C_R   0.968618 0.446791 0.238887 0.160661
C3    C     C_R   0.028832 0.462726 0.232184 0.149373
C4    C     C_R   0.060460 0.491075 0.355770 -0.050966
C5    C     C_R   0.030960 0.523870 0.478055 -0.052907
C6    C     C_R   0.061833 0.559144 0.599403 -0.088832
C7    C     C_R   0.032867 0.594956 0.719368 -0.251260
C8    C     C_R   0.973752 0.593418 0.722116 0.626560
C9    C     C_R   0.120725 0.484748 0.363816 0.548734
C10   C     C_R   0.121344 0.556877 0.598959 0.572326
C11   C     C_R   0.234940 0.400269 0.541338 0.214578
C12   C     C_R   0.391253 0.498698 0.499791 0.829971
C13   C     C_R   0.295343 0.395351 0.545890 0.104387
C14   C     C_R   0.328904 0.498532 0.498476 -0.056892
C15   C     C_R   0.303103 0.602705 0.445080 -0.222404
C16   C     C_R   0.244190 0.607634 0.441061 -0.135775
C17   C     C_R   0.209970 0.508158 0.489164 0.321609
C18   C     C_R   0.760765 0.402490 0.471011 -0.104382
C19   C     C_R   0.701164 0.396249 0.471058 0.091130
C20   C     C_R   0.671132 0.505046 0.497604 -0.002781
C21   C     C_R   0.701640 0.619866 0.514945 0.075289
C22   C     C_R   0.761287 0.623129 0.512910 -0.079906
C23   C     C_R   0.495984 0.737451 0.500616 0.841035
C24   C     C_R   0.790873 0.515039 0.492030 0.256509
C25   C     C_R   0.534309 0.111366 0.761351 0.236564
C26   C     C_R   0.516152 0.054658 0.885668 -0.160962
C27   C     C_R   0.480528 0.948961 0.882344 -0.230670
C28   C     C_R   0.468385 0.890328 0.755699 0.637983
C29   C     C_R   0.491296 0.939724 0.629954 -0.061887
C30   C     C_R   0.513860 0.062420 0.631387 -0.040401
C31   C     C_R   0.513359 0.128930 0.503239 -0.225124
C32   C     C_R   0.510137 0.063228 0.376782 0.598677
C33   C     C_R   0.503180 0.935898 0.377565 -0.286417
C34   C     C_R   0.608711 0.500357 0.499713 0.762191
C35   C     C_R   0.493433 0.872492 0.502903 -0.157366
C36   C     C_R   0.573607 0.668367 0.144889 -0.218680
C37   C     C_R   0.607809 0.754173 0.073293 -0.268149
C38   C     C_R   0.607542 0.755000 0.929719 0.609106
C39   C     C_R   0.573425 0.669095 0.856922 -0.191267
C40   C     C_R   0.535988 0.583259 0.925579 0.037304
C41   C     C_R   0.536025 0.583070 0.075186 0.184395
C42   C     C_R   0.466122 0.420270 0.073826 -0.087725
C43   C     C_R   0.466196 0.420012 0.926010 0.683986
C44   C     C_R   0.882150 0.551757 0.604989 0.582448
C45   C     C_R   0.878849 0.491682 0.365613 0.560671
C46   C     C_R   0.939093 0.486056 0.359888 -0.037311
C47   C     C_R   0.970662 0.523083 0.479705 -0.124153
C48   C     C_R   0.941977 0.556858 0.603227 -0.130422
Cu1   Cu    Cu3+1 0.500000 0.499990 0.640660 1.018575
Cu2   Cu    Cu3+1 0.500000 0.500010 0.359340 0.973235
H1    H     H_    0.785001 0.710519 0.525419 0.164605
H2    H     H_    0.529964 0.092286 0.985301 0.224557
H3    H     H_    0.464163 0.909515 0.978672 0.181704
H4    H     H_    0.504620 0.887292 0.278853 0.187635
H5    H     H_    0.438419 0.354810 0.129056 0.183363
H6    H     H_    0.578850 0.673238 0.254577 0.221560
H7    H     H_    0.635256 0.819561 0.130085 0.185176
H8    H     H_    0.578467 0.673731 0.747352 0.208406
H9    H     H_    0.055931 0.623675 0.812597 0.205779
H10   H     H_    0.328835 0.681127 0.407493 0.164637
H11   H     H_    0.224800 0.689465 0.400480 0.157861
H12   H     H_    0.784121 0.319533 0.452515 0.156153
N1    N     N_R   0.852129 0.519841 0.487523 -0.470413
N2    N     N_R   0.149205 0.517847 0.483459 -0.464679
N3    N     N_R   0.500540 0.501210 0.147910 -0.220073
N4    N     N_R   0.500560 0.501290 0.852040 -0.227534
O1    O     O_R   0.500000 0.319640 0.618810 -0.539693
O2    O     O_2   0.846859 0.473858 0.249878 -0.517448
O3    O     O_2   0.150857 0.441413 0.256023 -0.528599
O4    O     O_2   0.151300 0.591145 0.713916 -0.520604
O5    O     O_R   0.500000 0.319660 0.381240 -0.520061
O6    O     O_R   0.417880 0.499950 0.618810 -0.498714
O7    O     O_R   0.417880 0.499980 0.381240 -0.585528
O8    O     O_R   0.500000 0.680340 0.618760 -0.552150
O9    O     O_R   0.500000 0.680360 0.381190 -0.618133
O10   O     O_R   0.582120 0.500020 0.618760 -0.608583
O11   O     O_R   0.582120 0.500050 0.381190 -0.585551
O12   O     O_2   0.853894 0.577583 0.723230 -0.443639
C49   C     C_3   0.937336 0.377021 0.122314 -0.692805
H13   H     H_    0.916326 0.442782 0.051847 0.301648
H14   H     H_    0.965986 0.319663 0.059805 0.206026
H15   H     H_    0.905573 0.309037 0.166247 0.239391
C50   C     C_3   0.672091 0.272544 0.438892 -0.829925
H16   H     H_    0.625145 0.276219 0.432726 0.224383
H17   H     H_    0.687104 0.238744 0.336486 0.255165
H18   H     H_    0.683106 0.204533 0.520340 0.233123
C51   C     C_3   0.672879 0.741581 0.529535 -0.816326
H19   H     H_    0.625750 0.732191 0.528875 0.205377
H20   H     H_    0.686601 0.786867 0.628450 0.298358
H21   H     H_    0.685778 0.803153 0.441544 0.227669
F1    F     F_    0.514415 0.121310 0.251626 -0.681625
C52   C     C_3   0.582049 0.208316 0.772705 -0.725845
H22   H     H_    0.618344 0.169492 0.830268 0.232527
H23   H     H_    0.598347 0.237782 0.669522 0.211948
H24   H     H_    0.567637 0.289994 0.831012 0.236686
F2    F     F_    0.430399 0.792326 0.755966 -0.648434
C53   C     C_3   0.057999 0.459274 0.091119 -0.709028
H25   H     H_    0.078119 0.369056 0.075811 0.254119
H26   H     H_    0.028043 0.474071 0.003787 0.226767
H27   H     H_    0.090205 0.536835 0.082072 0.259045
F3    F     F_    0.641120 0.838996 0.860215 -0.678305
F4    F     F_    0.431974 0.336543 0.857537 -0.666955
F5    F     F_    0.948149 0.628104 0.842026 -0.625571
C54   C     C_3   0.197537 0.291865 0.590769 -0.792479
H28   H     H_    0.206990 0.272059 0.701827 0.244364
H29   H     H_    0.151367 0.308328 0.583293 0.228580
H30   H     H_    0.205464 0.209117 0.526078 0.233484
C55   C     C_3   0.324926 0.281758 0.597123 -0.773584
H31   H     H_    0.349447 0.305462 0.692839 0.297965
H32   H     H_    0.295659 0.202397 0.622595 0.236354
H33   H     H_    0.354611 0.249711 0.515868 0.213568

loop_
_geom_bond_atom_site_label_1
_geom_bond_atom_site_label_2
_ccdc_geom_bond_type
C51   H19   S    
C21   C51   S    
C9    N2    A    
C15   H10   S    
C19   C20   A    
C54   H29   S    
C53   H25   S    
C7    C8    A    
C45   C46   A    
C2    C46   A    
C5    C47   A    
C26   C27   A    
C1    O5    A    
C18   C24   A    
C28   C29   A    
C9    O3    S    
C38   F3    S    
C17   N2    S    
C5    C6    A    
C32   F1    S    
C15   C16   A    
C1    C31   S    
C55   H31   S    
C18   C19   A    
C2    C49   S    
C33   C35   A    
C11   C17   A    
C50   H16   S    
C16   C17   A    
Cu1   O6    S    
C42   N3    A    
C11   C54   S    
C13   C14   A    
C29   C30   A    
C20   C34   S    
C8    F5    S    
C12   O6    A    
C40   N4    A    
C21   C22   A    
C36   C41   A    
C13   C55   S    
C19   C50   S    
C7    H9    S    
C54   H28   S    
C53   H26   S    
C44   N1    A    
C10   N2    A    
Cu1   N4    S    
Cu2   O7    S    
C39   C40   A    
C49   H14   S    
C25   C30   A    
C41   N3    A    
C25   C26   A    
C39   H8    S    
C45   N1    A    
C52   H24   S    
Cu2   O5    S    
C8    C48   A    
C37   C38   A    
C36   H6    S    
C26   H2    S    
C42   H5    S    
C3    C53   S    
C47   C48   A    
C30   C31   A    
C45   O2    S    
C52   H23   S    
Cu1   O10   S    
C10   O4    S    
C40   C41   A    
C50   H17   S    
C12   C14   S    
C24   N1    S    
C23   C35   S    
C51   H20   S    
C22   C24   A    
C16   H11   S    
C23   O8    A    
C3    C4    A    
Cu2   O11   S    
C53   H27   S    
C33   H4    S    
C46   C47   A    
C36   C37   A    
C25   C52   S    
Cu1   O1    S    
C14   C15   A    
C31   C32   A    
C18   H12   S    
C23   O9    A    
C4    C5    A    
C6    C10   A    
C49   H15   S    
C27   H3    S    
C6    C7    A    
C29   C35   A    
C55   H33   S    
C28   F2    S    
C32   C33   A    
C44   O12   S    
C2    C3    A    
C43   F4    S    
C34   O11   A    
Cu2   O9    S    
C11   C13   A    
C38   C39   A    
C43   N4    A    
C52   H22   S    
C1    O1    A    
C55   H32   S    
Cu2   N3    S    
C49   H13   S    
C50   H18   S    
C20   C21   A    
Cu1   Cu2   S    
C42   C43   A    
C51   H21   S    
C27   C28   A    
Cu1   O8    S    
C4    C9    A    
C12   O7    A    
C54   H30   S    
C37   H7    S    
C44   C48   A    
C34   O10   A    
C22   H1    S    
