data_mof_unit_14910.cif
_audit_creation_date              2012-12-10T19:45:40-0500
_audit_creation_method            fapswitch 2.2
_symmetry_space_group_name_H-M    P1
_symmetry_Int_Tables_number       1
_space_group_crystal_system       triclinic
_cell_length_a                    10.886076
_cell_length_b                    14.638489
_cell_length_c                    14.874419
_cell_angle_alpha                 64.071025
_cell_angle_beta                  104.970478
_cell_angle_gamma                 102.455277
_cell_volume                      2044.92118507

loop_
_atom_site_label
_atom_site_type_symbol
_atom_type_description
_atom_site_fract_x
_atom_site_fract_y
_atom_site_fract_z
_atom_type_partial_charge
C1    C     C_R   0.470574 0.121076 0.312308 0.857876
C2    C     C_R   0.521484 0.878374 0.688966 0.827683
C3    C     C_R   0.868170 0.012733 0.478139 -0.228372
C4    C     C_R   0.128171 0.993273 0.511698 -0.190243
C5    C     C_R   0.903887 0.937192 0.457623 -0.016903
C6    C     C_R   0.091376 0.073266 0.524262 -0.033587
C7    C     C_R   0.426866 0.192148 0.206084 -0.068137
C8    C     C_R   0.547645 0.802669 0.797640 -0.088396
C9    C     C_R   0.256050 0.259856 0.060657 0.239055
C10   C     C_R   0.707634 0.740992 0.952602 0.127331
C11   C     C_R   0.295220 0.193367 0.162459 -0.082928
C12   C     C_R   0.640983 0.822208 0.874638 -0.041614
C13   C     C_R   0.513758 0.272499 0.155548 -0.094340
C14   C     C_R   0.494110 0.701364 0.818278 -0.161246
C15   C     C_R   0.476113 0.343840 0.054808 0.085687
C16   C     C_R   0.554973 0.617805 0.896230 0.085541
C17   C     C_R   0.348544 0.329417 0.003817 0.073755
C18   C     C_R   0.671317 0.638906 0.957976 0.010737
C19   C     C_R   0.556020 0.435701 0.007373 0.057320
C20   C     C_R   0.500286 0.513931 0.917921 0.079164
C21   C     C_R   0.392303 0.483397 0.855136 -0.115654
C22   C     C_R   0.688143 0.454302 0.045514 -0.056615
C23   C     C_R   0.263588 0.994873 0.508662 0.905728
C24   C     C_R   0.735513 0.005920 0.489942 0.858328
C25   C     C_R   0.316100 0.389770 0.898474 -0.116050
C26   C     C_R   0.745501 0.556839 0.023032 -0.064883
C27   C     C_R   0.721468 0.277625 0.674936 -0.136615
C28   C     C_R   0.313973 0.727519 0.313445 -0.140203
C29   C     C_R   0.684552 0.198588 0.641157 0.439081
C30   C     C_R   0.325853 0.799682 0.354266 0.409920
C31   C     C_R   0.528150 0.292255 0.506836 0.030370
C32   C     C_R   0.488652 0.717443 0.489562 0.068420
C33   C     C_R   0.576513 0.381112 0.527303 -0.002534
C34   C     C_R   0.484681 0.642504 0.452180 -0.012344
C35   C     C_R   0.667066 0.369740 0.617468 0.011158
C36   C     C_R   0.397333 0.651140 0.360302 0.036971
C37   C     C_R   0.531759 0.478466 0.465066 0.048784
C38   C     C_R   0.558608 0.557145 0.503715 0.027794
C39   C     C_R   0.655805 0.543774 0.592399 0.261881
C40   C     C_R   0.465425 0.502281 0.363682 0.250316
C41   C     C_R   0.703682 0.450761 0.648184 -0.100692
C42   C     C_R   0.398322 0.586237 0.314020 -0.107071
C43   C     C_R   0.303882 0.109892 0.755093 0.020043
C44   C     C_R   0.671535 0.942842 0.213425 -0.029807
C45   C     C_R   0.226707 0.064776 0.689969 -0.142897
C46   C     C_R   0.749164 0.971475 0.291036 -0.142954
C47   C     C_R   0.181040 0.124226 0.587446 0.075856
C48   C     C_R   0.815252 0.900393 0.380396 0.078168
C49   C     C_R   0.211235 0.230362 0.550105 -0.071949
C50   C     C_R   0.802902 0.799691 0.389024 -0.092985
C51   C     C_R   0.280027 0.277079 0.614992 0.178408
C52   C     C_R   0.735432 0.771702 0.309818 0.222749
C53   C     C_R   0.337607 0.217693 0.715371 -0.061151
C54   C     C_R   0.662216 0.840608 0.223766 -0.083973
C55   C     C_R   0.961935 0.087949 0.498440 0.262956
C56   C     C_R   0.033721 0.919695 0.488283 0.261688
Cu1   Cu    Cu3+1 0.466270 0.918260 0.475690 1.034689
Cu2   Cu    Cu3+1 0.533730 0.081740 0.524310 1.057552
H1    H     H_    0.772107 0.443361 0.717274 0.220304
H2    H     H_    0.349241 0.601809 0.236559 0.204053
H3    H     H_    0.547173 0.716847 0.558635 0.225389
H4    H     H_    0.444500 0.291255 0.449528 0.180062
H5    H     H_    0.198106 0.982914 0.719622 0.175992
H6    H     H_    0.760674 0.050675 0.280689 0.168776
H7    H     H_    0.175812 0.277621 0.471392 0.211295
H8    H     H_    0.844969 0.740592 0.456796 0.232720
H9    H     H_    0.404513 0.690766 0.770266 0.166404
H10   H     H_    0.608265 0.281116 0.198998 0.154191
N1    N     N_R   0.584450 0.204570 0.560790 -0.208988
N2    N     N_R   0.415550 0.795430 0.439210 -0.218506
O1    O     O_R   0.455540 0.022090 0.338120 -0.559354
O2    O     O_R   0.544460 0.977910 0.661880 -0.529038
O3    O     O_R   0.512510 0.160150 0.379180 -0.553655
O4    O     O_R   0.487490 0.839850 0.620820 -0.580548
O5    O     O_R   0.291160 0.930970 0.479480 -0.510596
O6    O     O_R   0.708840 0.069030 0.520520 -0.509480
O7    O     O_R   0.348130 0.069020 0.520540 -0.580878
O8    O     O_R   0.651870 0.930980 0.479460 -0.587572
C57   C     C_2   0.435343 0.269471 0.773957 0.353623
H11   H     H_    0.439405 0.350658 0.752657 0.142649
O9    O     O_2   0.517866 0.223786 0.842916 -0.545198
C58   C     C_2   0.573701 0.802666 0.149479 0.337583
H12   H     H_    0.593387 0.738413 0.139774 0.173410
O10   O     O_2   0.473565 0.838723 0.102241 -0.544330
Br1   Br    Br    0.074881 0.276218 0.011709 -0.422370
Br2   Br    Br    0.833502 0.769612 0.059081 -0.478155
C59   C     C_2   0.375397 0.536503 0.743016 0.326950
H13   H     H_    0.281170 0.548171 0.695725 0.126168
O11   O     O_2   0.468747 0.567008 0.702493 -0.528698
C60   C     C_2   0.769798 0.369631 0.088641 0.396911
H14   H     H_    0.853906 0.366565 0.147148 0.151294
O12   O     O_2   0.743764 0.301995 0.057352 -0.461104
Br3   Br    Br    0.209107 0.900976 0.290601 -0.469416
Br4   Br    Br    0.792809 0.089741 0.704753 -0.455506
C61   C     C_2   0.820556 0.262613 0.768535 0.509035
H15   H     H_    0.809894 0.194683 0.837722 0.127362
O13   O     O_2   0.917733 0.322681 0.767252 -0.495372
C62   C     C_2   0.212340 0.732304 0.223236 0.509494
H16   H     H_    0.195693 0.805066 0.159541 0.131264
O14   O     O_2   0.143137 0.655359 0.221213 -0.433294
Br5   Br    Br    0.754330 0.646219 0.640207 -0.505701
Br6   Br    Br    0.486172 0.441842 0.276878 -0.479044
C63   C     C_2   0.335191 0.044475 0.865614 0.550247
H17   H     H_    0.370382 0.077997 0.920902 0.124107
O15   O     O_2   0.317834 0.951295 0.896968 -0.496582
C64   C     C_2   0.610277 0.022826 0.119004 0.485957
H18   H     H_    0.582834 0.012879 0.048140 0.134012
O16   O     O_2   0.591266 0.102024 0.118822 -0.520521
Br7   Br    Br    0.275150 0.421089 0.566067 -0.512746
Br8   Br    Br    0.754816 0.639224 0.322106 -0.383405
Br9   Br    Br    0.916168 0.218976 0.475017 -0.390676
Br10  Br    Br    0.080350 0.785163 0.525811 -0.433802
C65   C     C_2   0.214573 0.349251 0.831813 0.479927
H19   H     H_    0.162273 0.400458 0.761466 0.133380
O17   O     O_2   0.190699 0.257333 0.853927 -0.501745
C66   C     C_2   0.885992 0.578768 0.053310 0.492976
H20   H     H_    0.939663 0.639930 0.999167 0.109218
O18   O     O_2   0.941721 0.532652 0.139642 -0.451031
C67   C     C_2   0.658930 0.922497 0.881286 0.468038
H21   H     H_    0.748829 0.949682 0.918956 0.121544
O19   O     O_2   0.571313 0.975197 0.847474 -0.520921
C68   C     C_2   0.196606 0.140073 0.226360 0.459451
H22   H     H_    0.109656 0.099667 0.199364 0.140731
O20   O     O_2   0.207178 0.148049 0.306249 -0.557152

loop_
_geom_bond_atom_site_label_1
_geom_bond_atom_site_label_2
_ccdc_geom_bond_type
C7    C13   A    
C59   H13   S    
C21   C59   S    
C27   C29   A    
C5    C56   A    
C27   C61   S    
C61   H15   S    
C18   C26   A    
C6    C55   A    
Cu1   Cu2   S    
Cu2   O6    S    
C39   C41   A    
C15   C19   A    
C1    O1    A    
C49   H7    S    
C53   C57   S    
C32   H3    S    
C37   C40   A    
C29   Br4   S    
C64   H18   S    
C28   C62   S    
C66   H20   S    
C45   C47   A    
C50   H8    S    
Cu2   O7    S    
C9    Br1   S    
C3    C55   A    
C43   C53   A    
C19   C20   A    
C44   C46   A    
C49   C51   A    
C50   C52   A    
C14   H9    S    
C31   C33   A    
Cu1   N2    S    
C2    O4    A    
C8    C12   A    
C40   C42   A    
C51   Br7   S    
C1    C7    S    
C4    C56   A    
C31   H4    S    
C3    C24   S    
C2    O2    A    
C30   N2    A    
C52   C54   A    
C39   Br5   S    
C29   N1    A    
C67   O19   D    
C5    C48   S    
C46   C48   A    
C6    C47   S    
C19   C22   A    
C41   H1    S    
C47   C49   A    
C42   H2    S    
C57   O9    D    
C4    C23   S    
C24   O6    A    
C32   N2    A    
C27   C35   A    
C45   H5    S    
C23   O7    A    
C46   H6    S    
C51   C53   A    
C32   C34   A    
Cu1   O4    S    
C7    C11   A    
C37   C38   A    
C25   C65   S    
C12   C67   S    
C9    C11   A    
C60   O12   D    
C52   Br8   S    
C16   C20   A    
C22   C60   S    
C63   O15   D    
Cu1   O1    S    
C43   C45   A    
C10   C12   A    
C24   O8    A    
C58   H12   S    
C62   O14   D    
C13   C15   A    
C14   C16   A    
C4    C6    A    
C68   O20   D    
C54   C58   S    
C33   C37   A    
C65   H19   S    
C9    C17   A    
C15   C17   A    
C21   C25   A    
C10   Br2   S    
C8    C14   A    
C55   Br9   S    
C34   C38   A    
Cu1   O8    S    
C2    C8    S    
C23   O5    A    
C3    C5    A    
C43   C63   S    
C36   C42   A    
C67   H21   S    
C61   O13   D    
Cu2   N1    S    
C44   C64   S    
C30   Br3   S    
C58   O10   D    
C1    O3    A    
Cu1   O5    S    
C28   C30   A    
C17   C25   A    
Cu2   O2    S    
C60   H14   S    
C38   C39   A    
C64   O16   D    
C10   C18   A    
C48   C50   A    
C33   C35   A    
C66   O18   D    
C34   C36   A    
C35   C41   A    
C26   C66   S    
C40   Br6   S    
C57   H11   S    
C11   C68   S    
C44   C54   A    
C31   N1    A    
C20   C21   A    
C28   C36   A    
C16   C18   A    
C62   H16   S    
C22   C26   A    
C63   H17   S    
C59   O11   D    
C68   H22   S    
C56   Br10  S    
Cu2   O3    S    
C65   O17   D    
C13   H10   S    
