data_mof_unit_44893.cif
_audit_creation_date              2012-12-11T15:41:18-0500
_audit_creation_method            fapswitch 2.2
_symmetry_space_group_name_H-M    P1
_symmetry_Int_Tables_number       1
_space_group_crystal_system       triclinic
_cell_length_a                    19.101876
_cell_length_b                    10.976016
_cell_length_c                    18.794811
_cell_angle_alpha                 90.220568
_cell_angle_beta                  90.766732
_cell_angle_gamma                 90.221139
_cell_volume                      3940.15483021

loop_
_atom_site_label
_atom_site_type_symbol
_atom_type_description
_atom_site_fract_x
_atom_site_fract_y
_atom_site_fract_z
_atom_type_partial_charge
C1    C     C_R   0.708313 0.003575 0.860936 0.554341
C2    C     C_R   0.294704 0.492681 0.042831 0.011664
C3    C     C_R   0.761621 0.862280 0.353945 0.548474
C4    C     C_2   0.482661 0.167656 0.906293 -0.078705
C5    C     C_2   0.517624 0.167468 0.093953 -0.080008
C6    C     C_2   0.977414 0.659722 0.903947 -0.094584
C7    C     C_2   0.005021 0.674429 0.083880 -0.075162
C8    C     C_2   0.481949 0.163672 0.033232 -0.131932
C9    C     C_2   0.518405 0.163704 0.966947 -0.131845
C10   C     C_2   0.960847 0.682550 0.028745 -0.149647
C11   C     C_2   0.985468 0.727732 0.961534 -0.177648
C12   C     C_R   0.782261 0.487973 0.061862 -0.014656
C13   C     C_R   0.209008 0.000029 0.955747 0.015550
C14   C     C_R   0.217610 0.491036 0.938643 -0.012267
C15   C     C_R   0.283968 0.991556 0.061358 -0.017284
C16   C     C_R   0.716832 0.991184 0.938814 -0.016043
C17   C     C_1   0.904890 0.410574 0.046862 0.249625
C18   C     C_1   0.093798 0.420114 0.954681 0.255680
C19   C     C_1   0.405252 0.907359 0.047226 0.254943
C20   C     C_1   0.595017 0.907642 0.952775 0.254331
C21   C     C_1   0.581750 0.538164 0.934381 0.251846
C22   C     C_1   0.419888 0.534323 0.064525 0.251727
C23   C     C_1   0.085050 0.045996 0.932060 0.237924
C24   C     C_R   0.791847 0.000025 0.044564 0.009742
C25   C     C_1   0.915103 0.053096 0.069678 0.243453
C26   C     C_R   0.824539 0.422332 0.946142 -0.162682
C27   C     C_R   0.175213 0.427642 0.054888 -0.155706
C28   C     C_R   0.326066 0.923679 0.945686 -0.157879
C29   C     C_R   0.674772 0.921934 0.054040 -0.157229
C30   C     C_R   0.837105 0.444459 0.018431 -0.067415
C31   C     C_R   0.162155 0.451875 0.982775 -0.057437
C32   C     C_R   0.338571 0.945959 0.018171 -0.065474
C33   C     C_R   0.291979 0.003572 0.139312 0.554708
C34   C     C_R   0.662162 0.945107 0.981812 -0.064460
C35   C     C_3   0.645528 0.492098 0.048368 -0.243072
C36   C     C_3   0.354610 0.489291 0.950963 -0.243081
C37   C     C_3   0.147826 0.000782 0.046705 -0.245351
C38   C     C_3   0.853493 0.006025 0.953971 -0.241958
C39   C     C_3   0.632083 0.458192 0.970863 -0.127307
C40   C     C_3   0.368235 0.455362 0.028294 -0.127431
C41   C     C_3   0.134950 0.966156 0.969351 -0.135418
C42   C     C_3   0.866704 0.971214 0.031213 -0.130922
C43   C     C_R   0.756854 0.434530 0.916670 -0.003915
C44   C     C_R   0.208400 0.503567 0.860921 0.555491
C45   C     C_R   0.243528 0.435591 0.083591 -0.007518
C46   C     C_R   0.258580 0.937643 0.915812 -0.008060
C47   C     C_R   0.742284 0.936243 0.083981 -0.008327
C48   C     C_R   0.449768 0.173042 0.436888 0.010599
C49   C     C_R   0.491656 0.170010 0.579026 0.028419
C50   C     C_R   0.949764 0.673042 0.436890 0.009908
C51   C     C_R   0.991652 0.670009 0.579029 0.028181
C52   C     C_R   0.471114 0.278378 0.470835 0.012120
C53   C     C_R   0.494243 0.274897 0.538727 0.067682
C54   C     C_R   0.971106 0.778379 0.470838 0.011924
C55   C     C_R   0.791515 0.502608 0.139244 0.551442
C56   C     C_R   0.994236 0.774896 0.538730 0.067479
C57   C     C_R   0.461618 0.064379 0.549135 -0.165103
C58   C     C_R   0.442556 0.065131 0.476610 -0.157291
C59   C     C_R   0.961617 0.564376 0.549136 -0.164873
C60   C     C_R   0.942555 0.565129 0.476611 -0.157322
C61   C     C_R   0.522944 0.177197 0.842960 0.543305
C62   C     C_R   0.477250 0.177277 0.157247 0.550061
C63   C     C_R   0.025113 0.676621 0.845603 0.546318
C64   C     C_R   0.973740 0.677911 0.153003 0.548207
C65   C     C_3   0.526906 0.366262 0.450235 -0.241606
C66   C     C_R   0.719219 0.521711 0.028192 -0.008982
C67   C     C_3   0.553580 0.360145 0.525785 -0.240540
C68   C     C_3   0.026895 0.866272 0.450240 -0.241507
C69   C     C_3   0.053571 0.860151 0.525789 -0.240820
C70   C     C_R   0.757830 0.436757 0.428502 0.018461
C71   C     C_R   0.242089 0.419948 0.574928 0.020312
C72   C     C_R   0.257831 0.936758 0.428503 0.018560
C73   C     C_R   0.742086 0.919957 0.574925 0.020248
C74   C     C_R   0.809372 0.375623 0.466124 -0.017340
C75   C     C_R   0.184624 0.394432 0.530445 0.026840
C76   C     C_R   0.309373 0.875625 0.466126 -0.017347
C77   C     C_R   0.281620 0.521438 0.971946 -0.008441
C78   C     C_R   0.684621 0.894447 0.530441 0.026810
C79   C     C_R   0.809158 0.367331 0.538458 0.006493
C80   C     C_R   0.190780 0.389343 0.458037 0.061243
C81   C     C_R   0.309159 0.867332 0.538460 0.006456
C82   C     C_R   0.690778 0.889357 0.458033 0.061368
C83   C     C_R   0.706585 0.492252 0.543050 -0.143491
C84   C     C_R   0.314598 0.426431 0.470207 -0.153149
C85   C     C_R   0.206585 0.992251 0.543050 -0.143621
C86   C     C_R   0.814596 0.926440 0.470205 -0.153245
C87   C     C_R   0.707429 0.503173 0.468471 0.058114
C88   C     C_R   0.221865 0.028256 0.027028 -0.008065
C89   C     C_R   0.308590 0.433104 0.544681 0.030324
C90   C     C_R   0.207429 0.003172 0.468472 0.058062
C91   C     C_R   0.808588 0.933113 0.544678 0.030406
C92   C     C_3   0.838832 0.252156 0.454967 -0.275593
C93   C     C_3   0.116519 0.460309 0.524540 -0.248522
C94   C     C_3   0.338834 0.752158 0.454968 -0.275593
C95   C     C_3   0.616518 0.960332 0.524535 -0.248397
C96   C     C_3   0.838537 0.241524 0.535076 -0.238255
C97   C     C_3   0.124007 0.455670 0.444704 -0.268202
C98   C     C_3   0.338538 0.741525 0.535078 -0.238155
C99   C     C_R   0.778933 0.028734 0.973542 -0.011514
C100  C     C_3   0.624007 0.955691 0.444699 -0.268482
C101  C     C_R   0.754261 0.415272 0.577774 -0.004870
C102  C     C_R   0.254700 0.406780 0.426273 -0.013896
C103  C     C_R   0.254261 0.915273 0.577774 -0.004969
C104  C     C_R   0.754699 0.906789 0.426270 -0.013947
C105  C     C_R   0.739052 0.365683 0.852122 0.534053
C106  C     C_R   0.261030 0.365761 0.147799 0.534111
C107  C     C_R   0.239466 0.866622 0.851876 0.533641
C108  C     C_R   0.760814 0.866102 0.147936 0.533083
C109  C     C_R   0.726914 0.956283 0.647159 0.569941
C110  C     C_R   0.706242 0.493442 0.957116 0.011795
C111  C     C_R   0.272959 0.959405 0.353946 0.555380
C112  C     C_R   0.226915 0.456280 0.647161 0.569141
C113  C     C_R   0.772959 0.459403 0.353945 0.554768
C114  C     C_R   0.528462 0.175827 0.645890 0.540626
C115  C     C_R   0.435946 0.180429 0.361858 0.558233
C116  C     C_R   0.028456 0.675827 0.645896 0.542980
C117  C     C_R   0.935945 0.680430 0.361858 0.559135
C118  C     C_R   0.739745 0.362842 0.646887 0.538096
C119  C     C_R   0.261622 0.362277 0.353947 0.548787
C120  C     C_R   0.239745 0.862842 0.646887 0.537505
Cr1   Cr    Cr6+3 0.769260 0.163750 0.750730 1.050838
Cr2   Cr    Cr6+3 0.385810 0.322400 0.252290 1.028645
Cr3   Cr    Cr6+3 0.114190 0.822400 0.747710 1.047821
Cr4   Cr    Cr6+3 0.885810 0.822400 0.252290 1.028844
Cr5   Cr    Cr6+3 0.230740 0.163750 0.249270 1.057194
Cr6   Cr    Cr6+3 0.269260 0.663750 0.750730 1.051306
Cr7   Cr    Cr6+3 0.730740 0.663750 0.249270 1.056273
Cr8   Cr    Cr6+3 0.612640 0.009910 0.748780 1.044371
Cr9   Cr    Cr6+3 0.387360 0.009910 0.251220 1.040143
Cr10  Cr    Cr6+3 0.112640 0.509910 0.748780 1.044684
Cr11  Cr    Cr6+3 0.887360 0.509910 0.251220 1.043335
Cr12  Cr    Cr6+3 0.614190 0.322400 0.747710 1.046424
H1    H     H_    0.424951 0.162931 0.032847 0.113688
H2    H     H_    0.548573 0.447704 0.555015 0.190199
H3    H     H_    0.064589 0.828389 0.411369 0.172235
H4    H     H_    0.048564 0.947707 0.555021 0.190104
H5    H     H_    0.665256 0.535311 0.572800 0.152170
H6    H     H_    0.365652 0.436667 0.446874 0.156347
H7    H     H_    0.165255 0.035308 0.572800 0.152094
H8    H     H_    0.865650 0.936675 0.446872 0.156246
H9    H     H_    0.892418 0.254928 0.432679 0.159349
H10   H     H_    0.119857 0.554511 0.546193 0.134559
H11   H     H_    0.392421 0.754931 0.432682 0.159259
H12   H     H_    0.575408 0.162930 0.967290 0.113612
H13   H     H_    0.619861 0.054533 0.546188 0.134710
H14   H     H_    0.801348 0.189265 0.427625 0.142128
H15   H     H_    0.072710 0.403378 0.544191 0.161841
H16   H     H_    0.301351 0.689266 0.427627 0.142243
H17   H     H_    0.572708 0.903405 0.544186 0.161922
H18   H     H_    0.800321 0.173036 0.553858 0.180258
H19   H     H_    0.083638 0.397813 0.417917 0.179302
H20   H     H_    0.300324 0.673035 0.553859 0.180401
H21   H     H_    0.583636 0.897837 0.417912 0.179129
H22   H     H_    0.891934 0.237581 0.559142 0.172336
H23   H     H_    0.905170 0.665340 0.034572 0.119520
H24   H     H_    0.132100 0.546830 0.420398 0.127955
H25   H     H_    0.391935 0.737583 0.559145 0.172435
H26   H     H_    0.632103 0.046850 0.420392 0.127474
H27   H     H_    0.574480 0.171331 0.096368 0.082827
H28   H     H_    0.425832 0.171870 0.903997 0.084219
H29   H     H_    0.060138 0.697155 0.078490 0.087910
H30   H     H_    0.947173 0.575785 0.906180 0.129328
H31   H     H_    0.866050 0.382273 0.915027 0.157481
H32   H     H_    0.133362 0.389262 0.086307 0.162571
H33   H     H_    0.367124 0.881384 0.914957 0.164654
H34   H     H_    0.019264 0.806589 0.961760 0.145733
H35   H     H_    0.633604 0.879237 0.084502 0.164253
H36   H     H_    0.119916 0.084072 0.064586 0.170870
H37   H     H_    0.880192 0.091177 0.936969 0.169864
H38   H     H_    0.617146 0.574426 0.066939 0.172987
H39   H     H_    0.384102 0.570526 0.932338 0.173581
H40   H     H_    0.642224 0.412581 0.084701 0.140131
H41   H     H_    0.356313 0.409475 0.914388 0.142499
H42   H     H_    0.143425 0.921815 0.083313 0.140383
H43   H     H_    0.859177 0.927839 0.916702 0.153485
H44   H     H_    0.621694 0.359837 0.961936 0.116754
H45   H     H_    0.003267 0.955329 0.435920 0.182030
H46   H     H_    0.377359 0.356818 0.036888 0.115635
H47   H     H_    0.126132 0.867413 0.960422 0.109254
H48   H     H_    0.878423 0.873774 0.039264 0.128115
H49   H     H_    0.458744 0.980650 0.579233 0.130323
H50   H     H_    0.427588 0.981227 0.450603 0.148668
H51   H     H_    0.958746 0.480646 0.579233 0.130285
H52   H     H_    0.927589 0.481224 0.450603 0.148542
H53   H     H_    0.105126 0.814055 0.530884 0.132072
H54   H     H_    0.503281 0.455319 0.435911 0.182085
H55   H     H_    0.605134 0.314046 0.530882 0.132135
H56   H     H_    0.564598 0.328372 0.411365 0.171775
I1    I     I_    0.625926 0.611356 0.424215 -0.432851
I2    I     I_    0.398096 0.475449 0.609329 -0.409839
I3    I     I_    0.125924 0.111348 0.424215 -0.432332
I4    I     I_    0.898093 0.975458 0.609326 -0.407630
N1    N     N_1   0.959132 0.383184 0.069641 -0.241849
N2    N     N_1   0.039294 0.392655 0.932203 -0.261724
N3    N     N_1   0.458547 0.875754 0.070455 -0.243175
N4    N     N_1   0.541325 0.877049 0.929559 -0.243027
N5    N     N_1   0.541862 0.600358 0.905434 -0.263394
N6    N     N_1   0.460766 0.595844 0.093225 -0.268084
N7    N     N_1   0.045574 0.108319 0.902606 -0.263173
N8    N     N_1   0.953600 0.116407 0.100358 -0.263537
O1    O     O_R   0.784290 0.290360 0.830540 -0.524233
O2    O     O_R   0.456020 0.282110 0.333230 -0.521038
O3    O     O_R   0.043980 0.782110 0.666770 -0.492603
O4    O     O_R   0.956020 0.782110 0.333230 -0.518847
O5    O     O_R   0.679070 0.374030 0.674430 -0.506516
O6    O     O_R   0.320930 0.374030 0.325570 -0.526309
O7    O     O_R   0.179070 0.874030 0.674430 -0.506880
O8    O     O_R   0.820930 0.874030 0.325570 -0.526285
O9    O     O_3   0.665360 0.165350 0.749070 -0.289347
O10   O     O_3   0.334640 0.165350 0.250930 -0.306283
O11   O     O_3   0.165360 0.665350 0.749070 -0.288703
O12   O     O_R   0.215710 0.290360 0.169460 -0.522122
O13   O     O_3   0.834640 0.665350 0.250930 -0.306310
O14   O     O_R   0.762610 0.041070 0.825230 -0.488693
O15   O     O_R   0.237390 0.041070 0.174770 -0.494432
O16   O     O_R   0.262610 0.541070 0.825230 -0.489737
O17   O     O_R   0.737390 0.541070 0.174770 -0.494572
O18   O     O_R   0.667390 0.924160 0.829970 -0.488016
O19   O     O_R   0.332610 0.924160 0.170030 -0.490258
O20   O     O_R   0.167390 0.424160 0.829970 -0.488137
O21   O     O_R   0.832610 0.424160 0.170030 -0.489405
O22   O     O_R   0.553980 0.081420 0.821780 -0.499385
O23   O     O_R   0.284290 0.790360 0.830540 -0.522788
O24   O     O_R   0.446020 0.081420 0.178220 -0.494385
O25   O     O_R   0.053980 0.581420 0.821780 -0.502455
O26   O     O_R   0.946020 0.581420 0.178220 -0.490085
O27   O     O_R   0.543210 0.283170 0.826740 -0.503333
O28   O     O_R   0.456790 0.283170 0.173260 -0.505156
O29   O     O_R   0.043210 0.783170 0.826740 -0.502132
O30   O     O_R   0.956790 0.783170 0.173260 -0.505724
O31   O     O_R   0.678350 0.375000 0.822720 -0.493457
O32   O     O_R   0.321650 0.375000 0.177280 -0.494019
O33   O     O_R   0.178350 0.875000 0.822720 -0.493583
O34   O     O_R   0.715710 0.790360 0.169460 -0.522555
O35   O     O_R   0.821650 0.875000 0.177280 -0.495636
O36   O     O_R   0.785060 0.289300 0.670580 -0.507038
O37   O     O_R   0.214940 0.289300 0.329420 -0.470342
O38   O     O_R   0.285060 0.789300 0.670580 -0.507115
O39   O     O_R   0.714940 0.789300 0.329420 -0.470522
O40   O     O_R   0.763330 0.040090 0.676940 -0.472352
O41   O     O_R   0.236670 0.040090 0.323060 -0.462217
O42   O     O_R   0.263330 0.540090 0.676940 -0.472703
O43   O     O_R   0.736670 0.540090 0.323060 -0.462366
O44   O     O_R   0.668160 0.923110 0.670000 -0.511436
O45   O     O_R   0.554690 0.080440 0.673480 -0.521971
O46   O     O_R   0.331840 0.923110 0.330000 -0.525271
O47   O     O_R   0.168160 0.423110 0.670000 -0.511701
O48   O     O_R   0.831840 0.423110 0.330000 -0.525321
O49   O     O_R   0.445310 0.080440 0.326520 -0.510566
O50   O     O_R   0.054690 0.580440 0.673480 -0.521220
O51   O     O_R   0.945310 0.580440 0.326520 -0.508159
O52   O     O_R   0.543980 0.282110 0.666770 -0.494068

loop_
_geom_bond_atom_site_label_1
_geom_bond_atom_site_label_2
_ccdc_geom_bond_type
C100  H21   S    
C60   H52   S    
C7    C10   D    
C83   C87   A    
Cr3   O3    S    
Cr12  O31   S    
C19   N3    T    
C17   C30   S    
C93   C97   S    
C80   C97   S    
Cr11  O13   S    
C50   C117  S    
C84   C102  A    
Cr2   O6    S    
C37   C88   S    
C17   N1    T    
C103  C120  S    
C95   H13   S    
C14   C31   A    
C72   C76   A    
C86   C104  A    
C64   O26   A    
C117  O51   A    
C112  O47   A    
C49   C57   A    
C15   C32   A    
C55   O17   A    
C98   H20   S    
C45   C106  S    
C15   C33   S    
Cr7   O39   S    
C7    H29   S    
C28   C46   A    
C61   O27   A    
C116  O50   A    
Cr4   O4    S    
C94   H11   S    
C105  O31   A    
C38   C42   S    
Cr10  O20   S    
Cr6   O11   S    
C111  O46   A    
C13   C46   A    
Cr8   O9    S    
C38   C99   S    
C97   H24   S    
C114  O45   A    
C18   N2    T    
C81   C98   S    
C94   C98   S    
C24   C99   A    
C115  O2    A    
C23   N7    T    
C68   H45   S    
C92   C96   S    
C24   C42   S    
C51   C56   A    
C43   C105  S    
C14   C77   A    
C74   C92   S    
Cr9   O46   S    
C61   O22   A    
C16   C34   A    
C37   H42   S    
Cr3   O33   S    
Cr4   O35   S    
Cr5   O12   S    
C39   C110  S    
C96   H22   S    
C6    H30   S    
Cr10  O25   S    
C42   H48   S    
C8    C9    S    
C113  O43   A    
Cr3   O11   S    
C70   C74   A    
C11   H34   S    
C89   I2    S    
Cr2   O10   S    
C2    C40   S    
Cr5   O41   S    
C1    O18   A    
C95   H17   S    
C43   C110  A    
C62   O24   A    
C117  O4    A    
C75   C80   A    
C85   H7    S    
C85   C103  A    
C86   H8    S    
C55   O21   A    
C20   C34   S    
C27   C45   A    
Cr10  O50   S    
C49   C114  S    
C107  O33   A    
C72   C111  S    
C22   C40   S    
C36   H41   S    
C2    C45   A    
Cr8   O45   S    
Cr5   O15   S    
Cr4   O8    S    
C94   H16   S    
C35   H40   S    
C24   C47   A    
Cr10  O11   S    
C111  O41   A    
Cr9   O24   S    
C70   C87   A    
C57   H49   S    
C9    H12   S    
C67   H55   S    
C26   C43   A    
C37   H36   S    
C107  O23   A    
Cr4   O13   S    
C33   O19   A    
C70   C113  S    
C33   O15   A    
C7    C64   S    
C108  O34   A    
C71   C75   A    
C92   H14   S    
C73   C109  S    
C12   C55   S    
C90   I3    S    
C28   C32   A    
C67   H2    S    
Cr7   O43   S    
C73   C91   A    
C63   O25   A    
Cr11  O48   S    
Cr12  O27   S    
Cr8   O22   S    
C6    C11   D    
C1    C16   S    
C95   C100  S    
C68   C69   S    
Cr7   O13   S    
C35   C66   S    
C65   C67   S    
C27   C31   A    
C4    C61   S    
C80   C102  A    
C78   C95   S    
C6    C63   S    
C76   C81   A    
C48   C58   A    
C35   C39   S    
C57   C58   A    
Cr6   O42   S    
C118  O36   A    
C27   H32   S    
C72   C90   A    
C78   C82   A    
C105  O1    A    
Cr3   O29   S    
C98   H25   S    
C36   C40   S    
C63   O29   A    
C73   C78   A    
Cr1   O36   S    
C114  O52   A    
C71   C112  S    
C118  O5    A    
C58   H50   S    
C97   H19   S    
C10   H23   S    
Cr3   O7    S    
Cr11  O21   S    
C119  O6    A    
C50   C54   A    
C66   C110  A    
C59   H51   S    
C92   H9    S    
Cr7   O17   S    
Cr6   O16   S    
C28   H33   S    
C48   C115  S    
C40   H46   S    
Cr5   O10   S    
Cr12  O5    S    
C29   C47   A    
C101  C118  S    
C56   C69   S    
C69   H4    S    
Cr1   O9    S    
C74   C79   A    
C46   C107  S    
Cr8   O44   S    
Cr10  O47   S    
C51   C59   A    
C84   C89   A    
C3    O8    A    
Cr6   O38   S    
Cr9   O49   S    
C69   H53   S    
C83   H5    S    
C116  O3    A    
Cr5   O37   S    
C52   C53   A    
Cr12  O52   S    
C38   H37   S    
C14   C44   S    
C81   C103  A    
C109  O40   A    
C19   C32   S    
C47   C108  S    
C65   H54   S    
Cr7   O34   S    
C82   C104  A    
C83   C101  A    
C12   C30   A    
C8    H1    S    
Cr6   O23   S    
C120  O7    A    
C82   C100  S    
C21   C39   S    
C41   H47   S    
C68   H3    S    
C119  O37   A    
Cr12  O9    S    
C21   N5    T    
C39   H44   S    
Cr11  O51   S    
C23   C41   S    
C25   C42   S    
C5    C8    D    
C85   C90   A    
C71   C89   A    
C16   C99   A    
C26   C30   A    
C13   C41   S    
C115  O49   A    
C76   C94   S    
Cr1   O40   S    
Cr2   O32   S    
C91   I4    S    
C51   C116  S    
C109  O44   A    
C87   I1    S    
C36   C77   S    
C50   C60   A    
Cr1   O14   S    
C29   H35   S    
Cr9   O10   S    
Cr1   O1    S    
C79   C96   S    
Cr9   O19   S    
C25   N8    T    
C65   H56   S    
C26   H31   S    
C64   O30   A    
C36   H39   S    
Cr11  O26   S    
Cr2   O2    S    
C38   H43   S    
C4    H28   S    
C12   C66   A    
C75   C93   S    
C62   O28   A    
C96   H18   S    
C29   C34   A    
C13   C88   A    
C112  O42   A    
C106  O32   A    
C5    C62   S    
C93   H15   S    
C113  O48   A    
C54   C56   A    
C37   C41   S    
Cr2   O28   S    
C53   C67   S    
C44   O20   A    
C108  O35   A    
C49   C53   A    
C10   C11   S    
C102  C119  S    
C84   H6    S    
C3    C104  S    
C93   H10   S    
C100  H26   S    
C59   C60   A    
C54   C68   S    
Cr8   O18   S    
C5    H27   S    
C86   C91   A    
C3    O39   A    
C1    O14   A    
C2    C77   A    
C35   H38   S    
C22   N6    T    
C79   C101  A    
C18   C31   S    
C4    C9    D    
C48   C52   A    
C106  O12   A    
C44   O16   A    
C20   N4    T    
Cr4   O30   S    
C52   C65   S    
C120  O38   A    
C15   C88   A    
