data_mof_unit_68185.cif
_audit_creation_date              2013-03-05T16:02:50-0500
_audit_creation_method            fapswitch 2.2
_symmetry_space_group_name_H-M    P1
_symmetry_Int_Tables_number       1
_space_group_crystal_system       triclinic
_cell_length_a                    7.224236
_cell_length_b                    14.526285
_cell_length_c                    16.998131
_cell_angle_alpha                 90.05522
_cell_angle_beta                  91.127496
_cell_angle_gamma                 90.074495
_cell_volume                      1783.45839878

loop_
_atom_site_label
_atom_site_type_symbol
_atom_site_description
_atom_site_fract_x
_atom_site_fract_y
_atom_site_fract_z
_atom_type_partial_charge
O1    O     O_R   0.611670 0.415650 0.164070 -0.621635
O2    O     O_R   0.388330 0.915650 0.835930 -0.618760
O3    O     O_R   0.940950 0.405490 0.337780 -0.485764
O4    O     O_R   0.059050 0.905490 0.662220 -0.592805
O5    O     O_R   0.111350 0.584350 0.338470 -0.601858
O6    O     O_R   0.888650 0.084350 0.661530 -0.624566
C1    C     C_R   0.771330 0.382380 0.365624 0.933646
C2    C     C_R   0.228391 0.881511 0.635098 0.868476
O7    O     O_R   0.941380 0.404630 0.164680 -0.594015
O8    O     O_R   0.058620 0.904630 0.835320 -0.586498
O9    O     O_R   0.111780 0.583470 0.164130 -0.646397
O10   O     O_R   0.888220 0.083470 0.835870 -0.635015
C3    C     C_R   0.768963 0.379065 0.140613 0.933747
C4    C     C_R   0.231131 0.878661 0.858990 0.952288
O11   O     O_R   0.611240 0.416530 0.338400 -0.539112
O12   O     O_R   0.388760 0.916530 0.661600 -0.505574
O13   O     O_3   0.778020 0.558680 0.251290 -0.246891
O14   O     O_3   0.221980 0.058680 0.748710 -0.233794
V1    V     V_3+5 0.052840 0.489110 0.251260 1.278363
V2    V     V_3+5 0.947160 0.989110 0.748740 1.230580
O15   O     O_R   0.441500 0.594510 0.164760 -0.557591
O16   O     O_R   0.558500 0.094510 0.835240 -0.561407
C5    C     C_R   0.269942 0.617629 0.135839 0.907387
C6    C     C_R   0.730083 0.116788 0.864657 0.897508
O17   O     O_R   0.441080 0.595370 0.337860 -0.510962
O18   O     O_R   0.558920 0.095370 0.662140 -0.503181
C7    C     C_R   0.275810 0.616727 0.367242 0.976506
C8    C     C_R   0.724535 0.117043 0.633138 0.915774
V3    V     V_3+5 0.552850 0.510890 0.251270 1.305529
V4    V     V_3+5 0.447150 0.010890 0.748730 1.299339
O19   O     O_3   0.277800 0.441320 0.251250 -0.229087
O20   O     O_3   0.722200 0.941320 0.748750 -0.229412
C9    C     C_3   0.171533 0.645119 0.507066 -0.407593
C10   C     C_3   0.833556 0.148072 0.494697 -0.425079
H1    H     H_    0.037710 0.619879 0.483031 0.194290
H2    H     H_    0.969858 0.126142 0.518327 0.164084
H3    H     H_    0.237580 0.580219 0.523988 0.220737
H4    H     H_    0.771310 0.081479 0.478913 0.225663
C11   C     C_3   0.151378 0.709938 0.580855 -0.201496
C12   C     C_3   0.847491 0.212836 0.420319 -0.228430
C13   C     C_3   0.180310 0.785310 0.412402 -0.234625
C14   C     C_3   0.815782 0.287380 0.590322 -0.312619
C15   C     C_3   0.471106 0.710266 0.476492 -0.280957
C16   C     C_3   0.531151 0.210406 0.524699 -0.323951
C17   C     C_3   0.274795 0.688920 0.438158 -0.180250
C18   C     C_3   0.726438 0.190202 0.563356 -0.103104
H5    H     H_    0.551756 0.737637 0.428081 0.235760
H6    H     H_    0.451206 0.237081 0.573388 0.223895
C19   C     C_3   0.247178 0.809995 0.564463 -0.290983
C20   C     C_3   0.752004 0.311709 0.437082 -0.216945
C21   C     C_3   0.176846 0.855141 0.483681 -0.210044
C22   C     C_3   0.823422 0.356508 0.518423 -0.122948
C23   C     C_3   0.461661 0.786841 0.546754 -0.177704
C24   C     C_3   0.538941 0.287826 0.455259 -0.303713
H7    H     H_    0.280566 0.907332 0.470972 0.125519
H8    H     H_    0.723374 0.410795 0.530609 0.037237
C25   C     C_R   0.055002 0.916836 0.999537 -0.238052
C26   C     C_R   0.954234 0.414464 0.001034 -0.244986
C27   C     C_R   0.922108 0.935415 0.053697 -0.062554
C28   C     C_R   0.088396 0.431396 0.946814 -0.060956
C29   C     C_R   0.849013 0.862063 0.095314 -0.143574
C30   C     C_R   0.155991 0.357541 0.904234 -0.161300
C31   C     C_R   0.960032 0.781979 0.104367 -0.241690
C32   C     C_R   0.039203 0.279571 0.894654 -0.243601
C33   C     C_R   0.115832 0.763363 0.055053 0.111486
C34   C     C_R   0.885890 0.261728 0.945278 0.079936
C35   C     C_R   0.136103 0.829041 0.993021 0.169768
C36   C     C_R   0.868027 0.327642 0.007368 0.169818
C37   C     C_R   0.254013 0.688117 0.064825 -0.262936
C38   C     C_R   0.746621 0.187052 0.935679 -0.280769
C39   C     C_R   0.383742 0.679137 0.001607 0.136317
C40   C     C_R   0.618139 0.177896 0.999062 0.147957
C41   C     C_R   0.381282 0.740930 0.934943 0.184400
C42   C     C_R   0.619586 0.240609 0.065118 0.200050
C43   C     C_R   0.250196 0.813775 0.929149 -0.325194
C44   C     C_R   0.750666 0.313789 0.070614 -0.299564
C45   C     C_R   0.505684 0.602663 0.998548 -0.200399
C46   C     C_R   0.499728 0.100039 0.003048 -0.214025
C47   C     C_R   0.625287 0.589783 0.936528 -0.057019
C48   C     C_R   0.383644 0.086011 0.066112 -0.062765
C49   C     C_R   0.630883 0.652179 0.874879 -0.020709
C50   C     C_R   0.374941 0.149801 0.126746 -0.038541
C51   C     C_R   0.509100 0.726532 0.873950 -0.257790
C52   C     C_R   0.491943 0.226163 0.126161 -0.263112
H9    H     H_    0.103681 0.974348 0.965005 0.102449
H10   H     H_    0.908501 0.472659 0.035447 0.105424
H11   H     H_    0.501785 0.546718 0.039899 0.138448
H12   H     H_    0.505034 0.044016 0.961628 0.135435
H13   H     H_    0.710156 0.528925 0.935423 0.143400
H14   H     H_    0.304023 0.023393 0.068799 0.158833
H15   H     H_    0.510974 0.769802 0.822561 0.169110
H16   H     H_    0.487787 0.270483 0.176906 0.164122
C53   C     C_2   0.568252 0.874818 0.517898 1.025462
O21   O     O_2   0.618281 0.935597 0.563073 -0.631579
O22   O     O_R   0.606923 0.886472 0.438252 -0.751152
H17   H     H_    0.667528 0.946947 0.425697 0.405576
C54   C     C_2   0.434178 0.375469 0.484575 1.162896
O23   O     O_2   0.397911 0.439148 0.440567 -0.557259
O24   O     O_R   0.385580 0.384798 0.563392 -0.770866
H18   H     H_    0.331295 0.446474 0.576986 0.386042
C55   C     C_2   0.288279 0.832903 0.346880 0.650948
H19   H     H_    0.247557 0.901352 0.327712 0.151388
O25   O     O_2   0.417827 0.796331 0.313988 -0.540010
C56   C     C_2   0.702661 0.336084 0.653736 0.692224
H20   H     H_    0.740996 0.405552 0.671478 0.105575
O26   O     O_2   0.572719 0.299720 0.686580 -0.505756
C57   C     C_2   0.759013 0.638576 0.809206 0.561872
H21   H     H_    0.789464 0.695284 0.770293 0.089048
O27   O     O_2   0.831089 0.563955 0.797494 -0.534250
C58   C     C_2   0.249021 0.135734 0.193094 0.566075
H22   H     H_    0.216951 0.192841 0.231393 0.084502
O28   O     O_2   0.180694 0.060451 0.206014 -0.513126
C59   C     C_2   0.885486 0.033143 0.071855 0.555114
H23   H     H_    0.949905 0.086501 0.037253 -0.028627
O29   O     O_2   0.795329 0.055976 0.128377 -0.568492
C60   C     C_2   0.128935 0.528522 0.927727 0.562838
H24   H     H_    0.065793 0.582894 0.961574 -0.038919
O30   O     O_2   0.220679 0.549638 0.871097 -0.563361
C61   C     C_2   0.676723 0.875997 0.139904 1.156211
O31   O     O_2   0.527069 0.858656 0.108618 -0.660075
O32   O     O_R   0.685948 0.912102 0.216113 -0.628487
H25   H     H_    0.559442 0.927932 0.236875 0.371760
C62   C     C_2   0.328603 0.369827 0.859348 1.174635
O33   O     O_2   0.321070 0.388819 0.789338 -0.466349
O34   O     O_R   0.499165 0.366079 0.899065 -0.832571
H26   H     H_    0.606607 0.378465 0.863063 0.353977
C63   C     C_2   0.961445 0.747435 0.181983 1.099983
O35   O     O_2   0.821328 0.720802 0.213649 -0.575470
O36   O     O_R   0.126709 0.756545 0.221797 -0.787401
H27   H     H_    0.136099 0.709010 0.262921 0.278680
C64   C     C_2   0.027002 0.248232 0.816126 1.104012
O37   O     O_2   0.160877 0.219153 0.781659 -0.570594
O38   O     O_R   0.857772 0.259748 0.779806 -0.810846
H28   H     H_    0.836352 0.209922 0.740972 0.287496
C65   C     C_2   0.214117 0.667111 0.659360 0.956561
O39   O     O_2   0.265263 0.586976 0.663610 -0.555718
O40   O     O_R   0.195103 0.718288 0.728341 -0.852186
H29   H     H_    0.222977 0.680875 0.777138 0.361318
C66   C     C_2   0.782461 0.168524 0.342624 0.979396
O41   O     O_2   0.730757 0.088376 0.339484 -0.519895
O42   O     O_R   0.798220 0.218731 0.273036 -0.871922
H30   H     H_    0.767566 0.180569 0.224939 0.363015
C67   C     C_2   0.950066 0.710780 0.589308 0.993467
O43   O     O_2   0.869660 0.646733 0.620804 -0.620426
O44   O     O_R   0.854764 0.769341 0.542409 -0.847927
H31   H     H_    0.865270 0.828936 0.570843 0.311029
C68   C     C_2   0.046199 0.219203 0.408944 1.078135
O45   O     O_2   0.130060 0.156120 0.377782 -0.600246
O46   O     O_R   0.138220 0.281928 0.453765 -0.767415
H32   H     H_    0.181584 0.252016 0.503665 0.258274
C69   C     C_2   0.983120 0.770277 0.381808 0.600302
H33   H     H_    0.911452 0.707692 0.392831 0.118104
O47   O     O_2   0.901005 0.828764 0.343321 -0.445570
C70   C     C_2   0.009125 0.273828 0.625625 0.464229
H34   H     H_    0.079445 0.208963 0.621883 0.136050
O48   O     O_2   0.090185 0.336211 0.660044 -0.490743
C71   C     C_2   0.029034 0.929454 0.480710 0.477899
H35   H     H_    0.961844 0.954251 0.532506 0.042392
O49   O     O_2   0.004377 0.973835 0.420432 -0.495248
C72   C     C_2   0.976424 0.427343 0.523350 0.516449
H36   H     H_    0.002265 0.463586 0.578338 0.107873
O50   O     O_2   0.058367 0.453088 0.466165 -0.553748
C73   C     C_2   0.582942 0.623108 0.492413 1.049754
O51   O     O_2   0.553699 0.572477 0.547960 -0.662336
O52   O     O_R   0.713627 0.597399 0.437804 -0.785637
H37   H     H_    0.762139 0.533918 0.447300 0.305685
C74   C     C_2   0.419696 0.123074 0.508708 0.997324
O53   O     O_2   0.450054 0.072095 0.453497 -0.632479
O54   O     O_R   0.285354 0.098947 0.562524 -0.804403
H38   H     H_    0.239223 0.034630 0.554733 0.293712
C75   C     C_2   0.551611 0.751422 0.623951 0.513915
H39   H     H_    0.542526 0.681346 0.642326 0.124415
O55   O     O_2   0.639607 0.800638 0.668830 -0.567027
C76   C     C_2   0.446799 0.253656 0.378396 0.525718
H40   H     H_    0.455435 0.183751 0.359212 0.110517
O56   O     O_2   0.355399 0.303513 0.335361 -0.522715

loop_
_geom_bond_atom_site_label_1
_geom_bond_atom_site_label_2
_geom_bond_distance
_ccdc_geom_bond_type
C22   C72   1.510222 S    
C34   C36   1.432147 A    
C75   H39   1.067395 S    
C49   C57   1.477408 S    
O52   H37   0.999068 S    
C67   O44   1.346991 S    
C29   C61   1.483955 S    
C9    C17   1.538811 S    
O54   H38   0.999353 S    
C5    C37   1.586193 S    
O22   H17   1.005978 S    
O4    C2    1.361426 A    
V1    O19   1.768059 S    
C31   C33   1.442249 A    
O44   H31   0.993158 S    
C6    C38   1.582761 S    
C62   O33   1.222041 D    
C74   O54   1.391476 S    
C11   C65   1.533544 S    
C33   C37   1.488463 A    
C75   O55   1.214862 D    
C8    C18   1.593599 S    
C55   H19   1.085809 S    
C42   C44   1.424501 A    
C10   C12   1.581359 S    
C50   C58   1.476993 S    
C73   O52   1.388238 S    
C59   H23   1.083522 S    
O3    C1    1.363930 A    
C46   C48   1.388985 A    
C62   O34   1.394464 S    
C19   C23   1.619916 S    
C26   C28   1.372683 A    
C67   O43   1.225320 D    
C12   C66   1.533747 S    
C54   O23   1.215780 D    
O13   V3    1.767785 S    
C60   H24   1.083185 S    
C28   C30   1.388191 A    
C14   C18   1.613750 S    
C37   C39   1.445599 A    
O7    C3    1.354695 A    
C76   H40   1.068509 S    
C30   C62   1.485297 S    
C40   C46   1.419625 A    
C49   C51   1.393846 A    
O5    C7    1.359120 A    
O7    V1    2.065804 S    
C71   H35   1.075726 S    
O6    C8    1.357758 A    
C68   O45   1.224933 D    
O8    V2    2.068731 S    
C33   C35   1.432173 A    
C20   C22   1.603347 S    
C69   H33   1.064244 S    
C32   C64   1.410983 S    
C24   C54   1.567834 S    
O3    V1    2.083125 S    
O14   V4    1.769445 S    
C15   H5    1.092517 S    
C70   O48   1.220867 D    
C13   C55   1.536581 S    
C7    C17   1.597127 S    
C45   C47   1.388829 A    
C2    O12   1.334695 A    
V3    O19   2.228076 S    
C57   O27   1.221023 D    
C25   C35   1.409344 A    
C26   H10   1.083207 S    
C56   O26   1.221414 D    
C56   H20   1.086909 S    
C54   O24   1.398149 S    
C16   C18   1.572653 S    
O11   V3    2.056961 S    
C76   O56   1.216094 D    
C61   O32   1.397427 S    
O17   V3    2.090505 S    
C53   O22   1.398127 S    
C66   O41   1.223028 D    
C27   C29   1.389006 A    
C23   C53   1.574902 S    
C65   O39   1.223529 D    
C40   C42   1.445106 A    
O8    C4    1.356145 A    
C74   O53   1.218372 D    
C39   C41   1.446129 A    
O13   V1    2.228954 S    
C1    O11   1.333665 A    
C21   H7    1.090004 S    
C19   C21   1.596536 S    
C15   C23   1.633771 S    
C21   C71   1.519571 S    
C9    H3    1.093377 S    
C58   H22   1.082158 S    
C16   C74   1.523042 S    
C72   O50   1.207449 D    
C63   O36   1.366951 S    
C16   C24   1.632849 S    
O24   H18   1.006953 S    
C3    C44   1.524348 S    
C27   C59   1.477822 S    
O9    V1    2.069020 S    
O10   V2    2.067861 S    
C29   C31   1.420627 A    
O32   H25   1.012784 S    
C53   O21   1.219321 D    
C9    C11   1.576776 S    
C15   C17   1.579283 S    
C70   H34   1.073474 S    
C60   O30   1.218652 D    
C10   C18   1.539753 S    
C48   C50   1.387711 A    
C11   C19   1.635508 S    
C11   C67   1.464284 S    
O18   V4    2.090937 S    
C50   C52   1.393889 A    
O15   C5    1.366724 A    
O38   H28   0.989106 S    
O16   C6    1.365837 A    
C28   C60   1.478236 S    
O1    C3    1.323497 A    
C41   C43   1.423151 A    
C57   H21   1.082022 S    
C64   O37   1.216522 D    
C39   C45   1.420233 A    
O6    V2    2.066650 S    
C47   C49   1.387340 A    
O36   H27   0.984488 S    
V2    O20   1.766399 S    
C46   H12   1.076794 S    
C65   O40   1.396892 S    
O16   V4    2.057284 S    
C12   C68   1.455071 S    
C14   C70   1.522409 S    
C10   H4    1.097085 S    
C1    C20   1.599211 S    
C42   C52   1.417230 A    
C64   O38   1.369234 S    
C14   C56   1.537843 S    
C61   O31   1.221285 D    
O5    V1    2.064000 S    
C13   C21   1.580031 S    
C36   C44   1.396759 A    
C51   H15   1.076941 S    
O40   H29   1.009205 S    
O10   C6    1.342298 A    
O18   C8    1.340206 A    
C55   O25   1.221485 D    
C30   C32   1.418777 A    
O2    V4    2.078182 S    
C4    C43   1.525019 S    
C24   C76   1.536274 S    
C13   C69   1.522261 S    
C20   C24   1.613243 S    
C16   H6    1.089693 S    
O46   H32   0.998486 S    
C72   H36   1.085170 S    
V4    O20   2.230420 S    
C66   O42   1.396704 S    
C26   C36   1.411007 A    
O1    V3    2.077012 S    
O34   H26   1.013843 S    
O15   V3    2.060188 S    
C12   C20   1.621537 S    
O9    C5    1.342987 A    
C9    H1    1.104184 S    
C10   H2    1.103586 S    
C25   H9    1.083724 S    
O14   V2    2.226611 S    
C69   O47   1.220172 D    
C48   H14   1.077079 S    
C68   O46   1.352680 S    
O2    C4    1.322255 A    
C58   O28   1.221115 D    
C47   H13   1.076858 S    
C73   O51   1.218955 D    
C25   C27   1.370060 A    
C23   C75   1.541894 S    
O4    V2    2.082698 S    
C22   H8    1.092805 S    
C35   C43   1.393741 A    
C34   C38   1.485253 A    
C45   H11   1.075681 S    
C71   O49   1.221302 D    
C14   C22   1.584277 S    
C13   C17   1.615550 S    
C38   C40   1.441974 A    
C52   H16   1.076758 S    
O42   H30   1.008183 S    
O12   V4    2.054326 S    
C2    C19   1.594867 S    
C41   C51   1.417404 A    
C31   C63   1.411834 S    
C63   O35   1.218555 D    
C32   C34   1.439292 A    
C59   O29   1.217310 D    
O17   C7    1.339901 A    
C15   C73   1.524363 S    
