data_mof_unit_53783.cif
_audit_creation_date              2012-12-10T19:09:34-0500
_audit_creation_method            fapswitch 2.2
_symmetry_space_group_name_H-M    P1
_symmetry_Int_Tables_number       1
_space_group_crystal_system       triclinic
_cell_length_a                    15.014354
_cell_length_b                    15.036638
_cell_length_c                    9.694549
_cell_angle_alpha                 89.99014
_cell_angle_beta                  90.000313
_cell_angle_gamma                 89.999006
_cell_volume                      2188.69375725

loop_
_atom_site_label
_atom_site_type_symbol
_atom_type_description
_atom_site_fract_x
_atom_site_fract_y
_atom_site_fract_z
_atom_type_partial_charge
C1    C     C_R   0.121133 0.378733 0.500294 0.836411
C2    C     C_R   0.121252 0.621148 0.499708 0.836855
C3    C     C_R   0.621131 0.878731 0.499726 0.836413
C4    C     C_R   0.621272 0.121129 0.499709 0.836854
C5    C     C_3   0.906867 0.502802 0.081325 -0.235104
C6    C     C_3   0.906861 0.502677 0.918645 -0.234618
C7    C     C_3   0.406934 0.004511 0.081340 -0.234538
C8    C     C_3   0.406936 0.004558 0.918660 -0.235147
C9    C     C_R   0.878730 0.378711 0.499718 0.834997
C10   C     C_R   0.878587 0.621145 0.499714 0.835494
C11   C     C_R   0.378710 0.878730 0.499718 0.834945
C12   C     C_R   0.378588 0.121147 0.500283 0.835531
C13   C     C_3   0.845565 0.226790 0.574602 -0.408027
C14   C     C_3   0.786337 0.285051 0.347910 -0.398980
C15   C     C_3   0.784749 0.713403 0.347958 -0.399911
C16   C     C_3   0.845958 0.773580 0.572158 -0.407771
C17   C     C_3   0.345636 0.726722 0.574209 -0.407750
C18   C     C_3   0.286092 0.785296 0.347911 -0.398867
C19   C     C_3   0.345949 0.273597 0.427855 -0.408384
C20   C     C_3   0.284764 0.213382 0.652086 -0.399779
C21   C     C_3   0.273363 0.654524 0.574433 -0.407766
C22   C     C_3   0.214834 0.713666 0.347912 -0.402067
C23   C     C_3   0.273684 0.345797 0.427627 -0.408162
C24   C     C_3   0.213514 0.285021 0.652095 -0.401805
C25   C     C_3   0.773317 0.154565 0.574743 -0.407471
C26   C     C_3   0.715029 0.213470 0.347909 -0.401924
C27   C     C_3   0.713484 0.785019 0.347968 -0.402064
C28   C     C_3   0.773696 0.845787 0.572382 -0.407702
C29   C     C_3   0.726126 0.345815 0.572336 -0.407606
C30   C     C_3   0.726523 0.654559 0.574820 -0.407334
C31   C     C_3   0.226191 0.845745 0.572721 -0.407849
C32   C     C_3   0.226514 0.154578 0.425241 -0.407953
C33   C     C_3   0.810625 0.310520 0.498703 0.201151
C34   C     C_3   0.810384 0.689238 0.498723 0.200964
C35   C     C_3   0.310592 0.810552 0.498704 0.201115
C36   C     C_3   0.310384 0.189242 0.501303 0.201753
C37   C     C_3   0.189411 0.689288 0.498694 0.201533
C38   C     C_3   0.189206 0.310511 0.501316 0.202269
C39   C     C_3   0.689445 0.189254 0.498695 0.201555
C40   C     C_3   0.689206 0.810505 0.498744 0.201543
C41   C     C_3   0.153924 0.773535 0.572509 -0.407702
C42   C     C_3   0.154243 0.226790 0.425463 -0.408164
C43   C     C_3   0.653885 0.273581 0.572213 -0.407986
C44   C     C_3   0.654259 0.726783 0.574654 -0.407680
C45   C     C_3   0.042138 0.419148 0.081267 -0.231888
C46   C     C_3   0.042266 0.419220 0.918800 -0.233153
C47   C     C_3   0.046934 0.578086 0.918745 -0.231328
C48   C     C_3   0.047048 0.578011 0.081199 -0.232537
C49   C     C_3   0.540616 0.918352 0.081250 -0.233071
C50   C     C_3   0.540576 0.918328 0.918777 -0.232360
C51   C     C_3   0.548529 0.077079 0.918743 -0.231210
C52   C     C_3   0.548520 0.077081 0.081195 -0.232296
H1    H     H_    0.741721 0.364782 0.680700 0.165421
H2    H     H_    0.700831 0.406317 0.518908 0.144181
H3    H     H_    0.700801 0.593596 0.523215 0.144207
H4    H     H_    0.743039 0.636542 0.683253 0.165559
H5    H     H_    0.241928 0.864505 0.681121 0.165234
H6    H     H_    0.200855 0.906353 0.519623 0.144153
H7    H     H_    0.243012 0.136610 0.316788 0.165138
H8    H     H_    0.200812 0.093589 0.476837 0.144241
H9    H     H_    0.134852 0.757811 0.680800 0.165834
H10   H     H_    0.093355 0.798794 0.519032 0.144461
H11   H     H_    0.135961 0.243277 0.317115 0.165625
H12   H     H_    0.093291 0.201167 0.477456 0.144385
H13   H     H_    0.634760 0.257972 0.680525 0.165497
H14   H     H_    0.593337 0.298757 0.518578 0.144463
H15   H     H_    0.593285 0.701172 0.522726 0.144329
H16   H     H_    0.636016 0.743262 0.683009 0.166037
H17   H     H_    0.007485 0.358684 0.119990 0.136209
H18   H     H_    0.007877 0.358685 0.879827 0.136579
H19   H     H_    0.015964 0.640525 0.880067 0.136508
H20   H     H_    0.016309 0.640495 0.120096 0.136244
H21   H     H_    0.504966 0.858529 0.120185 0.136252
H22   H     H_    0.504821 0.858534 0.879990 0.136586
H23   H     H_    0.518889 0.140134 0.879968 0.136357
H24   H     H_    0.518899 0.140140 0.119943 0.136474
H25   H     H_    0.111976 0.414833 0.118947 0.140712
H26   H     H_    0.112179 0.415177 0.881445 0.140391
H27   H     H_    0.116893 0.578197 0.880977 0.140129
H28   H     H_    0.117059 0.577872 0.118684 0.139950
H29   H     H_    0.610415 0.912856 0.118661 0.140522
H30   H     H_    0.610344 0.912713 0.881206 0.140882
H31   H     H_    0.618495 0.075706 0.881049 0.139958
H32   H     H_    0.618485 0.075683 0.118839 0.139711
N1    N     N_3   0.998760 0.500000 0.138610 -0.025568
N2    N     N_3   0.998760 0.500000 0.861390 -0.025952
N3    N     N_3   0.498760 1.000000 0.138610 -0.025512
N4    N     N_3   0.498760 1.000000 0.861390 -0.026014
O1    O     O_R   0.092530 0.407440 0.616040 -0.635245
O2    O     O_R   0.092530 0.407440 0.383960 -0.634067
O3    O     O_R   0.092530 0.592560 0.383960 -0.635296
O4    O     O_R   0.092530 0.592560 0.616040 -0.633845
O5    O     O_R   0.592530 0.907440 0.616040 -0.633709
O6    O     O_R   0.592530 0.907440 0.383960 -0.635582
O7    O     O_R   0.592530 0.092560 0.383960 -0.635306
O8    O     O_R   0.592530 0.092560 0.616040 -0.633828
O9    O     O_R   0.907330 0.407420 0.616040 -0.632188
O10   O     O_R   0.907330 0.407420 0.383960 -0.633991
O11   O     O_R   0.907330 0.592580 0.383960 -0.634224
O12   O     O_R   0.907330 0.592580 0.616040 -0.632180
O13   O     O_R   0.407330 0.907420 0.616040 -0.632106
O14   O     O_R   0.407330 0.907420 0.383960 -0.633955
O15   O     O_R   0.407330 0.092580 0.383960 -0.632510
O16   O     O_R   0.407330 0.092580 0.616040 -0.634016
Zn1   Zn    Zn3+2 0.999890 0.500000 0.654960 0.891777
Zn2   Zn    Zn3+2 0.999890 0.500000 0.345040 0.890828
Zn3   Zn    Zn3+2 0.499890 1.000000 0.654960 0.891726
Zn4   Zn    Zn3+2 0.499890 1.000000 0.345040 0.890886
H33   H     H_    0.863777 0.243258 0.682975 0.166943
H34   H     H_    0.761164 0.344290 0.290902 0.162440
H35   H     H_    0.759073 0.653660 0.292830 0.161885
H36   H     H_    0.865173 0.757993 0.680432 0.166930
H37   H     H_    0.364060 0.743048 0.682546 0.167157
H38   H     H_    0.260804 0.844615 0.291226 0.162766
H39   H     H_    0.365151 0.258029 0.319575 0.166482
H40   H     H_    0.259074 0.153629 0.707215 0.162203
H41   H     H_    0.906555 0.201185 0.522706 0.144135
H42   H     H_    0.846217 0.259913 0.292317 0.164490
H43   H     H_    0.844104 0.738056 0.290519 0.164819
H44   H     H_    0.906454 0.798772 0.518412 0.144351
H45   H     H_    0.406519 0.701160 0.521968 0.144150
H46   H     H_    0.345896 0.760274 0.292003 0.164209
H47   H     H_    0.406449 0.298783 0.481592 0.144502
H48   H     H_    0.344129 0.238005 0.709525 0.165118
H49   H     H_    0.299006 0.593600 0.522615 0.144495
H50   H     H_    0.240448 0.654003 0.292503 0.162904
H51   H     H_    0.298959 0.406339 0.480938 0.144615
H52   H     H_    0.238756 0.344248 0.709022 0.163421
H53   H     H_    0.799044 0.093612 0.523112 0.144515
H54   H     H_    0.740651 0.153739 0.292680 0.162473
H55   H     H_    0.738694 0.844250 0.290993 0.163150
H56   H     H_    0.798967 0.906323 0.519023 0.144512
H57   H     H_    0.256979 0.636425 0.682885 0.165572
H58   H     H_    0.155396 0.738383 0.290738 0.163622
H59   H     H_    0.258062 0.364683 0.319228 0.165335
H60   H     H_    0.153633 0.259928 0.707748 0.163512
H61   H     H_    0.756817 0.136531 0.683182 0.165838
H62   H     H_    0.655661 0.238176 0.290542 0.163982
H63   H     H_    0.653595 0.759910 0.292375 0.163140
H64   H     H_    0.758094 0.864684 0.680771 0.165806
H65   H     H_    0.868080 0.444859 0.119709 0.139066
H66   H     H_    0.868207 0.444577 0.880491 0.139576
H67   H     H_    0.871631 0.562886 0.880402 0.140052
H68   H     H_    0.871796 0.563160 0.119274 0.139680
H69   H     H_    0.367112 0.947236 0.119615 0.138872
H70   H     H_    0.367038 0.947362 0.880285 0.139412
H71   H     H_    0.373027 0.065572 0.880676 0.139894
H72   H     H_    0.372944 0.065455 0.119433 0.140189

loop_
_geom_bond_atom_site_label_1
_geom_bond_atom_site_label_2
_ccdc_geom_bond_type
C16   C28   S    
O13   Zn3   S    
C9    O10   A    
C42   H12   S    
C27   H55   S    
C49   N3    S    
C25   H61   S    
C28   H64   S    
C41   H9    S    
C25   H53   S    
C18   H38   S    
C14   C33   S    
C17   H37   S    
C7    C8    S    
C45   C46   S    
C7    H69   S    
C19   H47   S    
O12   Zn1   S    
C1    O2    A    
C22   H58   S    
C32   C36   S    
C31   H6    S    
C23   H51   S    
C51   H23   S    
C38   C42   S    
C19   C36   S    
C50   H22   S    
C5    C6    S    
C26   C39   S    
C22   H50   S    
C29   H2    S    
C28   C40   S    
C29   C33   S    
C49   H29   S    
C52   H32   S    
C13   H33   S    
C16   C34   S    
C4    O8    A    
C5    H65   S    
C7    N3    S    
N3    Zn4   S    
C20   C24   S    
C14   H42   S    
C24   C38   S    
O14   Zn4   S    
O15   Zn4   S    
C47   H27   S    
C6    H66   S    
C18   C35   S    
C15   C34   S    
C26   H54   S    
C50   N4    S    
C5    N1    S    
C24   H60   S    
C11   O13   A    
C29   C43   S    
C9    C33   S    
O3    Zn2   S    
C30   C44   S    
C10   O11   A    
C41   H10   S    
C48   H20   S    
C21   H57   S    
C1    O1    A    
C46   H18   S    
C30   C34   S    
C45   H17   S    
C51   C52   S    
C47   N2    S    
C15   H35   S    
O2    Zn2   S    
C12   O15   A    
C3    O5    A    
C20   H40   S    
N4    Zn3   S    
C10   O12   A    
C5    H68   S    
C39   C43   S    
C50   H30   S    
C26   H62   S    
C22   C37   S    
C30   H4    S    
C27   H63   S    
C28   H56   S    
C20   C36   S    
C19   C23   S    
C13   C33   S    
C4    O7    A    
C15   C27   S    
C47   C48   S    
C4    C39   S    
C19   H39   S    
C27   C40   S    
C43   H13   S    
O6    Zn4   S    
C10   C34   S    
C14   C26   S    
C2    O4    A    
C47   H19   S    
C11   O14   A    
C1    C38   S    
C18   H46   S    
C17   H45   S    
O8    Zn3   S    
C3    C40   S    
C31   C35   S    
C44   H16   S    
C8    H71   S    
C12   C36   S    
C32   H8    S    
C21   H49   S    
N1    Zn2   S    
C51   H31   S    
C16   H36   S    
C46   H26   S    
C7    H72   S    
C14   H34   S    
O11   Zn2   S    
C9    O9    A    
C31   C41   S    
C18   C22   S    
C52   N3    S    
C8    H70   S    
C13   C25   S    
C52   H24   S    
C6    N2    S    
C51   N4    S    
C13   H41   S    
C12   O16   A    
C23   C38   S    
C30   H3    S    
O10   Zn2   S    
C23   H59   S    
C45   N1    S    
C48   H28   S    
C16   H44   S    
O9    Zn1   S    
O5    Zn3   S    
C2    C37   S    
C31   H5    S    
C29   H1    S    
C43   H14   S    
C11   C35   S    
C15   H43   S    
C3    O6    A    
C49   H21   S    
C37   C41   S    
C2    O3    A    
C17   C21   S    
C20   H48   S    
O7    Zn4   S    
N2    Zn1   S    
O4    Zn1   S    
C40   C44   S    
C21   C37   S    
C49   C50   S    
O1    Zn1   S    
C24   H52   S    
C32   C42   S    
C48   N1    S    
C44   H15   S    
C45   H25   S    
C17   C35   S    
C32   H7    S    
C8    N4    S    
C6    H67   S    
C42   H11   S    
O16   Zn3   S    
C25   C39   S    
C46   N2    S    
