data_mof_unit_29768.cif
_audit_creation_date              2012-12-11T14:14:10-0500
_audit_creation_method            fapswitch 2.2
_symmetry_space_group_name_H-M    P1
_symmetry_Int_Tables_number       1
_space_group_crystal_system       triclinic
_cell_length_a                    17.123131
_cell_length_b                    7.242728
_cell_length_c                    16.90046
_cell_angle_alpha                 90.784316
_cell_angle_beta                  99.710973
_cell_angle_gamma                 88.919744
_cell_volume                      2065.4469936

loop_
_atom_site_label
_atom_site_type_symbol
_atom_type_description
_atom_site_fract_x
_atom_site_fract_y
_atom_site_fract_z
_atom_type_partial_charge
O1    O     O_R   0.414560 0.494370 0.416770 -0.539519
O2    O     O_R   0.585440 0.994370 0.583230 -0.545482
O3    O     O_R   0.578370 0.819590 0.429320 -0.551288
O4    O     O_R   0.421630 0.319590 0.570680 -0.546308
C1    C     C_R   0.602705 0.653735 0.411905 0.778065
C2    C     C_R   0.394637 0.158732 0.585418 0.759957
O5    O     O_R   0.414740 0.823790 0.407360 -0.547015
O6    O     O_R   0.585260 0.323790 0.592640 -0.536119
O7    O     O_R   0.420650 0.998510 0.561120 -0.504705
O8    O     O_R   0.579350 0.498510 0.438880 -0.541987
C3    C     C_R   0.388195 0.655211 0.384952 0.772690
C4    C     C_R   0.612889 0.154924 0.613941 0.725855
O9    O     O_3   0.502130 0.662240 0.550470 -0.370891
O10   O     O_3   0.497870 0.162240 0.449530 -0.396847
V1    V     V_3+5 0.499600 0.935390 0.490640 1.421888
V2    V     V_3+5 0.500400 0.435390 0.509360 1.444443
C5    C     C_2   0.784697 0.272369 0.788264 -0.128767
C6    C     C_2   0.214920 0.771369 0.211233 -0.127462
C7    C     C_2   0.820436 0.113740 0.817446 -0.311095
C8    C     C_2   0.179097 0.613110 0.183121 -0.275770
H1    H     H_    0.806112 0.402960 0.815040 0.143703
H2    H     H_    0.193474 0.901284 0.183625 0.138448
H3    H     H_    0.800162 0.981504 0.792179 0.131774
H4    H     H_    0.198520 0.481820 0.210134 0.131525
C9    C     C_2   0.716021 0.284712 0.720995 -0.101910
C10   C     C_2   0.282789 0.784819 0.279271 -0.129769
C11   C     C_2   0.681266 0.138619 0.680112 -0.296911
C12   C     C_2   0.321572 0.638875 0.316961 -0.268979
H5    H     H_    0.693348 0.422701 0.705083 0.148962
H6    H     H_    0.301546 0.923205 0.298286 0.133453
H7    H     H_    0.702808 0.999699 0.694723 0.133342
H8    H     H_    0.304399 0.499690 0.298415 0.127482
C13   C     C_R   0.329464 0.166040 0.634167 -0.252372
C14   C     C_R   0.667322 0.642864 0.363064 -0.220031
C15   C     C_R   0.161610 0.104045 0.856219 -0.109995
C16   C     C_R   0.835542 0.626943 0.139158 -0.086814
C17   C     C_R   0.261384 0.920327 0.802256 -0.120438
C18   C     C_R   0.696531 0.664990 0.149342 -0.145093
C19   C     C_R   0.209436 0.944339 0.856360 -0.145341
C20   C     C_R   0.756591 0.652422 0.103133 -0.183562
C21   C     C_R   0.165589 0.240671 0.797810 -0.099138
C22   C     C_R   0.854546 0.611201 0.223668 -0.081842
C23   C     C_R   0.215152 0.210489 0.738291 -0.064019
C24   C     C_R   0.793438 0.629018 0.272078 -0.039545
C25   C     C_R   0.267675 0.054800 0.744920 -0.010179
C26   C     C_R   0.713689 0.659232 0.233764 -0.012945
C27   C     C_R   0.326464 0.036152 0.694873 0.379187
C28   C     C_R   0.652282 0.685513 0.280573 0.337815
C29   C     C_R   0.272680 0.312916 0.623525 -0.202344
C30   C     C_R   0.745601 0.604730 0.400527 -0.215359
C31   C     C_R   0.213568 0.328935 0.671663 0.396541
C32   C     C_R   0.809007 0.621412 0.357419 0.372820
H9    H     H_    0.296340 0.793842 0.805519 0.138122
H10   H     H_    0.636152 0.680378 0.118246 0.139577
H11   H     H_    0.207245 0.835922 0.899443 0.133071
H12   H     H_    0.741177 0.660982 0.038393 0.108400
O11   O     O_R   0.920750 0.773600 0.061260 -0.535902
O12   O     O_R   0.079250 0.273600 0.938740 -0.535392
O13   O     O_R   0.085340 0.439850 0.092570 -0.541658
O14   O     O_R   0.914660 0.939850 0.907430 -0.540217
C33   C     C_R   0.112168 0.608049 0.114803 0.735075
C34   C     C_R   0.887739 0.108518 0.885282 0.736338
O15   O     O_R   0.921720 0.444130 0.070790 -0.537195
O16   O     O_R   0.078280 0.944130 0.929210 -0.532223
O17   O     O_R   0.914480 0.269530 0.916840 -0.536876
O18   O     O_R   0.085520 0.769530 0.083160 -0.539864
C35   C     C_R   0.897008 0.614110 0.086829 0.680811
C36   C     C_R   0.102796 0.109989 0.912311 0.677593
O19   O     O_3   0.997840 0.601520 0.949550 -0.365649
O20   O     O_3   0.002160 0.101520 0.050450 -0.379304
V3    V     V_3+5 0.000400 0.328340 0.009360 1.437270
V4    V     V_3+5 0.999600 0.828340 0.990640 1.446272
C37   C     C_1   0.121633 0.412630 0.801533 0.351983
N1    N     N_1   0.086745 0.550281 0.804647 -0.326764
C38   C     C_1   0.936421 0.572387 0.258493 0.341632
N2    N     N_1   0.001874 0.541359 0.285979 -0.363791
O21   O     O_3   0.381978 0.892318 0.705083 -0.557872
C39   C     C_3   0.436355 0.914874 0.777806 0.046358
H13   H     H_    0.438212 0.784156 0.811797 0.133950
H14   H     H_    0.420349 0.028176 0.817998 0.099621
C40   C     C_3   0.519123 0.949970 0.759708 -0.260357
H15   H     H_    0.535662 0.840008 0.718783 0.214038
H16   H     H_    0.518734 0.085487 0.729750 0.168174
C41   C     C_3   0.580509 0.952548 0.836606 -0.868322
H17   H     H_    0.566151 0.064653 0.877584 0.233453
H18   H     H_    0.640168 0.977108 0.821958 0.239965
H19   H     H_    0.582075 0.817990 0.867650 0.226815
O22   O     O_3   0.575633 0.736180 0.245651 -0.579055
C42   C     C_3   0.572880 0.919480 0.216048 0.022733
H20   H     H_    0.529759 0.922238 0.159016 0.143520
H21   H     H_    0.630172 0.968451 0.201648 0.116255
C43   C     C_3   0.544551 0.055928 0.275451 -0.273699
H22   H     H_    0.489143 0.005343 0.293088 0.212423
H23   H     H_    0.590981 0.067288 0.329628 0.201833
C44   C     C_3   0.529001 0.247868 0.239288 -0.805391
H24   H     H_    0.584007 0.302314 0.222227 0.236835
H25   H     H_    0.509155 0.343539 0.284112 0.246978
H26   H     H_    0.481894 0.242676 0.185410 0.219754
C45   C     C_1   0.272342 0.450051 0.561708 0.435478
N3    N     N_1   0.271710 0.560193 0.512632 -0.364775
C46   C     C_1   0.762369 0.556821 0.484740 0.332287
N4    N     N_1   0.775790 0.518404 0.551970 -0.379239
O23   O     O_3   0.155534 0.465119 0.652945 -0.559171
C47   C     C_3   0.083385 0.385735 0.614965 0.085336
H27   H     H_    0.034626 0.466130 0.635720 0.133919
H28   H     H_    0.075239 0.240381 0.632805 0.107382
C48   C     C_3   0.072096 0.403824 0.523166 -0.312182
H29   H     H_    0.008422 0.431750 0.499892 0.195157
H30   H     H_    0.105215 0.523650 0.506480 0.230577
C49   C     C_3   0.097036 0.228298 0.481918 -0.741556
H31   H     H_    0.161272 0.199374 0.499028 0.225895
H32   H     H_    0.083468 0.245212 0.415795 0.241576
H33   H     H_    0.064383 0.107544 0.498343 0.217482
O24   O     O_3   0.886015 0.632467 0.398900 -0.572432
C50   C     C_3   0.897260 0.808099 0.437280 0.095385
H34   H     H_    0.949598 0.796963 0.485845 0.130017
H35   H     H_    0.846985 0.851108 0.467870 0.121734
C51   C     C_3   0.913550 0.958573 0.379001 -0.351226
H36   H     H_    0.976769 0.949788 0.371517 0.202732
H37   H     H_    0.876742 0.939713 0.318987 0.202212
C52   C     C_3   0.894701 0.150749 0.409687 -0.780472
H38   H     H_    0.829588 0.170323 0.405171 0.229193
H39   H     H_    0.916951 0.256940 0.372739 0.264267
H40   H     H_    0.922735 0.169431 0.473346 0.232996

loop_
_geom_bond_atom_site_label_1
_geom_bond_atom_site_label_2
_ccdc_geom_bond_type
C46   N4    T    
C48   H30   S    
C37   N1    T    
C16   C22   A    
C44   H24   S    
O1    C3    A    
C41   H19   S    
O2    C4    A    
C2    O7    A    
C47   H28   S    
C40   H15   S    
C16   C35   S    
O21   C39   S    
O5    C3    A    
C22   C38   S    
O16   C36   A    
C41   H18   S    
C39   H14   S    
O12   V3    S    
O14   V4    S    
C7    C34   S    
C13   C29   A    
C50   H34   S    
C15   C36   S    
O14   C34   A    
C29   C31   A    
C8    C33   S    
C51   H36   S    
C52   H40   S    
C49   H31   S    
C33   O18   A    
C19   H11   S    
C8    H4    S    
O18   V4    S    
C50   H35   S    
C6    C10   S    
C30   C32   A    
C48   H29   S    
C28   O22   S    
O20   V3    S    
C42   H21   S    
C17   H9    S    
C24   C32   A    
O5    V1    S    
O6    V2    S    
C21   C23   A    
C22   C24   A    
O11   C35   A    
C47   H27   S    
C40   H16   S    
C24   C26   A    
O24   C50   S    
C51   H37   S    
C25   C27   A    
C9    H5    S    
O15   C35   A    
C14   C30   A    
O13   C33   A    
C4    C11   S    
C11   H7    S    
C16   C20   A    
C41   H17   S    
O4    C2    A    
C39   H13   S    
C20   H12   S    
O17   V3    S    
C43   C44   S    
C5    H1    S    
C51   C52   S    
O4    V2    S    
O19   V4    S    
C15   C19   A    
C38   N2    T    
C29   C45   S    
C45   N3    T    
C18   H10   S    
C12   H8    S    
O6    C4    A    
C50   C51   S    
C1    C14   S    
C43   H23   S    
O1    V2    S    
C42   C43   S    
O2    V1    S    
C23   C25   A    
C49   H33   S    
C52   H38   S    
O12   C36   A    
O15   V3    S    
C10   H6    S    
C13   C27   A    
C48   C49   S    
C14   C28   A    
C27   O21   S    
C17   C25   A    
C40   C41   S    
O3    V1    S    
C7    H3    S    
C34   O17   A    
C6    H2    S    
O3    C1    A    
C44   H25   S    
C32   O24   S    
C9    C11   D    
C10   C12   D    
C2    C13   S    
C5    C9    S    
O7    V1    S    
C1    O8    A    
C17   C19   A    
O8    V2    S    
C18   C26   A    
C18   C20   A    
C39   C40   S    
C23   C31   A    
C3    C12   S    
C43   H22   S    
C5    C7    D    
C6    C8    D    
O16   V4    S    
O11   V4    S    
C15   C21   A    
C49   H32   S    
C52   H39   S    
C21   C37   S    
C26   C28   A    
O22   C42   S    
C30   C46   S    
O9    V2    S    
O23   C47   S    
O10   V1    S    
C42   H20   S    
C31   O23   S    
C47   C48   S    
O13   V3    S    
C44   H26   S    
