data_mof_unit_5596.cif
_audit_creation_date              2012-12-10T17:04:36-0500
_audit_creation_method            fapswitch 2.2
_symmetry_space_group_name_H-M    P1
_symmetry_Int_Tables_number       1
_space_group_crystal_system       triclinic
_cell_length_a                    14.904303
_cell_length_b                    10.678815
_cell_length_c                    10.054546
_cell_angle_alpha                 91.246206
_cell_angle_beta                  90.11612
_cell_angle_gamma                 89.907965
_cell_volume                      1599.90074659

loop_
_atom_site_label
_atom_site_type_symbol
_atom_type_description
_atom_site_fract_x
_atom_site_fract_y
_atom_site_fract_z
_atom_type_partial_charge
C1    C     C_R   0.502278 0.262500 0.498061 0.933985
C2    C     C_R   0.185159 0.405171 0.441497 -0.196650
C3    C     C_R   0.232020 0.503923 0.498863 -0.064007
C4    C     C_R   0.327227 0.499621 0.499821 0.887692
C5    C     C_R   0.189485 0.610317 0.548089 -0.214594
C6    C     C_2   0.542963 0.928986 0.396531 -0.144708
C7    C     C_2   0.524045 0.867717 0.507039 -0.387457
C8    C     C_2   0.551824 0.064175 0.400801 0.207848
C9    C     C_2   0.503289 0.129521 0.491822 -0.302329
C10   C     C_2   0.529322 0.593046 0.926736 -0.056853
C11   C     C_2   0.541040 0.583129 0.074950 -0.161199
C12   C     C_R   0.907637 0.634406 0.528959 -0.008516
C13   C     C_R   0.505085 0.737232 0.501608 0.935653
C14   C     C_R   0.672694 0.506674 0.500198 0.870358
C15   C     C_R   0.812629 0.627467 0.544804 0.132339
C16   C     C_R   0.768244 0.517911 0.498898 -0.036814
C17   C     C_R   0.813725 0.417898 0.441523 -0.267822
C18   C     C_R   0.905702 0.418083 0.437362 0.123464
C19   C     C_R   0.953559 0.524115 0.484274 0.012993
C20   C     C_3   0.759341 0.730318 0.616225 -0.867353
C21   C     C_3   0.612920 0.123481 0.300265 -0.804549
C22   C     C_2   0.417792 0.448939 0.103846 1.039271
C23   C     C_R   0.949522 0.310994 0.389146 -0.233438
C24   C     C_2   0.084112 0.182598 0.347659 0.921881
C25   C     C_3   0.109456 0.851504 0.607014 -0.794926
C26   C     C_2   0.916535 0.870656 0.557846 0.915425
C27   C     C_R   0.042438 0.303011 0.391784 -0.037481
C28   C     C_R   0.091926 0.407169 0.440726 0.055314
C29   C     C_R   0.047184 0.518246 0.486922 0.028325
C30   C     C_R   0.096529 0.622312 0.536921 0.102752
C31   C     C_R   0.053239 0.737146 0.568673 0.080105
C32   C     C_R   0.958735 0.744861 0.557960 -0.009505
H1    H     H_    0.525975 0.912835 0.604873 0.161123
H2    H     H_    0.549824 0.880358 0.300939 0.180289
H3    H     H_    0.692221 0.701587 0.649674 0.240262
H4    H     H_    0.794547 0.760311 0.708815 0.262489
H5    H     H_    0.748095 0.810118 0.549508 0.256509
H6    H     H_    0.654308 0.051424 0.247663 0.228187
H7    H     H_    0.572869 0.172747 0.224261 0.267751
H8    H     H_    0.659347 0.190067 0.351105 0.217983
H9    H     H_    0.298425 0.473824 0.012718 0.343231
H10   H     H_    0.175702 0.047692 0.381003 0.347519
H11   H     H_    0.071435 0.939677 0.620597 0.278815
H12   H     H_    0.459225 0.084960 0.562244 0.127928
H13   H     H_    0.159483 0.868877 0.527956 0.230844
H14   H     H_    0.144787 0.834671 0.702306 0.243344
H15   H     H_    0.856681 0.004449 0.450316 0.337301
H16   H     H_    0.548670 0.679714 0.880496 0.153449
H17   H     H_    0.497745 0.414415 0.893837 0.172447
H18   H     H_    0.587462 0.647838 0.123145 0.158145
H19   H     H_    0.776800 0.336634 0.404866 0.137448
H20   H     H_    0.910754 0.230914 0.353795 0.172520
H21   H     H_    0.222816 0.327702 0.398647 0.187460
H22   H     H_    0.230868 0.684737 0.589505 0.152589
N1    N     N_2   0.500970 0.501330 0.852150 -0.174398
N2    N     N_2   0.500990 0.501360 0.147810 -0.174989
O1    O     O_R   0.499990 0.319060 0.613040 -0.618954
O2    O     O_R   0.355243 0.521754 0.035679 -0.800330
O3    O     O_2   0.055908 0.127922 0.247948 -0.585940
O4    O     O_R   0.152508 0.128672 0.422746 -0.818876
O5    O     O_2   0.910512 0.932623 0.661237 -0.622321
O6    O     O_R   0.883986 0.917907 0.438478 -0.782283
O7    O     O_R   0.500010 0.319100 0.386900 -0.584073
O8    O     O_R   0.367830 0.499950 0.613080 -0.593801
O9    O     O_R   0.367860 0.499990 0.386940 -0.604450
O10   O     O_R   0.499990 0.680900 0.613100 -0.628472
O11   O     O_R   0.500010 0.680940 0.386960 -0.618515
O12   O     O_R   0.632140 0.500010 0.613060 -0.619246
O13   O     O_R   0.632170 0.500050 0.386920 -0.623102
O14   O     O_2   0.399082 0.341708 0.133252 -0.630525
Zn1   Zn    Zn3+2 0.499980 0.499970 0.650990 0.971222
Zn2   Zn    Zn3+2 0.500020 0.500030 0.349010 0.992212

loop_
_geom_bond_atom_site_label_1
_geom_bond_atom_site_label_2
_ccdc_geom_bond_type
N1    Zn1   S    
C22   O2    S    
O13   Zn2   S    
C22   N2    S    
C24   C27   S    
C26   C32   S    
C6    C7    D    
C10   N1    D    
C1    O1    A    
O9    Zn2   S    
C4    O8    A    
C20   H4    S    
O10   Zn1   S    
C21   H7    S    
C12   C15   A    
C30   C31   A    
C24   O4    S    
C25   H11   S    
H15   O6    S    
C2    C3    A    
C26   O6    S    
C11   H18   S    
C3    C4    S    
C12   C32   A    
C20   H5    S    
C7    H1    S    
C17   H19   S    
C23   H20   S    
C29   C30   A    
C21   H8    S    
C24   O3    D    
C6    C8    S    
C15   C16   A    
C1    O7    A    
C12   C19   A    
C28   C29   A    
C26   O5    D    
H9    O2    S    
C17   C18   A    
C23   C27   A    
C13   O10   A    
O12   Zn1   S    
C10   H16   S    
C15   C20   S    
C14   O13   A    
C14   C16   S    
C16   C17   A    
C10   C11   S    
C21   H6    S    
C18   C23   A    
C19   C29   A    
C25   H13   S    
C5    H22   S    
C7    C13   S    
C1    C9    S    
O7    Zn2   S    
C25   H14   S    
C13   O11   A    
O11   Zn2   S    
C5    C30   A    
O8    Zn1   S    
H10   O4    S    
C27   C28   A    
C14   O12   A    
C4    O9    A    
C18   C19   A    
C9    H12   S    
C2    C28   A    
C3    C5    A    
H17   N1    S    
C20   H3    S    
C25   C31   S    
C22   O14   D    
C31   C32   A    
O1    Zn1   S    
C11   N2    D    
C6    H2    S    
C8    C9    D    
N2    Zn2   S    
C2    H21   S    
C8    C21   S    
