data_mof_unit_63287.cif
_audit_creation_date              2012-12-10T17:45:22-0500
_audit_creation_method            fapswitch 2.2
_symmetry_space_group_name_H-M    P1
_symmetry_Int_Tables_number       1
_space_group_crystal_system       monoclinic
_cell_length_a                    30.373696
_cell_length_b                    30.373696
_cell_length_c                    55.784347
_cell_angle_alpha                 90.0
_cell_angle_beta                  90.0
_cell_angle_gamma                 90.000012
_cell_volume                      51464.4857518

loop_
_atom_site_label
_atom_site_type_symbol
_atom_type_description
_atom_site_fract_x
_atom_site_fract_y
_atom_site_fract_z
_atom_type_partial_charge
C1    C     C_R   0.500000 0.914879 0.500000 0.789973
C2    C     C_R   0.031353 0.525062 0.610704 -0.033483
C3    C     C_R   0.866545 0.500000 0.500000 -0.023777
C4    C     C_R   1.000000 0.366545 0.000000 -0.023786
C5    C     C_R   0.633455 0.000000 0.000000 -0.023786
C6    C     C_R   0.000000 0.633455 0.000000 -0.023787
C7    C     C_R   0.366545 1.000000 0.000000 -0.023787
C8    C     C_R   0.500000 0.774208 0.500000 0.094462
C9    C     C_R   0.225791 0.500000 0.500000 0.094462
C10   C     C_R   0.500000 0.225791 0.500000 0.094461
C11   C     C_R   0.774209 0.500000 0.500000 0.094461
C12   C     C_R   1.000000 0.274209 0.000000 0.094462
C13   C     C_R   0.474938 0.031353 0.610704 -0.033483
C14   C     C_R   0.725791 0.000000 1.000000 0.094462
C15   C     C_R   0.000000 0.725791 1.000000 0.094462
C16   C     C_R   0.274209 1.000000 0.000000 0.094461
C17   C     C_R   0.513515 0.702666 0.479550 -0.158310
C18   C     C_R   0.297334 0.486486 0.520450 -0.158310
C19   C     C_R   0.513512 0.297334 0.520451 -0.158310
C20   C     C_R   0.702666 0.513503 0.520452 -0.158313
C21   C     C_R   0.486488 0.297334 0.479549 -0.158310
C22   C     C_R   0.297334 0.513514 0.479550 -0.158309
C23   C     C_R   0.486485 0.702666 0.520450 -0.158310
C24   C     C_R   0.968647 0.474938 0.610704 -0.033483
C25   C     C_R   0.702666 0.486497 0.479547 -0.158313
C26   C     C_R   0.013512 0.202666 0.979549 -0.158311
C27   C     C_R   0.797334 0.986487 0.020451 -0.158311
C28   C     C_R   0.986487 0.797334 0.979549 -0.158311
C29   C     C_R   0.202666 0.986487 0.979549 -0.158311
C30   C     C_R   0.013513 0.797334 0.020451 -0.158310
C31   C     C_R   0.797334 0.013513 0.979549 -0.158309
C32   C     C_R   0.986487 0.202666 0.020451 -0.158311
C33   C     C_R   0.202666 0.013513 0.020451 -0.158311
C34   C     C_R   0.500000 0.000000 0.546224 0.807503
C35   C     C_R   0.525062 0.031353 0.389296 -0.033483
C36   C     C_R   1.000000 0.500000 0.546224 0.807502
C37   C     C_R   0.500000 1.000000 0.453776 0.807504
C38   C     C_R   0.000000 0.500000 0.453776 0.807502
C39   C     C_R   1.000000 0.500000 0.046224 0.807503
C40   C     C_R   0.500000 0.000000 0.046224 0.807503
C41   C     C_R   0.000000 0.500000 0.953776 0.807504
C42   C     C_R   0.500000 1.000000 0.953776 0.807504
C43   C     C_R   0.513179 0.656786 0.479477 -0.176136
C44   C     C_R   0.343214 0.486822 0.520524 -0.176138
C45   C     C_R   0.513177 0.343214 0.520524 -0.176137
C46   C     C_R   0.031352 0.474937 0.389296 -0.033484
C47   C     C_R   0.656786 0.513167 0.520526 -0.176136
C48   C     C_R   0.486823 0.343214 0.479476 -0.176136
C49   C     C_R   0.343214 0.513178 0.479476 -0.176138
C50   C     C_R   0.486821 0.656786 0.520523 -0.176136
C51   C     C_R   0.656786 0.486833 0.479474 -0.176136
C52   C     C_R   0.013177 0.156786 0.979476 -0.176137
C53   C     C_R   0.843214 0.986823 0.020524 -0.176137
C54   C     C_R   0.986823 0.843214 0.979476 -0.176136
C55   C     C_R   0.156786 0.986823 0.979476 -0.176137
C56   C     C_R   0.013177 0.843214 0.020524 -0.176137
C57   C     C_R   0.474938 0.968646 0.389296 -0.033483
C58   C     C_R   0.843214 0.013177 0.979476 -0.176136
C59   C     C_R   0.986823 0.156786 0.020524 -0.176138
C60   C     C_R   0.156786 0.013177 0.020524 -0.176138
C61   C     C_R   0.500000 0.633505 0.500000 -0.034320
C62   C     C_R   0.366494 0.500000 0.500000 -0.034320
C63   C     C_R   0.500000 0.366494 0.500000 -0.034321
C64   C     C_R   0.633506 0.500000 0.500000 -0.034326
C65   C     C_R   1.000000 0.133506 0.000000 -0.034321
C66   C     C_R   0.866494 1.000000 0.000000 -0.034321
C67   C     C_R   0.000000 0.866494 0.000000 -0.034321
C68   C     C_R   0.968647 0.525063 0.389296 -0.033483
C69   C     C_R   0.133506 1.000000 0.000000 -0.034321
C70   C     C_R   0.500000 0.725846 0.500000 0.097189
C71   C     C_R   0.274154 0.500000 0.500000 0.097188
C72   C     C_R   0.500000 0.274153 0.500000 0.097188
C73   C     C_R   0.725847 0.500000 0.500000 0.097191
C74   C     C_R   1.000000 0.225846 0.000000 0.097189
C75   C     C_R   0.774154 0.000000 0.000000 0.097188
C76   C     C_R   0.000000 0.774154 1.000000 0.097189
C77   C     C_R   0.225846 1.000000 0.000000 0.097189
C78   C     C_R   0.470633 0.971853 0.737248 0.042580
C79   C     C_R   0.025062 0.468647 0.110704 -0.033483
C80   C     C_R   0.028146 0.470633 0.737248 0.042580
C81   C     C_R   0.529367 0.028146 0.737248 0.042580
C82   C     C_R   0.971854 0.529367 0.737248 0.042580
C83   C     C_R   0.470632 0.028146 0.262752 0.042580
C84   C     C_R   0.028146 0.529367 0.262752 0.042580
C85   C     C_R   0.529368 0.971854 0.262752 0.042580
C86   C     C_R   0.971854 0.470633 0.262752 0.042580
C87   C     C_R   0.970632 0.471854 0.237248 0.042580
C88   C     C_R   0.528146 0.970633 0.237248 0.042580
C89   C     C_R   0.029368 0.528145 0.237248 0.042581
C90   C     C_R   0.531353 0.025062 0.110704 -0.033483
C91   C     C_R   0.471854 0.029367 0.237248 0.042580
C92   C     C_R   0.970633 0.528146 0.762752 0.042580
C93   C     C_R   0.528145 0.029368 0.762752 0.042580
C94   C     C_R   0.029367 0.471854 0.762752 0.042580
C95   C     C_R   0.471855 0.970632 0.762752 0.042580
C96   C     C_R   0.500000 1.000000 0.724643 0.071814
C97   C     C_R   1.000000 0.500000 0.724643 0.071814
C98   C     C_R   0.500000 1.000000 0.275357 0.071814
C99   C     C_R   0.000000 0.500000 0.275357 0.071814
C100  C     C_R   1.000000 0.500000 0.224643 0.071813
C101  C     C_R   0.974938 0.531353 0.110704 -0.033483
C102  C     C_R   0.500000 0.000000 0.224643 0.071814
C103  C     C_R   1.000000 0.500000 0.775357 0.071814
C104  C     C_R   0.500000 1.000000 0.775357 0.071814
C105  C     C_R   0.440735 0.946017 0.723766 -0.195958
C106  C     C_R   0.053982 0.440734 0.723766 -0.195958
C107  C     C_R   0.559265 0.053983 0.723766 -0.195957
C108  C     C_R   0.946018 0.559266 0.723766 -0.195958
C109  C     C_R   0.440733 0.053981 0.276234 -0.195959
C110  C     C_R   0.053983 0.559265 0.276234 -0.195958
C111  C     C_R   0.559267 0.946019 0.276234 -0.195958
C112  C     C_R   0.085121 0.500000 0.500000 0.789971
C113  C     C_R   0.468647 0.974938 0.110704 -0.033483
C114  C     C_R   0.946017 0.440734 0.276234 -0.195958
C115  C     C_R   0.940733 0.446019 0.223766 -0.195957
C116  C     C_R   0.553982 0.940734 0.223766 -0.195958
C117  C     C_R   0.059267 0.553981 0.223766 -0.195958
C118  C     C_R   0.446018 0.059266 0.223766 -0.195958
C119  C     C_R   0.940734 0.553982 0.776234 -0.195958
C120  C     C_R   0.553981 0.059267 0.776234 -0.195957
C121  C     C_R   0.059266 0.446018 0.776234 -0.195957
C122  C     C_R   0.446019 0.940733 0.776234 -0.195958
C123  C     C_R   0.440704 0.946712 0.698859 -0.135725
C124  C     C_R   0.025062 0.531353 0.889296 -0.033483
C125  C     C_R   0.053287 0.440704 0.698859 -0.135725
C126  C     C_R   0.559296 0.053287 0.698859 -0.135725
C127  C     C_R   0.946713 0.559297 0.698859 -0.135725
C128  C     C_R   0.440703 0.053286 0.301141 -0.135724
C129  C     C_R   0.053287 0.559296 0.301141 -0.135725
C130  C     C_R   0.559297 0.946714 0.301141 -0.135725
C131  C     C_R   0.946713 0.440704 0.301141 -0.135725
C132  C     C_R   0.940703 0.446714 0.198859 -0.135725
C133  C     C_R   0.553287 0.940704 0.198859 -0.135725
C134  C     C_R   0.059297 0.553285 0.198859 -0.135725
C135  C     C_R   0.531353 0.974938 0.889296 -0.033483
C136  C     C_R   0.446713 0.059296 0.198859 -0.135725
C137  C     C_R   0.940703 0.553286 0.801141 -0.135725
C138  C     C_R   0.553285 0.059298 0.801141 -0.135725
C139  C     C_R   0.059297 0.446714 0.801141 -0.135725
C140  C     C_R   0.446715 0.940702 0.801141 -0.135725
C141  C     C_R   0.470314 0.973236 0.686311 -0.021846
C142  C     C_R   0.026763 0.470314 0.686311 -0.021846
C143  C     C_R   0.529686 0.026764 0.686311 -0.021846
C144  C     C_R   0.973237 0.529686 0.686311 -0.021846
C145  C     C_R   0.470313 0.026763 0.313689 -0.021846
C146  C     C_R   0.974938 0.468647 0.889296 -0.033483
C147  C     C_R   0.026764 0.529686 0.313689 -0.021846
C148  C     C_R   0.529687 0.973237 0.313689 -0.021846
C149  C     C_R   0.973236 0.470314 0.313689 -0.021846
C150  C     C_R   0.970313 0.473237 0.186311 -0.021846
C151  C     C_R   0.526763 0.970314 0.186311 -0.021846
C152  C     C_R   0.029687 0.526763 0.186311 -0.021847
C153  C     C_R   0.473237 0.029686 0.186311 -0.021846
C154  C     C_R   0.970313 0.526763 0.813689 -0.021846
C155  C     C_R   0.526763 0.029687 0.813689 -0.021846
C156  C     C_R   0.029687 0.473237 0.813689 -0.021846
C157  C     C_R   0.468647 0.025062 0.889296 -0.033483
C158  C     C_R   0.473237 0.970313 0.813689 -0.021846
C159  C     C_R   0.500000 1.000000 0.699112 -0.040979
C160  C     C_R   1.000000 0.500000 0.699112 -0.040979
C161  C     C_R   0.500000 0.000000 0.300888 -0.040979
C162  C     C_R   0.000000 0.500000 0.300888 -0.040980
C163  C     C_R   1.000000 0.500000 0.199112 -0.040979
C164  C     C_R   0.500000 0.000000 0.199112 -0.040980
C165  C     C_R   0.000000 0.500000 0.800888 -0.040979
C166  C     C_R   0.500000 1.000000 0.800888 -0.040979
C167  C     C_R   0.470779 0.973816 0.661117 0.554840
C168  C     C_R   0.525062 0.968465 0.585461 -0.111619
C169  C     C_R   0.026183 0.470779 0.661117 0.554841
C170  C     C_R   0.529221 0.026184 0.661117 0.554840
C171  C     C_R   0.973817 0.529221 0.661117 0.554840
C172  C     C_R   0.470778 0.026183 0.338883 0.554841
C173  C     C_R   0.026184 0.529221 0.338883 0.554840
C174  C     C_R   0.529222 0.973817 0.338883 0.554841
C175  C     C_R   0.973816 0.470779 0.338883 0.554840
C176  C     C_R   0.970778 0.473817 0.161117 0.554840
C177  C     C_R   0.526183 0.970779 0.161117 0.554840
C178  C     C_R   0.029222 0.526183 0.161117 0.554840
C179  C     C_R   0.031535 0.525062 0.585461 -0.111619
C180  C     C_R   0.473817 0.029221 0.161117 0.554841
C181  C     C_R   0.970778 0.526183 0.838883 0.554841
C182  C     C_R   0.526183 0.029222 0.838883 0.554840
C183  C     C_R   0.029222 0.473817 0.838883 0.554841
C184  C     C_R   0.473817 0.970778 0.838883 0.554840
C185  C     C_1   0.550642 0.936618 0.623982 0.295622
C186  C     C_1   0.063382 0.550641 0.623982 0.295622
C187  C     C_1   0.449358 0.063382 0.623982 0.295623
C188  C     C_1   0.936618 0.449359 0.623982 0.295622
C189  C     C_1   0.550640 0.063383 0.376018 0.295622
C190  C     C_R   0.474938 0.031534 0.585461 -0.111619
C191  C     C_1   0.063381 0.449357 0.376018 0.295621
C192  C     C_1   0.449359 0.936617 0.376018 0.295622
C193  C     C_1   0.936619 0.550643 0.376018 0.295622
C194  C     C_1   0.050641 0.436617 0.123982 0.295622
C195  C     C_1   0.563382 0.050642 0.123982 0.295622
C196  C     C_1   0.949359 0.563383 0.123982 0.295622
C197  C     C_1   0.436618 0.949358 0.123982 0.295622
C198  C     C_1   0.050641 0.563383 0.876018 0.295622
C199  C     C_1   0.563383 0.949359 0.876018 0.295622
C200  C     C_1   0.949359 0.436617 0.876018 0.295622
C201  C     C_R   0.968465 0.474938 0.585461 -0.111619
C202  C     C_1   0.436617 0.050640 0.876018 0.295622
C203  C     C_1   0.549665 0.934942 0.572652 0.274596
C204  C     C_1   0.065058 0.549665 0.572652 0.274595
C205  C     C_1   0.450335 0.065058 0.572652 0.274596
C206  C     C_1   0.934942 0.450335 0.572652 0.274594
C207  C     C_1   0.549664 0.065059 0.427348 0.274596
C208  C     C_1   0.065057 0.450334 0.427348 0.274598
C209  C     C_1   0.450336 0.934941 0.427348 0.274597
C210  C     C_1   0.934943 0.549666 0.427348 0.274596
C211  C     C_1   0.049664 0.434942 0.072652 0.274596
C212  C     C_R   0.525062 0.031535 0.414539 -0.111619
C213  C     C_1   0.565058 0.049665 0.072652 0.274596
C214  C     C_1   0.950336 0.565058 0.072652 0.274595
C215  C     C_1   0.434942 0.950335 0.072652 0.274596
C216  C     C_1   0.049664 0.565058 0.927348 0.274596
C217  C     C_1   0.565058 0.950336 0.927348 0.274596
C218  C     C_1   0.950336 0.434942 0.927348 0.274595
C219  C     C_1   0.434941 0.049664 0.927348 0.274596
C220  C     C_R   0.500000 0.085121 0.500000 0.789971
C221  C     C_R   0.031534 0.474937 0.414539 -0.111619
C222  C     C_R   0.474938 0.968465 0.414539 -0.111618
C223  C     C_R   0.968466 0.525063 0.414539 -0.111619
C224  C     C_R   0.025062 0.468465 0.085461 -0.111619
C225  C     C_R   0.531534 0.025063 0.085461 -0.111619
C226  C     C_R   0.974938 0.531535 0.085461 -0.111619
C227  C     C_R   0.468465 0.974937 0.085461 -0.111619
C228  C     C_R   0.025062 0.531535 0.914539 -0.111619
C229  C     C_R   0.531535 0.974938 0.914539 -0.111619
C230  C     C_R   0.974938 0.468465 0.914539 -0.111619
C231  C     C_R   0.914879 0.500000 0.500000 0.789968
C232  C     C_R   0.468465 0.025062 0.914539 -0.111619
C233  C     C_R   0.500000 1.000000 0.572737 -0.132779
C234  C     C_R   1.000000 0.500000 0.572737 -0.132779
C235  C     C_R   0.500000 0.000000 0.427263 -0.132779
C236  C     C_R   0.000000 0.500000 0.427263 -0.132780
C237  C     C_R   1.000000 0.500000 0.072737 -0.132779
C238  C     C_R   0.500000 0.000000 0.072737 -0.132779
C239  C     C_R   1.000000 0.500000 0.927263 -0.132779
C240  C     C_R   0.500000 1.000000 0.927263 -0.132779
C241  C     C_R   0.414836 0.500000 0.500000 0.790725
C242  C     C_R   0.000000 0.414879 0.000000 0.789971
C243  C     C_R   0.500000 0.414836 0.500000 0.790727
C244  C     C_R   0.585164 0.500000 0.500000 0.790727
C245  C     C_R   0.500000 0.585164 0.500000 0.790725
C246  C     C_R   0.914836 0.000000 0.000000 0.790725
C247  C     C_R   1.000000 0.914836 0.000000 0.790725
C248  C     C_R   0.085164 1.000000 0.000000 0.790724
C249  C     C_R   0.000000 0.085164 0.000000 0.790724
C250  C     C_R   0.500000 1.000000 0.623273 0.253188
C251  C     C_R   1.000000 0.500000 0.623273 0.253187
C252  C     C_R   0.500000 0.000000 0.376727 0.253187
C253  C     C_R   0.585121 0.000000 0.000000 0.789971
C254  C     C_R   1.000000 0.500000 0.376727 0.253189
C255  C     C_R   1.000000 0.500000 0.123273 0.253188
C256  C     C_R   0.500000 0.000000 0.123273 0.253188
C257  C     C_R   1.000000 0.500000 0.876727 0.253187
C258  C     C_R   0.500000 1.000000 0.876727 0.253188
C259  C     C_R   0.462350 0.797388 0.507218 -0.156237
C260  C     C_R   0.202611 0.537650 0.492781 -0.156238
C261  C     C_R   0.462351 0.202611 0.492781 -0.156237
C262  C     C_R   0.797389 0.462354 0.492775 -0.156234
C263  C     C_R   0.537649 0.202611 0.507219 -0.156237
C264  C     C_R   0.000000 0.585121 0.000000 0.789971
C265  C     C_R   0.202611 0.462350 0.507219 -0.156238
C266  C     C_R   0.537650 0.797388 0.492782 -0.156237
C267  C     C_R   0.797389 0.537645 0.507225 -0.156235
C268  C     C_R   0.962351 0.297389 0.007219 -0.156238
C269  C     C_R   0.702611 0.037649 0.992781 -0.156238
C270  C     C_R   0.037649 0.702611 0.007219 -0.156237
C271  C     C_R   0.297389 0.037649 0.007219 -0.156237
C272  C     C_R   0.962351 0.702611 0.992781 -0.156237
C273  C     C_R   0.702611 0.962351 0.007219 -0.156236
C274  C     C_R   0.037649 0.297389 0.992781 -0.156237
C275  C     C_R   0.414879 1.000000 0.000000 0.789972
C276  C     C_R   0.297389 0.962350 0.992781 -0.156237
C277  C     C_R   0.462218 0.843266 0.507035 -0.158506
C278  C     C_R   0.156734 0.537781 0.492964 -0.158507
C279  C     C_R   0.462219 0.156734 0.492964 -0.158506
C280  C     C_R   0.843266 0.462223 0.492958 -0.158509
C281  C     C_R   0.537781 0.156734 0.507036 -0.158507
C282  C     C_R   0.156734 0.462219 0.507036 -0.158507
C283  C     C_R   0.537782 0.843266 0.492965 -0.158505
C284  C     C_R   0.843266 0.537777 0.507042 -0.158510
C285  C     C_R   0.962219 0.343266 0.007037 -0.158506
C286  C     C_R   0.525062 0.968647 0.610704 -0.033483
C287  C     C_R   0.656734 0.037781 0.992963 -0.158506
C288  C     C_R   0.037781 0.656734 0.007036 -0.158506
C289  C     C_R   0.343266 0.037781 0.007036 -0.158507
C290  C     C_R   0.962219 0.656734 0.992964 -0.158507
C291  C     C_R   0.656734 0.962219 0.007037 -0.158507
C292  C     C_R   0.037781 0.343266 0.992963 -0.158506
C293  C     C_R   0.343266 0.962219 0.992964 -0.158506
C294  C     C_R   0.500000 0.866545 0.500000 -0.023789
C295  C     C_R   0.133455 0.500000 0.500000 -0.023788
C296  C     C_R   0.500000 0.133455 0.500000 -0.023787
Cu1   Cu    Cu3+1 0.544040 0.000000 0.500000 1.002344
Cu2   Cu    Cu3+1 0.500000 0.500000 0.476100 0.959722
Cu3   Cu    Cu3+1 0.000000 0.000000 0.023900 0.959722
Cu4   Cu    Cu3+1 0.000000 0.000000 0.976100 0.959723
Cu5   Cu    Cu3+1 0.000000 0.544040 0.500000 1.002346
Cu6   Cu    Cu3+1 0.455960 0.000000 0.500000 1.002344
Cu7   Cu    Cu3+1 1.000000 0.455960 0.500000 1.002346
Cu8   Cu    Cu3+1 0.044040 0.500000 0.000000 1.002344
Cu9   Cu    Cu3+1 0.500000 0.044040 0.000000 1.002344
Cu10  Cu    Cu3+1 0.955960 0.500000 0.000000 1.002345
Cu11  Cu    Cu3+1 0.500000 0.955960 0.000000 1.002345
Cu12  Cu    Cu3+1 0.500000 0.500000 0.523900 0.959721
H1    H     H_    0.416179 0.925257 0.731861 0.143117
H2    H     H_    0.574741 0.916178 0.231861 0.143116
H3    H     H_    0.083824 0.574740 0.231861 0.143116
H4    H     H_    0.425258 0.083822 0.231861 0.143116
H5    H     H_    0.916177 0.574740 0.768139 0.143116
H6    H     H_    0.574739 0.083824 0.768139 0.143116
H7    H     H_    0.083823 0.425260 0.768139 0.143116
H8    H     H_    0.425261 0.916176 0.768139 0.143116
H9    H     H_    0.417160 0.926231 0.689449 0.188974
H10   H     H_    0.073768 0.417158 0.689449 0.188974
H11   H     H_    0.582840 0.073769 0.689449 0.188974
H12   H     H_    0.074741 0.416177 0.731861 0.143116
H13   H     H_    0.926232 0.582842 0.689449 0.188974
H14   H     H_    0.417157 0.073767 0.310551 0.188974
H15   H     H_    0.073769 0.582841 0.310551 0.188974
H16   H     H_    0.582843 0.926233 0.310551 0.188974
H17   H     H_    0.926231 0.417159 0.310551 0.188974
H18   H     H_    0.917157 0.426233 0.189449 0.188974
H19   H     H_    0.573768 0.917159 0.189449 0.188974
H20   H     H_    0.082843 0.573766 0.189449 0.188974
H21   H     H_    0.426232 0.082841 0.189449 0.188974
H22   H     H_    0.917158 0.573767 0.810551 0.188974
H23   H     H_    0.583821 0.074742 0.731861 0.143116
H24   H     H_    0.573766 0.082843 0.810551 0.188974
H25   H     H_    0.082842 0.426233 0.810551 0.188974
H26   H     H_    0.426234 0.917157 0.810551 0.188974
H27   H     H_    0.432919 0.779951 0.512711 0.137592
H28   H     H_    0.220049 0.567080 0.487288 0.137592
H29   H     H_    0.432921 0.220048 0.487287 0.137592
H30   H     H_    0.779952 0.432928 0.487276 0.137592
H31   H     H_    0.567079 0.220048 0.512713 0.137593
H32   H     H_    0.220049 0.432920 0.512712 0.137593
H33   H     H_    0.567080 0.779951 0.487289 0.137593
H34   H     H_    0.925259 0.583822 0.731861 0.143117
H35   H     H_    0.779952 0.567072 0.512724 0.137592
H36   H     H_    0.932921 0.279951 0.012714 0.137592
H37   H     H_    0.720048 0.067079 0.987287 0.137592
H38   H     H_    0.067079 0.720048 0.012713 0.137592
H39   H     H_    0.279951 0.067079 0.012713 0.137592
H40   H     H_    0.932921 0.720048 0.987287 0.137592
H41   H     H_    0.720048 0.932921 0.012713 0.137592
H42   H     H_    0.067079 0.279951 0.987286 0.137592
H43   H     H_    0.279951 0.932920 0.987287 0.137592
H44   H     H_    0.432728 0.860496 0.512612 0.158107
H45   H     H_    0.416176 0.074740 0.268139 0.143117
H46   H     H_    0.139504 0.567271 0.487387 0.158107
H47   H     H_    0.432730 0.139504 0.487386 0.158106
H48   H     H_    0.860497 0.432737 0.487375 0.158099
H49   H     H_    0.567270 0.139504 0.512614 0.158106
H50   H     H_    0.139504 0.432729 0.512613 0.158107
H51   H     H_    0.567272 0.860496 0.487388 0.158107
H52   H     H_    0.860497 0.567263 0.512625 0.158099
H53   H     H_    0.932730 0.360496 0.012615 0.158106
H54   H     H_    0.639504 0.067270 0.987386 0.158106
H55   H     H_    0.067270 0.639504 0.012614 0.158106
H56   H     H_    0.074742 0.583822 0.268139 0.143116
H57   H     H_    0.360496 0.067270 0.012614 0.158106
H58   H     H_    0.932730 0.639504 0.987386 0.158106
H59   H     H_    0.639504 0.932730 0.012614 0.158106
H60   H     H_    0.067270 0.360496 0.987385 0.158105
H61   H     H_    0.360496 0.932729 0.987386 0.158106
H62   H     H_    0.523806 0.720104 0.463564 0.138898
H63   H     H_    0.279896 0.476196 0.536437 0.138897
H64   H     H_    0.523802 0.279896 0.536437 0.138898
H65   H     H_    0.720104 0.523784 0.536440 0.138898
H66   H     H_    0.476198 0.279896 0.463563 0.138898
H67   H     H_    0.583823 0.925260 0.268139 0.143116
H68   H     H_    0.279896 0.523804 0.463563 0.138897
H69   H     H_    0.476193 0.720104 0.536436 0.138897
H70   H     H_    0.720104 0.476215 0.463560 0.138898
H71   H     H_    0.023802 0.220104 0.963563 0.138898
H72   H     H_    0.779896 0.976198 0.036437 0.138898
H73   H     H_    0.976197 0.779896 0.963563 0.138897
H74   H     H_    0.220104 0.976197 0.963563 0.138898
H75   H     H_    0.023803 0.779896 0.036437 0.138897
H76   H     H_    0.779896 0.023802 0.963563 0.138897
H77   H     H_    0.976198 0.220104 0.036437 0.138898
H78   H     H_    0.925258 0.416178 0.268139 0.143116
H79   H     H_    0.220104 0.023803 0.036437 0.138898
H80   H     H_    0.523626 0.639551 0.463460 0.155457
H81   H     H_    0.360449 0.476376 0.536540 0.155458
H82   H     H_    0.523621 0.360449 0.536541 0.155458
H83   H     H_    0.639551 0.523604 0.536544 0.155463
H84   H     H_    0.476379 0.360449 0.463459 0.155459
H85   H     H_    0.360449 0.523624 0.463460 0.155459
H86   H     H_    0.476374 0.639551 0.536540 0.155457
H87   H     H_    0.639551 0.476395 0.463456 0.155463
H88   H     H_    0.023622 0.139551 0.963459 0.155459
H89   H     H_    0.916176 0.425260 0.231861 0.143116
H90   H     H_    0.860449 0.976378 0.036541 0.155459
H91   H     H_    0.976377 0.860449 0.963459 0.155459
H92   H     H_    0.139551 0.976377 0.963460 0.155459
H93   H     H_    0.023623 0.860449 0.036541 0.155458
H94   H     H_    0.860449 0.023622 0.963459 0.155458
H95   H     H_    0.976378 0.139551 0.036541 0.155459
H96   H     H_    0.139551 0.023623 0.036540 0.155459
N1    N     N_R   0.500000 1.000000 0.649098 -0.462533
N2    N     N_1   0.088944 0.571053 0.634618 -0.254007
N3    N     N_1   0.428947 0.088943 0.634618 -0.254007
N4    N     N_1   0.911056 0.428947 0.634618 -0.254007
N5    N     N_1   0.571051 0.088944 0.365382 -0.254007
N6    N     N_1   0.088942 0.428945 0.365382 -0.254006
N7    N     N_1   0.428948 0.911055 0.365382 -0.254007
N8    N     N_1   0.911059 0.571055 0.365382 -0.254007
N9    N     N_1   0.071052 0.411056 0.134618 -0.254007
N10   N     N_1   0.588943 0.071053 0.134618 -0.254007
N11   N     N_1   0.928948 0.588944 0.134618 -0.254007
N12   N     N_R   1.000000 0.500000 0.649098 -0.462534
N13   N     N_1   0.411057 0.928947 0.134618 -0.254007
N14   N     N_1   0.071052 0.588944 0.865382 -0.254007
N15   N     N_1   0.588944 0.928948 0.865382 -0.254007
N16   N     N_1   0.928948 0.411056 0.865382 -0.254007
N17   N     N_1   0.411055 0.071051 0.865382 -0.254007
N18   N     N_1   0.569236 0.908184 0.562422 -0.259603
N19   N     N_1   0.091816 0.569236 0.562422 -0.259603
N20   N     N_1   0.430764 0.091816 0.562422 -0.259603
N21   N     N_1   0.908183 0.430764 0.562422 -0.259599
N22   N     N_1   0.569235 0.091817 0.437578 -0.259603
N23   N     N_R   0.500000 0.000000 0.350902 -0.462534
N24   N     N_1   0.091815 0.430762 0.437578 -0.259603
N25   N     N_1   0.430765 0.908183 0.437578 -0.259604
N26   N     N_1   0.908185 0.569238 0.437578 -0.259599
N27   N     N_1   0.069235 0.408183 0.062422 -0.259603
N28   N     N_1   0.591816 0.069236 0.062422 -0.259603
N29   N     N_1   0.930765 0.591817 0.062422 -0.259603
N30   N     N_1   0.408184 0.930763 0.062422 -0.259603
N31   N     N_1   0.069236 0.591817 0.937578 -0.259603
N32   N     N_1   0.591817 0.930765 0.937578 -0.259603
N33   N     N_1   0.930764 0.408183 0.937578 -0.259602
N34   N     N_R   0.000000 0.500000 0.350902 -0.462534
N35   N     N_1   0.408183 0.069235 0.937578 -0.259603
N36   N     N_R   1.000000 0.500000 0.149098 -0.462534
N37   N     N_R   0.500000 0.000000 0.149098 -0.462533
N38   N     N_R   1.000000 0.500000 0.850902 -0.462534
N39   N     N_R   0.500000 1.000000 0.850902 -0.462534
N40   N     N_1   0.571053 0.911057 0.634618 -0.254007
O1    O     O_R   0.537190 0.935730 0.500010 -0.582058
O2    O     O_R   0.564270 0.037190 0.000010 -0.582058
O3    O     O_R   0.962810 0.564270 0.000010 -0.582057
O4    O     O_R   0.435730 0.962810 0.000010 -0.582057
O5    O     O_R   0.037190 0.564270 0.999990 -0.582058
O6    O     O_R   0.564270 0.962810 0.999990 -0.582057
O7    O     O_R   0.962810 0.435730 0.999990 -0.582057
O8    O     O_R   0.435730 0.037190 0.999990 -0.582058
O9    O     O_R   0.537190 0.999980 0.534870 -0.573841
O10   O     O_R   0.000020 0.537190 0.534870 -0.573841
O11   O     O_R   0.462810 0.000020 0.534870 -0.573840
O12   O     O_R   0.064270 0.537190 0.500010 -0.582058
O13   O     O_R   0.999980 0.462810 0.534870 -0.573839
O14   O     O_R   0.537190 0.000020 0.465130 -0.573840
O15   O     O_R   0.000020 0.462810 0.465130 -0.573841
O16   O     O_R   0.462810 0.999980 0.465130 -0.573840
O17   O     O_R   0.999980 0.537190 0.465130 -0.573839
O18   O     O_R   0.037190 0.499980 0.034870 -0.573840
O19   O     O_R   0.500020 0.037190 0.034870 -0.573840
O20   O     O_R   0.962810 0.500020 0.034870 -0.573840
O21   O     O_R   0.499980 0.962810 0.034870 -0.573840
O22   O     O_R   0.037190 0.500020 0.965130 -0.573840
O23   O     O_R   0.462810 0.064270 0.500010 -0.582057
O24   O     O_R   0.500020 0.962810 0.965130 -0.573840
O25   O     O_R   0.962810 0.499980 0.965130 -0.573840
O26   O     O_R   0.499980 0.037190 0.965130 -0.573840
O27   O     O_R   0.435730 0.499970 0.520190 -0.586059
O28   O     O_R   0.500030 0.435730 0.520190 -0.586060
O29   O     O_R   0.564270 0.500030 0.520190 -0.586061
O30   O     O_R   0.499970 0.564270 0.520190 -0.586058
O31   O     O_R   0.435730 0.500030 0.479810 -0.586057
O32   O     O_R   0.500030 0.564270 0.479810 -0.586058
O33   O     O_R   0.564270 0.499970 0.479810 -0.586060
O34   O     O_R   0.935730 0.462810 0.500010 -0.582054
O35   O     O_R   0.499970 0.435730 0.479810 -0.586057
O36   O     O_R   0.935730 0.999970 0.020190 -0.586059
O37   O     O_R   0.000030 0.935730 0.020190 -0.586059
O38   O     O_R   0.064270 0.000030 0.020190 -0.586059
O39   O     O_R   0.999970 0.064270 0.020190 -0.586059
O40   O     O_R   0.935730 0.000030 0.979810 -0.586058
O41   O     O_R   0.000030 0.064270 0.979810 -0.586058
O42   O     O_R   0.064270 0.999970 0.979810 -0.586058
O43   O     O_R   0.999970 0.935730 0.979810 -0.586058
O44   O     O_2   0.442311 0.948441 0.648705 -0.532724
O45   O     O_R   0.537190 0.064270 0.499990 -0.582058
O46   O     O_2   0.051559 0.442310 0.648705 -0.532725
O47   O     O_2   0.557689 0.051559 0.648705 -0.532725
O48   O     O_2   0.948442 0.557690 0.648705 -0.532725
O49   O     O_2   0.442310 0.051558 0.351295 -0.532725
O50   O     O_2   0.051559 0.557689 0.351295 -0.532724
O51   O     O_2   0.557690 0.948442 0.351295 -0.532725
O52   O     O_2   0.948441 0.442311 0.351295 -0.532725
O53   O     O_2   0.942310 0.448442 0.148705 -0.532725
O54   O     O_2   0.551559 0.942311 0.148705 -0.532725
O55   O     O_2   0.057690 0.551558 0.148705 -0.532725
O56   O     O_R   0.064270 0.462810 0.499990 -0.582058
O57   O     O_2   0.448441 0.057689 0.148705 -0.532725
O58   O     O_2   0.942310 0.551558 0.851295 -0.532725
O59   O     O_2   0.551557 0.057691 0.851295 -0.532724
O60   O     O_2   0.057690 0.448442 0.851295 -0.532725
O61   O     O_2   0.448443 0.942309 0.851295 -0.532725
O62   O     O_R   0.462810 0.935730 0.499990 -0.582058
O63   O     O_R   0.935730 0.537190 0.499990 -0.582055
O64   O     O_R   0.037190 0.435730 0.000010 -0.582058

loop_
_geom_bond_atom_site_label_1
_geom_bond_atom_site_label_2
_ccdc_geom_bond_type
C279  H47   S    
C253  O2    A    
C262  H30   S    
C132  C150  A    
C133  C151  A    
C219  C232  S    
C39   O20   A    
C81   C107  A    
C7    C293  A    
C155  C182  A    
C177  N37   A    
C79   C224  A    
C150  C163  A    
C79   C194  S    
C1    C294  S    
C41   O22   A    
Cu4   O43   S    
C118  H4    S    
C281  C296  A    
C135  C199  S    
C268  C285  A    
C128  C145  A    
C283  C294  A    
C126  C143  A    
Cu12  O28   S    
C105  C123  A    
C47   H83   S    
C217  N32   T    
C112  O12   A    
Cu11  O24   S    
C48   H84   S    
C214  N29   T    
C90   C195  S    
Cu9   O19   S    
C78   C96   A    
C292  H60   S    
Cu1   Cu6   S    
C68   C193  S    
C93   C120  A    
C144  C160  A    
C169  N12   A    
C87   C115  A    
C184  N39   A    
C106  H12   S    
C182  N39   A    
C21   C48   A    
C153  C180  A    
C245  O30   A    
C209  C222  S    
C27   C75   A    
C5    C291  A    
C52   H88   S    
C37   O16   A    
C241  O31   A    
C130  H16   S    
C24   C251  A    
C241  O27   A    
C21   C72   A    
C186  N2    T    
C20   H65   S    
C57   C192  S    
Cu2   O31   S    
C47   C64   A    
C42   C240  S    
C48   C63   A    
C116  C133  A    
C139  H25   S    
C30   C56   A    
C148  C174  A    
C149  C175  A    
C120  H6    S    
C17   C43   A    
C125  H10   S    
C38   O17   A    
C18   C44   A    
C99   C162  A    
C30   C76   A    
C167  N1    A    
C111  C130  A    
C123  C141  A    
C250  C286  A    
C91   C118  A    
C167  O44   S    
C23   H69   S    
C86   C99   A    
Cu4   O40   S    
C45   H82   S    
C253  O6    A    
C22   C49   A    
C95   C122  A    
C43   H80   S    
Cu7   O34   S    
Cu8   O22   S    
C124  C257  A    
C272  H40   S    
C203  N18   T    
C221  C236  A    
C287  H54   S    
C131  C149  A    
C120  C138  A    
C39   O18   A    
C16   C271  A    
C118  C136  A    
C43   C61   A    
C66   C246  S    
C18   C71   A    
C90   C256  A    
C135  C258  A    
Cu5   O17   S    
C49   C62   A    
C269  H37   S    
C112  C295  S    
C34   O11   A    
C92   C119  A    
C194  N9    T    
C51   C64   A    
C147  C162  A    
C88   C102  A    
C27   C53   A    
C277  H44   S    
C219  N35   T    
C83   C91   A    
C25   H70   S    
Cu12  O30   S    
C4    C285  A    
C172  O49   S    
C33   H79   S    
C40   O19   A    
C2    C251  A    
C136  C153  A    
C192  N7    T    
C281  H49   S    
C201  C234  A    
C199  N15   T    
C267  C284  A    
C243  O35   A    
C35   C252  A    
C197  N13   T    
C20   C73   A    
C100  C163  A    
C231  O34   A    
C146  C200  S    
C282  C295  A    
C129  C147  A    
C20   C47   A    
C265  H32   S    
C245  O32   A    
C9    C260  A    
Cu8   O18   S    
C1    O62   A    
C6    C264  S    
C149  C162  A    
C273  C291  A    
C32   C59   A    
C274  C292  A    
C271  C289  A    
C52   C65   A    
C6    C290  A    
C51   H87   S    
C168  C233  A    
C21   H66   S    
C42   O26   A    
C80   C97   A    
C123  H9    S    
C196  N11   T    
C114  H78   S    
C46   C191  S    
C185  C286  S    
C2    C186  S    
Cu6   O11   S    
C14   C269  A    
C257  N38   S    
C10   C263  A    
C144  C171  A    
Cu7   O13   S    
C216  C228  S    
C145  C161  A    
C101  C255  A    
C26   C52   A    
C38   O15   A    
C32   C74   A    
C126  H11   S    
C113  C227  A    
C278  C295  A    
C264  O3    A    
C36   C234  S    
C250  N1    S    
C80   C106  A    
C261  H29   S    
C110  C129  A    
C171  N12   A    
C5    C253  S    
C44   H81   S    
Cu4   O42   S    
Cu6   O62   S    
C40   C238  S    
C105  H1    S    
C67   C247  S    
C141  C159  A    
C206  N21   T    
Cu9   Cu11  S    
C83   C98   A    
C17   H62   S    
C58   H94   S    
C154  C165  A    
C82   C108  A    
C101  C196  S    
C275  O4    A    
C132  H18   S    
C145  C172  A    
C226  C237  A    
C182  O59   S    
C34   O9    A    
C230  C239  A    
C4    C242  S    
Cu3   O39   S    
C37   C235  S    
C115  C132  A    
C24   C201  A    
C254  N34   S    
C180  N37   A    
C208  N24   T    
C247  O37   A    
C216  N31   T    
C3    C231  S    
Cu5   O10   S    
C227  C238  A    
C13   C190  A    
C57   C252  A    
C189  N5    T    
Cu8   O64   S    
C35   C212  A    
C12   C268  A    
C187  N3    T    
C220  C296  S    
C249  O39   A    
C201  C206  S    
C190  C233  A    
C55   C69   A    
C252  N23   S    
C204  N19   T    
C168  C286  A    
C3    C284  A    
C89   C117  A    
C243  O28   A    
C103  C165  A    
C195  N10   T    
C274  H42   S    
C259  C277  A    
C289  H57   S    
C15   C272  A    
Cu2   O33   S    
C39   C237  S    
C291  H59   S    
C62   C241  S    
C87   C100  A    
C85   C88   A    
C109  H45   S    
C220  O23   A    
C244  O29   A    
C173  O50   S    
C143  C170  A    
Cu11  O6    S    
Cu3   O38   S    
C211  N27   T    
C8    C70   S    
Cu1   O1    S    
C121  C139  A    
C177  O54   S    
C122  C140  A    
C29   H74   S    
C59   C65   A    
C205  N20   T    
C33   C77   A    
Cu1   O45   S    
C60   C69   A    
C207  N22   T    
C215  C227  S    
C171  O48   S    
C127  H13   S    
C152  C163  A    
C213  C225  S    
C251  N12   S    
C271  H39   S    
C96   C159  A    
C29   C77   A    
C102  C164  A    
C151  C164  A    
C84   C89   A    
Cu2   Cu12  S    
C50   C61   A    
C185  N40   T    
Cu1   O14   S    
C34   C233  S    
Cu11  O4    S    
Cu2   O35   S    
C116  H2    S    
C10   C72   S    
C138  C155  A    
C263  H31   S    
C117  H3    S    
C266  H33   S    
C278  H46   S    
C12   C74   S    
Cu8   O5    S    
C114  C131  A    
C22   C71   A    
C247  O43   A    
C16   C276  A    
C259  H27   S    
C133  H19   S    
Cu5   O12   S    
C175  N34   A    
C13   C187  S    
C198  N14   T    
C129  H15   S    
C173  N34   A    
C260  H28   S    
Cu2   O32   S    
C38   C236  S    
Cu7   O56   S    
C249  O41   A    
C26   H71   S    
C246  O36   A    
C256  N37   S    
C154  C181  A    
C124  C198  S    
C82   C92   A    
C28   H73   S    
C16   C77   S    
C11   C262  A    
C248  O42   A    
C218  C230  S    
C215  N30   T    
C55   H92   S    
C246  O40   A    
C156  C183  A    
C277  C294  A    
C209  N25   T    
C18   H63   S    
C50   H86   S    
C15   C270  A    
C279  C296  A    
C183  O60   S    
C15   C76   S    
C35   C189  S    
C174  O51   S    
C134  H20   S    
C225  C238  A    
C285  H53   S    
C179  C234  A    
C117  C134  A    
C131  H17   S    
C265  C282  A    
C57   C222  A    
Cu5   Cu7   S    
C276  H43   S    
C222  C235  A    
C141  C167  A    
C268  H36   S    
C89   C100  A    
C97   C160  A    
Cu1   O9    S    
C11   C73   S    
C12   C274  A    
C81   C96   A    
C86   C87   A    
C169  O46   S    
C23   C50   A    
Cu9   O2    S    
C60   H96   S    
C138  H24   S    
Cu12  O27   S    
C178  N36   A    
C101  C226  A    
C5    C287  A    
C140  H26   S    
C6    C288  A    
Cu3   Cu4   S    
C4    C292  A    
C13   C250  A    
C260  C278  A    
Cu10  O7    S    
C284  H52   S    
C190  C205  S    
C31   C75   A    
C106  C125  A    
C78   C95   A    
C231  O63   A    
C19   C45   A    
C264  O5    A    
C22   H68   S    
Cu10  O3    S    
C142  C169  A    
C8    C266  A    
C94   C103  A    
C33   C60   A    
C82   C97   A    
C80   C94   A    
C175  O52   S    
C28   C76   A    
C98   C161  A    
C158  C166  A    
C111  H67   S    
C53   H90   S    
C41   C239  S    
C28   C54   A    
C210  C223  S    
C280  H48   S    
C84   C99   A    
C9    C71   S    
C85   C111  A    
C147  C173  A    
C143  C159  A    
C64   C244  S    
C29   C55   A    
C10   C261  A    
C24   C188  S    
C14   C75   S    
C54   H91   S    
C282  H50   S    
C276  C293  A    
C7    C289  A    
C3    C280  A    
C110  H56   S    
C9    C265  A    
C156  C165  A    
C211  C224  S    
C137  C154  A    
Cu3   O36   S    
C193  N8    T    
C127  C144  A    
C151  C177  A    
C104  C166  A    
C94   C121  A    
C68   C254  A    
C218  N33   T    
C135  C229  A    
C183  N38   A    
C244  O33   A    
C11   C267  A    
C176  O53   S    
C158  C184  A    
C40   O21   A    
C46   C254  A    
C210  N26   T    
C59   H95   S    
Cu10  O20   S    
C266  C283  A    
C146  C230  A    
C150  C176  A    
C65   C249  S    
C41   O25   A    
C90   C225  A    
C115  H89   S    
C255  N36   S    
Cu12  O29   S    
C46   C221  A    
C78   C105  A    
C148  C161  A    
C31   H76   S    
C31   C58   A    
C136  H21   S    
C7    C275  S    
C137  H22   S    
C293  H61   S    
C36   O13   A    
C155  C166  A    
C61   C245  S    
Cu6   O23   S    
C42   O24   A    
C178  O55   S    
C176  N36   A    
Cu11  O21   S    
C258  N39   S    
C85   C98   A    
C109  C128  A    
C92   C103  A    
C217  C229  S    
C30   H75   S    
C58   C66   A    
C270  H38   S    
C142  C160  A    
C267  H35   S    
C288  H55   S    
C261  C279  A    
C27   H72   S    
C83   C109  A    
C107  H23   S    
C170  O47   S    
C25   C73   A    
C242  O64   A    
C184  O61   S    
Cu6   O16   S    
C200  N16   T    
C134  C152  A    
C275  O8    A    
C19   C72   A    
C19   H64   S    
C93   C104  A    
C272  C290  A    
C124  C228  A    
C172  N23   A    
C153  C164  A    
C130  C148  A    
C119  C137  A    
C248  O38   A    
C112  O56   A    
C140  C158  A    
C228  C239  A    
C223  C236  A    
C54   C67   A    
Cu10  O25   S    
C44   C62   A    
C208  C221  S    
Cu9   O26   S    
C45   C63   A    
C84   C110  A    
C191  N6    T    
C1    O1    A    
C88   C116  A    
Cu4   O41   S    
C25   C51   A    
C49   H85   S    
C81   C93   A    
C220  O45   A    
C69   C248  S    
C157  C258  A    
C125  C142  A    
C181  N38   A    
C63   C243  S    
C119  H5    S    
Cu7   O15   S    
C179  C204  S    
C229  C240  A    
C53   C66   A    
C283  H51   S    
C36   O10   A    
C207  C212  S    
C290  H58   S    
C68   C223  A    
C273  H41   S    
C2    C179  A    
C91   C102  A    
C262  C280  A    
C212  C235  A    
C95   C104  A    
C232  C240  A    
C224  C237  A    
C56   H93   S    
C113  C197  S    
C269  C287  A    
C202  N17   T    
C108  H34   S    
C107  C126  A    
C270  C288  A    
C23   C70   A    
C37   O14   A    
Cu9   O8    S    
C121  H7    S    
C56   C67   A    
C122  H8    S    
C263  C281  A    
C168  C203  S    
C86   C114  A    
C180  O57   S    
C8    C259  A    
Cu5   O63   S    
C14   C273  A    
C139  C156  A    
Cu8   Cu10  S    
C32   H77   S    
C26   C74   A    
C128  H14   S    
C108  C127  A    
C152  C178  A    
C214  C226  S    
Cu3   O37   S    
C242  O7    A    
C17   C70   A    
C213  N28   T    
C174  N23   A    
C188  N4    T    
C113  C256  A    
C170  N1    A    
C79   C255  A    
C181  O58   S    
C146  C257  A    
C157  C202  S    
C157  C232  A    
