data_mof_unit_45300.cif
_audit_creation_date              2012-12-10T16:52:41-0500
_audit_creation_method            fapswitch 2.2
_symmetry_space_group_name_H-M    P1
_symmetry_Int_Tables_number       1
_space_group_crystal_system       triclinic
_cell_length_a                    7.837662
_cell_length_b                    8.562022
_cell_length_c                    13.678293
_cell_angle_alpha                 93.47935
_cell_angle_beta                  92.282198
_cell_angle_gamma                 94.379575
_cell_volume                      912.619699359

loop_
_atom_site_label
_atom_site_type_symbol
_atom_type_description
_atom_site_fract_x
_atom_site_fract_y
_atom_site_fract_z
_atom_type_partial_charge
C1    C     C_R   0.045323 0.794775 0.497555 0.968550
C2    C     C_R   0.937615 0.484211 0.317459 0.894745
C3    C     C_R   0.092171 0.537966 0.788457 -0.117024
C4    C     C_R   0.907615 0.460885 0.211627 -0.117297
C5    C     C_R   0.060476 0.674838 0.945589 -0.211213
C6    C     C_R   0.938348 0.321898 0.055038 -0.211214
C7    C     C_R   0.002014 0.639889 0.848645 0.160803
C8    C     C_R   0.997168 0.357854 0.151843 0.160796
C9    C     C_R   0.232642 0.469190 0.827002 -0.287124
C10   C     C_R   0.767172 0.529417 0.172875 -0.287872
C11   C     C_R   0.304504 0.517361 0.919860 0.104867
C12   C     C_R   0.954675 0.205224 0.502437 0.968650
C13   C     C_R   0.694602 0.479805 0.080400 0.105153
C14   C     C_R   0.212904 0.618243 0.980611 0.126632
C15   C     C_R   0.785904 0.378321 0.019899 0.126615
C16   C     C_R   0.466776 0.472021 0.952372 0.088945
C17   C     C_R   0.532057 0.524563 0.048004 0.088926
C18   C     C_R   0.430441 0.616108 0.109056 -0.179216
C19   C     C_R   0.568097 0.379774 0.891532 -0.179209
C20   C     C_R   0.275092 0.663392 0.075227 -0.188778
C21   C     C_R   0.723375 0.332419 0.925449 -0.188877
C22   C     C_2   0.068815 0.958582 0.496026 -0.358902
C23   C     C_2   0.931181 0.041416 0.503953 -0.359011
C24   C     C_R   0.062358 0.515631 0.682557 0.894599
H1    H     H_    0.203392 0.736377 0.123551 0.160663
H2    H     H_    0.801691 0.989608 0.511627 0.184620
H3    H     H_    0.487319 0.373725 0.427273 0.207792
H4    H     H_    0.512681 0.626275 0.572726 0.207809
H5    H     H_    0.794800 0.258871 0.877318 0.160868
H6    H     H_    0.712928 0.617033 0.219172 0.160411
H7    H     H_    0.287478 0.382639 0.780224 0.160597
H8    H     H_    0.991214 0.752511 0.992229 0.166789
H9    H     H_    0.007285 0.243565 0.008655 0.166796
H10   H     H_    0.465316 0.653140 0.184200 0.155741
H11   H     H_    0.532965 0.341878 0.816581 0.155265
H12   H     H_    0.198304 0.010390 0.488350 0.184740
I1    I     I_    0.211023 0.240313 0.201016 -0.404451
I2    I     I_    0.787670 0.757220 0.799971 -0.404547
N1    N     N_2   0.440860 0.456490 0.474790 -0.165984
N2    N     N_2   0.559140 0.543510 0.525210 -0.165914
O1    O     O_R   0.891570 0.738930 0.506190 -0.602777
O2    O     O_R   0.108430 0.261070 0.493810 -0.602671
O3    O     O_R   0.174650 0.711050 0.490030 -0.625532
O4    O     O_R   0.825350 0.288950 0.509970 -0.625554
O5    O     O_R   0.909850 0.521900 0.644940 -0.585706
O6    O     O_R   0.090150 0.478100 0.355060 -0.585962
O7    O     O_R   0.192930 0.494020 0.628780 -0.620761
O8    O     O_R   0.807070 0.505980 0.371220 -0.620649
Zn1   Zn    Zn3+2 0.810990 0.518620 0.510790 0.967509
Zn2   Zn    Zn3+2 0.189010 0.481380 0.489210 0.967366

loop_
_geom_bond_atom_site_label_1
_geom_bond_atom_site_label_2
_ccdc_geom_bond_type
O4    Zn1   S    
C2    C4    S    
O3    Zn2   S    
C3    C9    A    
O5    Zn1   S    
C22   H12   S    
C11   C16   A    
C10   H6    S    
C3    C7    A    
C6    H9    S    
C13   C17   A    
C4    C8    A    
C5    H8    S    
C17   C18   A    
C3    C24   S    
C1    C22   S    
C12   O4    A    
C19   H11   S    
C2    O6    A    
C9    C11   A    
C12   C23   S    
C5    C14   A    
C12   O2    A    
H3    N1    S    
O2    Zn2   S    
C16   C19   A    
C24   O5    A    
O1    Zn1   S    
O8    Zn1   S    
C19   C21   A    
C7    I2    S    
O7    Zn2   S    
C18   C20   A    
C13   C15   A    
C11   C14   A    
C18   H10   S    
C8    I1    S    
C9    H7    S    
C4    C10   A    
N2    Zn1   S    
C14   C20   A    
C15   C21   A    
N1    Zn2   S    
C20   H1    S    
C23   H2    S    
C1    O1    A    
N1    N2    D    
C5    C7    A    
O6    Zn2   S    
C22   C23   D    
C6    C8    A    
C2    O8    A    
C6    C15   A    
C24   O7    A    
C21   H5    S    
C1    O3    A    
H4    N2    S    
C16   C17   A    
C10   C13   A    
