data_mof_unit_10838.cif
_audit_creation_date              2012-12-10T20:36:41-0500
_audit_creation_method            fapswitch 2.2
_symmetry_space_group_name_H-M    P1
_symmetry_Int_Tables_number       1
_space_group_crystal_system       triclinic
_cell_length_a                    10.497962
_cell_length_b                    10.67757
_cell_length_c                    9.88106
_cell_angle_alpha                 89.815119
_cell_angle_beta                  90.448707
_cell_angle_gamma                 90.002609
_cell_volume                      1107.55520146

loop_
_atom_site_label
_atom_site_type_symbol
_atom_type_description
_atom_site_fract_x
_atom_site_fract_y
_atom_site_fract_z
_atom_type_partial_charge
C1    C     C_R   0.504062 0.259960 0.500210 0.872279
C2    C     C_R   0.525353 0.935459 0.622729 0.133228
C3    C     C_3   0.435228 0.927384 0.738775 -0.467904
C4    C     C_R   0.257318 0.500374 0.499413 0.867544
C5    C     C_3   0.435231 0.069268 0.739276 -0.507202
C6    C     C_R   0.389345 0.483230 0.070422 0.159033
C7    C     C_R   0.607393 0.527392 0.072600 -0.140669
C8    C     C_R   0.607443 0.527212 0.928865 -0.165243
C9    C     C_R   0.389062 0.484234 0.927957 0.264178
C10   C     C_3   0.302830 0.373499 0.921925 0.191679
C11   C     C_3   0.304281 0.371593 0.075876 -0.566195
C12   C     C_3   0.956703 0.606957 0.443775 -0.200413
C13   C     C_R   0.504239 0.739964 0.499840 0.870513
C14   C     C_R   0.742664 0.499798 0.500621 0.862079
C15   C     C_3   0.043181 0.393501 0.556492 -0.152405
C16   C     C_3   0.957141 0.401279 0.429315 -0.197435
C17   C     C_3   0.877690 0.499805 0.501858 0.009685
C18   C     C_3   0.961022 0.492028 0.629219 -0.093376
C19   C     C_3   0.042797 0.599192 0.570921 -0.151137
C20   C     C_3   0.038838 0.508488 0.371058 -0.147901
C21   C     C_3   0.122243 0.500638 0.498346 0.035713
C22   C     C_R   0.525343 0.063220 0.623077 0.140577
C23   C     C_R   0.524890 0.128526 0.500929 -0.103968
C24   C     C_R   0.549397 0.065163 0.379652 -0.235391
C25   C     C_R   0.549547 0.935603 0.379393 -0.232795
C26   C     C_R   0.525138 0.871276 0.500394 -0.105483
H1    H     H_    0.917460 0.320788 0.371949 0.137671
H2    H     H_    0.082578 0.679638 0.628287 0.134734
H3    H     H_    0.916546 0.693688 0.398150 0.134784
H4    H     H_    0.073876 0.516315 0.265758 0.145571
H5    H     H_    0.559360 0.114527 0.284356 0.170723
H6    H     H_    0.341581 0.886227 0.709862 0.200071
H7    H     H_    0.694704 0.547817 0.126890 0.158259
H8    H     H_    0.132149 0.328490 0.869128 0.323979
H9    H     H_    0.925300 0.485234 0.734463 0.148673
H10   H     H_    0.559603 0.886990 0.284005 0.172890
H11   H     H_    0.480681 0.885744 0.830424 0.206523
H12   H     H_    0.341493 0.110618 0.710762 0.196427
H13   H     H_    0.480971 0.109305 0.831290 0.198650
H14   H     H_    0.694767 0.547359 0.875771 0.158118
H15   H     H_    0.346460 0.290614 0.873013 0.105215
H16   H     H_    0.210698 0.393485 0.121781 0.217887
H17   H     H_    0.352942 0.287919 0.119218 0.181520
H18   H     H_    0.083309 0.306642 0.601848 0.131327
N1    N     N_R   0.499140 0.499140 0.142800 -0.106073
N2    N     N_R   0.499140 0.499180 0.857150 -0.142562
O1    O     O_R   0.500020 0.316790 0.614690 -0.621006
O2    O     O_R   0.500000 0.316760 0.385350 -0.621474
O3    O     O_R   0.313960 0.499990 0.614650 -0.582620
O4    O     O_R   0.313940 0.499950 0.385310 -0.625644
O5    O     O_R   0.500000 0.683240 0.614650 -0.615915
O6    O     O_R   0.499980 0.683210 0.385310 -0.620311
O7    O     O_R   0.686060 0.500050 0.614690 -0.637257
O8    O     O_R   0.686040 0.500010 0.385350 -0.627771
O9    O     O_3   0.183424 0.406529 0.868710 -0.751540
Zn1   Zn    Zn3+2 0.500010 0.500020 0.653130 0.951291
Zn2   Zn    Zn3+2 0.499990 0.499980 0.346870 0.938870

loop_
_geom_bond_atom_site_label_1
_geom_bond_atom_site_label_2
_ccdc_geom_bond_type
C12   C17   S    
C2    C22   A    
C15   C18   S    
C23   C24   A    
C1    O2    A    
C11   H17   S    
C4    C21   S    
C6    N1    A    
C12   H3    S    
O3    Zn1   S    
C18   H9    S    
C15   C21   S    
C4    O3    A    
C16   C20   S    
C12   C20   S    
C6    C9    A    
C2    C3    S    
C24   H5    S    
H8    O9    S    
C2    C26   A    
C20   H4    S    
C5    H12   S    
C24   C25   A    
C10   H15   S    
C19   H2    S    
C7    H7    S    
C14   C17   S    
N1    Zn2   S    
C16   H1    S    
C7    N1    A    
C12   C19   S    
C14   O8    A    
O1    Zn1   S    
C15   H18   S    
C17   C18   S    
C1    C23   S    
C9    N2    A    
C10   C11   S    
C5    H13   S    
C10   O9    S    
C3    H6    S    
C8    N2    A    
C13   C26   S    
C7    C8    A    
O6    Zn2   S    
C25   H10   S    
C15   C16   S    
C13   O6    A    
O2    Zn2   S    
C14   O7    A    
C20   C21   S    
C3    H11   S    
C11   H16   S    
C18   C19   S    
C9    C10   S    
O7    Zn1   S    
N2    Zn1   S    
C6    C11   S    
C22   C23   A    
C1    O1    A    
C8    H14   S    
C19   C21   S    
C25   C26   A    
C13   O5    A    
O4    Zn2   S    
C5    C22   S    
O5    Zn1   S    
C4    O4    A    
C16   C17   S    
C3    C5    S    
O8    Zn2   S    
