data_mof_unit_49028.cif
_audit_creation_date              2012-12-11T14:17:25-0500
_audit_creation_method            fapswitch 2.2
_symmetry_space_group_name_H-M    P1
_symmetry_Int_Tables_number       1
_space_group_crystal_system       triclinic
_cell_length_a                    6.952571
_cell_length_b                    13.751462
_cell_length_c                    20.401081
_cell_angle_alpha                 102.322659
_cell_angle_beta                  90.840523
_cell_angle_gamma                 89.805162
_cell_volume                      1905.3645227

loop_
_atom_site_label
_atom_site_type_symbol
_atom_type_description
_atom_site_fract_x
_atom_site_fract_y
_atom_site_fract_z
_atom_type_partial_charge
O1    O     O_R   0.506860 0.599390 0.449240 -0.541970
O2    O     O_R   0.180220 0.594600 0.586780 -0.549015
O3    O     O_R   0.004500 0.400610 0.550760 -0.536185
C1    C     C_R   0.350080 0.617720 0.612764 0.727314
O4    O     O_R   0.177490 0.611290 0.451970 -0.544558
O5    O     O_R   0.001750 0.417420 0.414990 -0.533175
C2    C     C_R   0.345584 0.637906 0.435388 0.689807
O6    O     O_R   0.509610 0.582580 0.585010 -0.548987
O7    O     O_3   0.337420 0.436370 0.488020 -0.358519
V1    V     V_3+5 0.064680 0.511800 0.502220 1.440449
O8    O     O_R   0.671710 0.405400 0.413220 -0.544620
C3    C     C_R   0.839469 0.384078 0.386556 0.777424
O9    O     O_R   0.674440 0.388710 0.548030 -0.540335
C4    C     C_R   0.844982 0.362971 0.565047 0.774514
V2    V     V_3+5 0.564010 0.488200 0.497780 1.448233
O10   O     O_3   0.841140 0.563630 0.511980 -0.386817
C5    C     C_R   0.017396 0.137164 0.621343 -0.190577
H1    H     H_    0.146203 0.036835 0.710310 0.126014
H2    H     H_    0.096898 0.070337 0.599701 0.152569
C6    C     C_R   0.864894 0.290401 0.607607 -0.105662
C7    C     C_R   0.695464 0.285959 0.919786 0.243602
C8    C     C_R   0.590134 0.329073 0.875174 -0.146607
C9    C     C_R   0.632449 0.306763 0.807532 -0.242697
C10   C     C_R   0.799840 0.253046 0.784343 0.089677
C11   C     C_R   0.889923 0.196763 0.827172 0.026098
C12   C     C_R   0.866146 0.244815 0.717504 0.054651
C13   C     C_R   0.979394 0.160375 0.689850 0.066749
C14   C     C_R   0.054754 0.099617 0.730917 -0.175982
C15   C     C_R   0.018476 0.120480 0.799271 -0.189106
C16   C     C_R   0.830414 0.317812 0.677748 -0.020043
C17   C     C_R   0.954032 0.199122 0.579964 0.226572
C18   C     C_R   0.836075 0.213262 0.895467 -0.159190
H3    H     H_    0.535380 0.334192 0.773729 0.137777
H4    H     H_    0.471119 0.377881 0.892340 0.149730
H5    H     H_    0.085991 0.073486 0.829159 0.129925
C19   C     C_2   0.004619 0.289279 0.285200 -0.109340
C20   C     C_2   0.841697 0.315720 0.319742 -0.278223
H6    H     H_    0.141332 0.318183 0.307397 0.137600
H7    H     H_    0.703493 0.287278 0.299264 0.124857
C21   C     C_2   0.013651 0.221286 0.217573 -0.129675
C22   C     C_2   0.858989 0.183646 0.180161 -0.276911
H8    H     H_    0.156466 0.202335 0.197930 0.137267
H9    H     H_    0.714952 0.201979 0.198246 0.131478
C23   C     C_2   0.218739 0.812325 0.774184 -0.143461
C24   C     C_2   0.363320 0.817336 0.819312 -0.302715
H10   H     H_    0.091892 0.858146 0.787774 0.129988
H11   H     H_    0.493594 0.774679 0.806305 0.130025
C25   C     C_2   0.220138 0.747533 0.705242 -0.129511
C26   C     C_2   0.364935 0.686281 0.679280 -0.303213
H12   H     H_    0.092338 0.750431 0.674475 0.132070
H13   H     H_    0.499619 0.685908 0.706300 0.133559
C27   C     C_R   0.412388 0.885724 0.389512 -0.115433
H14   H     H_    0.405534 0.834727 0.481778 0.111472
H15   H     H_    0.454212 0.009294 0.307218 0.140910
H16   H     H_    0.441611 0.961892 0.415036 0.148997
C28   C     C_R   0.354834 0.715024 0.396017 -0.036312
C29   C     C_R   0.313484 0.692261 0.072711 -0.155654
C30   C     C_R   0.281815 0.616598 0.107600 0.134536
C31   C     C_R   0.299520 0.638414 0.177699 -0.196560
C32   C     C_R   0.345229 0.735377 0.214266 0.062573
C33   C     C_R   0.373415 0.811556 0.177715 0.060275
C34   C     C_R   0.359769 0.759619 0.285948 0.081109
C35   C     C_R   0.398422 0.859667 0.319191 0.127897
C36   C     C_R   0.424220 0.932984 0.282158 -0.174602
C37   C     C_R   0.412899 0.909407 0.212571 -0.192090
C38   C     C_R   0.338803 0.688080 0.326057 -0.211623
C39   C     C_R   0.391327 0.813726 0.427638 -0.164021
C40   C     C_R   0.357927 0.788549 0.106839 -0.105038
H17   H     H_    0.314256 0.610376 0.304821 0.095609
H18   H     H_    0.300107 0.678380 0.018632 0.093184
H19   H     H_    0.272304 0.577863 0.202151 0.110555
H20   H     H_    0.434688 0.968944 0.186250 0.114440
O11   O     O_R   0.203230 0.917310 0.915020 -0.544562
O12   O     O_R   0.535500 0.888690 0.048040 -0.545983
O13   O     O_R   0.711080 0.082610 0.085000 -0.534816
C41   C     C_R   0.367969 0.865255 0.067043 0.688182
O14   O     O_R   0.532630 0.905370 0.913230 -0.547490
O15   O     O_R   0.708190 0.099410 0.949230 -0.520914
C42   C     C_R   0.364152 0.885124 0.886193 0.729769
O16   O     O_R   0.206120 0.900510 0.050790 -0.541932
O17   O     O_3   0.375360 0.063570 0.011990 -0.355843
V3    V     V_3+5 0.648170 0.988200 0.997780 1.462255
O18   O     O_R   0.038240 0.111390 0.951940 -0.547490
C43   C     C_R   0.866638 0.136801 0.934738 0.760662
O19   O     O_R   0.041120 0.094710 0.086750 -0.543084
C44   C     C_R   0.872812 0.115851 0.113435 0.777226
V4    V     V_3+5 0.148810 0.011930 0.002180 1.449841
O20   O     O_3   0.871750 0.936430 0.988010 -0.381319
Br1   Br    Br    0.007225 0.159505 0.485743 -0.578210
C45   C     C_3   0.223343 0.511963 0.072967 -0.330627
C46   C     C_3   0.195889 0.495518 0.996539 -0.322603
C47   C     C_3   0.129658 0.389983 0.966697 -0.708734
H21   H     H_    0.241516 0.334863 0.972338 0.265612
H22   H     H_    0.000549 0.373531 0.993131 0.262533
H23   H     H_    0.095274 0.382599 0.912523 0.211192
H24   H     H_    0.084208 0.547485 0.984633 0.197998
H25   H     H_    0.333450 0.509242 0.973000 0.202222
H26   H     H_    0.334099 0.459426 0.084456 0.221135
H27   H     H_    0.085662 0.494324 0.095011 0.186113
C48   C     C_3   0.769030 0.424714 0.710606 -0.419372
C49   C     C_3   0.891103 0.510846 0.696425 -0.271104
C50   C     C_3   0.865012 0.604560 0.751971 -0.785853
H28   H     H_    0.717269 0.608843 0.772449 0.216122
H29   H     H_    0.969668 0.604422 0.793634 0.233935
H30   H     H_    0.885738 0.672201 0.731901 0.217351
H31   H     H_    0.045865 0.490037 0.692970 0.195518
H32   H     H_    0.843010 0.530107 0.648774 0.207968
H33   H     H_    0.616539 0.436121 0.696889 0.170218
H34   H     H_    0.781960 0.435464 0.765546 0.212703
Br2   Br    Br    0.625866 0.317938 0.013048 -0.649694

loop_
_geom_bond_atom_site_label_1
_geom_bond_atom_site_label_2
_ccdc_geom_bond_type
C49   H32   S    
O18   V4    S    
V4    O20   S    
C49   C50   S    
C1    O6    A    
C26   H13   S    
O17   V3    S    
C45   C46   S    
C28   C39   A    
C6    C16   A    
O19   C44   A    
C22   C44   S    
C12   C13   A    
O12   C41   A    
C47   H21   S    
C14   C15   A    
C10   C12   A    
O16   V4    S    
O5    C3    A    
V3    O20   S    
C38   H17   S    
V2    O10   S    
C16   C48   S    
C50   H30   S    
C32   C34   A    
C24   H11   S    
C3    C20   S    
O11   V4    S    
C46   H24   S    
O8    V2    S    
C9    H3    S    
C9    C10   A    
O1    V2    S    
C29   H18   S    
O7    V1    S    
C27   H16   S    
C11   C18   A    
C21   H8    S    
C31   C32   A    
O9    C4    A    
C22   H9    S    
C2    C28   S    
O12   V3    S    
C18   C43   S    
C23   H10   S    
C7    Br2   S    
O14   C42   A    
C11   C15   A    
C8    H4    S    
C7    C18   A    
C48   H33   S    
C34   C38   A    
O19   V4    S    
C5    C13   A    
C4    C6    S    
C19   C21   S    
H1    C14   S    
C10   C11   A    
C46   C47   S    
O4    C2    A    
C17   Br1   S    
C30   C31   A    
C47   H23   S    
C32   C33   A    
O2    C1    A    
C34   C35   A    
O15   C43   A    
O15   V3    S    
O13   C44   A    
O18   C43   A    
C47   H22   S    
O11   C42   A    
C24   C42   S    
C46   H25   S    
C50   H29   S    
C30   C45   S    
O17   V4    S    
C27   C39   A    
C25   C26   D    
C12   C16   A    
O6    V2    S    
O9    V2    S    
C5    C17   A    
C29   C40   A    
O2    V1    S    
C45   H27   S    
C23   C24   D    
C49   H31   S    
C21   C22   D    
O1    C2    A    
C41   O16   A    
C27   C35   A    
O5    V1    S    
O8    C3    A    
O13   V3    S    
O3    C4    A    
C40   C41   S    
C37   H20   S    
C15   H5    S    
C1    C26   S    
C36   C37   A    
C19   H6    S    
O7    V2    S    
O4    V1    S    
C20   H7    S    
O3    V1    S    
V1    O10   S    
C33   C40   A    
C29   C30   A    
H15   C36   S    
O14   V3    S    
C28   C38   A    
C25   H12   S    
C48   C49   S    
C5    H2    S    
C50   H28   S    
H14   C39   S    
C35   C36   A    
C33   C37   A    
C48   H34   S    
C19   C20   D    
C13   C14   A    
C8    C9    A    
C7    C8    A    
C45   H26   S    
C23   C25   S    
C31   H19   S    
C6    C17   A    
