data_mof_unit_64427.cif
_audit_creation_date              2012-12-10T19:07:59-0500
_audit_creation_method            fapswitch 2.2
_symmetry_space_group_name_H-M    P1
_symmetry_Int_Tables_number       1
_space_group_crystal_system       monoclinic
_cell_length_a                    37.388339
_cell_length_b                    30.271726
_cell_length_c                    21.648511
_cell_angle_alpha                 90.0
_cell_angle_beta                  54.087494
_cell_angle_gamma                 90.0
_cell_volume                      19844.4970161

loop_
_atom_site_label
_atom_site_type_symbol
_atom_type_description
_atom_site_fract_x
_atom_site_fract_y
_atom_site_fract_z
_atom_type_partial_charge
C1    C     C_R   0.086074 0.499989 0.413368 0.872290
C2    C     C_R   0.913926 0.499989 0.586631 0.872290
C3    C     C_R   0.586074 0.999989 0.413369 0.872289
C4    C     C_R   0.413926 0.999989 0.586631 0.872290
C5    C     C_R   0.001359 0.499244 0.812778 -0.208341
C6    C     C_R   0.998641 0.499244 0.187222 -0.208341
C7    C     C_R   0.501359 0.999244 0.812778 -0.208338
C8    C     C_R   0.498641 0.999244 0.187222 -0.208339
C9    C     C_R   0.966297 0.515253 0.814253 0.037547
C10   C     C_R   0.033703 0.515253 0.185747 0.037547
C11   C     C_R   0.466298 0.015256 0.814251 0.037547
C12   C     C_R   0.533702 0.015256 0.185748 0.037548
C13   C     C_3   0.919849 0.531963 0.865061 0.793007
C14   C     C_3   0.080151 0.531963 0.134939 0.793007
C15   C     C_3   0.419851 0.031970 0.865058 0.793002
C16   C     C_3   0.580149 0.031970 0.134942 0.793005
C17   C     C_3   0.921490 0.534657 0.791681 -0.135653
C18   C     C_3   0.078510 0.534657 0.208319 -0.135653
C19   C     C_3   0.421494 0.034664 0.791678 -0.135647
C20   C     C_3   0.578506 0.034664 0.208322 -0.135648
C21   C     C_R   0.203000 0.472168 0.254430 -0.164700
C22   C     C_R   0.797000 0.472168 0.745570 -0.164700
C23   C     C_R   0.703000 0.972170 0.254428 -0.164699
C24   C     C_R   0.297000 0.972170 0.745572 -0.164698
C25   C     C_R   0.157305 0.473896 0.297158 0.409389
C26   C     C_R   0.842695 0.473896 0.702842 0.409388
C27   C     C_R   0.657305 0.973898 0.297157 0.409386
C28   C     C_R   0.342695 0.973898 0.702843 0.409387
C29   C     C_R   0.133888 0.499972 0.364298 -0.184906
C30   C     C_R   0.866112 0.499972 0.635702 -0.184906
C31   C     C_R   0.633888 0.999972 0.364298 -0.184904
C32   C     C_R   0.366112 0.999972 0.635702 -0.184904
C33   C     C_R   0.156723 0.524657 0.386193 0.171497
C34   C     C_R   0.843277 0.524657 0.613807 0.171497
C35   C     C_R   0.656723 0.024656 0.386195 0.171496
C36   C     C_R   0.343277 0.024656 0.613805 0.171496
C37   C     C_R   0.202583 0.522669 0.341840 -0.229391
C38   C     C_R   0.797417 0.522669 0.658160 -0.229391
C39   C     C_R   0.702583 0.022667 0.341842 -0.229390
C40   C     C_R   0.297417 0.022667 0.658158 -0.229389
C41   C     C_R   0.225698 0.496775 0.275901 -0.026362
C42   C     C_R   0.774301 0.496775 0.724099 -0.026362
C43   C     C_R   0.725698 0.996776 0.275901 -0.026361
C44   C     C_R   0.274302 0.996776 0.724099 -0.026362
C45   C     C_R   0.000179 0.500048 0.619570 0.882892
C46   C     C_R   0.999821 0.500048 0.380430 0.882891
C47   C     C_R   0.500179 0.000048 0.619569 0.882890
C48   C     C_R   0.499821 0.000048 0.380431 0.882889
C49   C     C_R   0.296719 0.493071 0.260357 -0.164907
C50   C     C_R   0.703281 0.493071 0.739643 -0.164907
C51   C     C_R   0.796719 0.993070 0.260356 -0.164906
C52   C     C_R   0.203281 0.993070 0.739644 -0.164907
C53   C     C_R   0.342484 0.494395 0.214321 -0.209145
C54   C     C_R   0.657516 0.494395 0.785679 -0.209145
C55   C     C_R   0.842484 0.994394 0.214321 -0.209144
C56   C     C_R   0.157516 0.994394 0.785679 -0.209141
C57   C     C_R   0.365656 0.499109 0.135154 -0.033945
C58   C     C_R   0.634344 0.499109 0.864846 -0.033946
C59   C     C_R   0.865656 0.999109 0.135154 -0.033944
C60   C     C_R   0.134344 0.999109 0.864846 -0.033945
C61   C     C_R   0.342643 0.502631 0.102521 -0.188207
C62   C     C_R   0.657357 0.502631 0.897479 -0.188208
C63   C     C_R   0.842643 0.002633 0.102521 -0.188206
C64   C     C_R   0.157357 0.002633 0.897479 -0.188206
C65   C     C_R   0.296922 0.501621 0.148596 -0.173153
C66   C     C_R   0.703078 0.501621 0.851404 -0.173153
C67   C     C_R   0.796922 0.001623 0.148596 -0.173153
C68   C     C_R   0.203078 0.001623 0.851404 -0.173152
C69   C     C_R   0.273798 0.496788 0.227638 0.156993
C70   C     C_R   0.726202 0.496788 0.772362 0.156993
C71   C     C_R   0.773798 0.996788 0.227638 0.156993
C72   C     C_R   0.226201 0.996788 0.772362 0.156993
C73   C     C_R   0.000000 0.633563 0.000000 -0.260080
C74   C     C_R   0.500000 0.133564 0.000000 -0.260076
C75   C     C_R   0.000000 0.725381 1.000000 -0.008182
C76   C     C_R   0.500000 0.225381 0.000000 -0.008197
C77   C     C_R   0.500000 0.726124 0.000000 -0.020608
C78   C     C_R   0.000000 0.226124 0.000000 -0.020612
C79   C     C_R   0.000000 0.413619 0.000000 0.860880
C80   C     C_R   0.500000 0.913619 0.000000 0.860878
C81   C     C_R   0.991432 0.656766 0.953004 0.401949
C82   C     C_R   0.008568 0.656766 0.046996 0.401949
C83   C     C_R   0.491442 0.156766 0.952991 0.401954
C84   C     C_R   0.508558 0.156766 0.047009 0.401954
C85   C     C_R   0.000230 0.499480 0.879682 0.914535
C86   C     C_R   0.999770 0.499480 0.120318 0.914534
C87   C     C_R   0.500230 0.999479 0.879682 0.914536
C88   C     C_R   0.499770 0.999479 0.120318 0.914535
C89   C     C_R   0.000000 0.585893 0.000000 0.839914
C90   C     C_R   0.500000 0.085893 0.000000 0.839922
C91   C     C_R   0.500000 0.365623 0.000000 -0.175393
C92   C     C_R   0.000000 0.865623 1.000000 -0.175398
C93   C     C_R   0.500000 0.413765 0.000000 0.964514
C94   C     C_R   0.000000 0.913765 0.000000 0.964498
C95   C     C_R   0.413667 0.499930 0.086593 0.861879
C96   C     C_R   0.586333 0.499930 0.913407 0.861879
C97   C     C_R   0.913667 0.999931 0.086593 0.861872
C98   C     C_R   0.086333 0.999931 0.913407 0.861872
C99   C     C_R   0.469764 0.342861 0.068570 0.093473
C100  C     C_R   0.530235 0.342861 0.931430 0.093473
C101  C     C_R   0.969767 0.842861 0.068572 0.093483
C102  C     C_R   0.030233 0.842861 0.931428 0.093483
C103  C     C_R   0.500000 0.586292 0.000000 0.925963
C104  C     C_R   0.000000 0.086292 0.000000 0.925964
C105  C     C_R   0.960471 0.296736 0.049703 -0.096802
C106  C     C_R   0.039529 0.296736 0.950297 -0.096801
C107  C     C_R   0.460470 0.796736 0.049698 -0.096801
C108  C     C_R   0.539530 0.796736 0.950302 -0.096801
C109  C     C_R   0.960408 0.342519 0.049594 -0.198862
C110  C     C_R   0.039592 0.342519 0.950406 -0.198862
C111  C     C_R   0.460407 0.842519 0.049588 -0.198863
C112  C     C_R   0.539593 0.842519 0.950412 -0.198864
C113  C     C_R   0.000000 0.365617 0.000000 -0.035386
C114  C     C_R   0.500000 0.865617 0.000000 -0.035388
C115  C     C_R   0.468975 0.296385 0.068216 0.137282
C116  C     C_R   0.531025 0.296385 0.931784 0.137282
C117  C     C_R   0.968979 0.796385 0.068219 0.137280
C118  C     C_R   0.031021 0.796385 0.931781 0.137280
C119  C     C_R   0.000000 0.273990 0.000000 0.228241
C120  C     C_R   0.500000 0.773990 0.000000 0.228239
C121  C     C_R   0.508281 0.703452 0.936260 0.397830
C122  C     C_R   0.491719 0.703452 0.063740 0.397830
C123  C     C_R   0.008275 0.203452 0.936264 0.397831
C124  C     C_R   0.991725 0.203452 0.063736 0.397830
C125  C     C_R   0.508102 0.657332 0.936839 -0.308458
C126  C     C_R   0.491898 0.657332 0.063161 -0.308459
C127  C     C_R   0.008096 0.157332 0.936843 -0.308458
C128  C     C_R   0.991904 0.157332 0.063157 -0.308458
C129  C     C_R   0.500000 0.634335 0.000000 -0.120133
C130  C     C_R   0.000000 0.134335 0.000000 -0.120135
C131  C     C_R   0.500000 0.273631 0.000000 -0.000805
C132  C     C_R   0.000000 0.773631 1.000000 -0.000818
C133  C     C_R   0.991338 0.702590 0.954082 -0.149688
C134  C     C_R   0.008662 0.702590 0.045918 -0.149687
C135  C     C_R   0.491348 0.202590 0.954069 -0.149687
C136  C     C_R   0.508652 0.202590 0.045931 -0.149687
C137  C     C_R   0.967607 0.517138 0.750934 -0.092984
C138  C     C_R   0.032393 0.517138 0.249066 -0.092985
C139  C     C_R   0.467609 0.017141 0.750932 -0.092982
C140  C     C_R   0.532391 0.017141 0.249068 -0.092983
C141  C     C_R   0.002806 0.500471 0.682075 -0.185758
C142  C     C_R   0.997194 0.500471 0.317925 -0.185758
C143  C     C_R   0.502807 0.000471 0.682074 -0.185762
C144  C     C_R   0.497193 0.000471 0.317926 -0.185762
C145  C     C_R   0.040119 0.484079 0.676872 0.439676
C146  C     C_R   0.959881 0.484079 0.323128 0.439676
C147  C     C_R   0.540118 0.984076 0.676873 0.439678
C148  C     C_R   0.459882 0.984076 0.323127 0.439678
C149  C     C_R   0.038987 0.483934 0.742783 -0.192887
C150  C     C_R   0.961013 0.483934 0.257217 -0.192886
C151  C     C_R   0.538986 0.983931 0.742784 -0.192886
C152  C     C_R   0.461014 0.983931 0.257216 -0.192885
H1    H     H_    0.220153 0.542005 0.358266 0.150127
H2    H     H_    0.779847 0.542005 0.641734 0.150127
H3    H     H_    0.720153 0.042003 0.358269 0.150127
H4    H     H_    0.279847 0.042003 0.641731 0.150127
H5    H     H_    0.279229 0.488923 0.321338 0.137705
H6    H     H_    0.720771 0.488923 0.678662 0.137705
H7    H     H_    0.779229 0.988921 0.321337 0.137705
H8    H     H_    0.220771 0.988921 0.678662 0.137705
H9    H     H_    0.359650 0.491411 0.240622 0.160042
H10   H     H_    0.640349 0.491411 0.759378 0.160042
H11   H     H_    0.859650 0.991409 0.240622 0.160041
H12   H     H_    0.140350 0.991409 0.759378 0.160040
H13   H     H_    0.359877 0.506491 0.041557 0.162160
H14   H     H_    0.640123 0.506491 0.958443 0.162160
H15   H     H_    0.859877 0.006494 0.041557 0.162160
H16   H     H_    0.140123 0.006494 0.958443 0.162159
H17   H     H_    0.279602 0.505274 0.122653 0.137984
H18   H     H_    0.720398 0.505274 0.877347 0.137984
H19   H     H_    0.779602 0.005277 0.122653 0.137984
H20   H     H_    0.220398 0.005277 0.877347 0.137984
H21   H     H_    0.929841 0.278995 0.088107 0.142778
H22   H     H_    0.070159 0.278995 0.911893 0.142778
H23   H     H_    0.429840 0.778995 0.088097 0.142779
H24   H     H_    0.570160 0.778995 0.911903 0.142779
H25   H     H_    0.929534 0.359748 0.088454 0.165496
H26   H     H_    0.070466 0.359748 0.911546 0.165496
H27   H     H_    0.429533 0.859748 0.088444 0.165497
H28   H     H_    0.570467 0.859748 0.911556 0.165497
H29   H     H_    0.067304 0.471402 0.739193 0.190208
H30   H     H_    0.932696 0.471402 0.260807 0.190207
H31   H     H_    0.567302 0.971397 0.739196 0.190206
H32   H     H_    0.432698 0.971397 0.260804 0.190206
H33   H     H_    0.984490 0.720633 0.918838 0.173441
H34   H     H_    0.015510 0.720633 0.081162 0.173441
H35   H     H_    0.484508 0.220633 0.918814 0.173444
H36   H     H_    0.515492 0.220633 0.081186 0.173444
H37   H     H_    0.514479 0.639507 0.887908 0.167694
H38   H     H_    0.485521 0.639507 0.112092 0.167694
H39   H     H_    0.014469 0.139508 0.887915 0.167695
H40   H     H_    0.985531 0.139508 0.112085 0.167695
H41   H     H_    0.898955 0.511148 0.790834 0.131894
H42   H     H_    0.101045 0.511148 0.209166 0.131894
H43   H     H_    0.398956 0.011157 0.790832 0.131892
H44   H     H_    0.601044 0.011157 0.209168 0.131893
H45   H     H_    0.220926 0.451889 0.203501 0.166201
H46   H     H_    0.779074 0.451889 0.796498 0.166201
H47   H     H_    0.720926 0.951892 0.203498 0.166201
H48   H     H_    0.279074 0.951892 0.796502 0.166201
O1    O     O_R   0.065460 0.536930 0.434540 -0.601806
O2    O     O_R   0.934540 0.536930 0.565460 -0.601806
O3    O     O_R   0.565460 0.036930 0.434540 -0.601808
O4    O     O_R   0.434540 0.036930 0.565460 -0.601808
O5    O     O_R   0.434510 0.499990 0.117200 -0.621475
O6    O     O_R   0.565490 0.499990 0.882800 -0.621475
O7    O     O_R   0.934510 0.999990 0.117200 -0.621475
O8    O     O_R   0.065490 0.999990 0.882800 -0.621475
O9    O     O_R   0.434500 0.499990 0.013770 -0.630062
O10   O     O_R   0.565500 0.499990 0.986230 -0.630063
O11   O     O_R   0.934500 0.999990 0.013770 -0.630062
O12   O     O_R   0.065500 0.999990 0.986230 -0.630062
O13   O     O_R   0.500010 0.565450 0.051710 -0.625863
O14   O     O_R   0.499990 0.565450 0.948290 -0.625862
O15   O     O_R   0.000010 0.065450 0.051710 -0.625864
O16   O     O_R   0.999990 0.065450 0.948290 -0.625863
O17   O     O_R   0.065420 0.463020 0.434580 -0.611377
O18   O     O_R   0.934580 0.463020 0.565420 -0.611377
O19   O     O_R   0.565420 0.963020 0.434580 -0.611377
O20   O     O_R   0.434580 0.963020 0.565420 -0.611376
O21   O     O_R   0.000000 0.536930 0.591610 -0.612073
O22   O     O_R   0.000000 0.536930 0.408390 -0.612072
O23   O     O_R   0.500000 0.036930 0.591610 -0.612070
O24   O     O_R   0.500000 0.036930 0.408390 -0.612069
O25   O     O_R   0.999960 0.463020 0.591650 -0.617121
O26   O     O_R   0.000040 0.463020 0.408350 -0.617120
O27   O     O_R   0.499960 0.963020 0.591650 -0.617120
O28   O     O_R   0.500040 0.963020 0.408350 -0.617120
O29   O     O_R   0.963030 0.434450 0.036960 -0.628377
O30   O     O_R   0.036970 0.434450 0.963040 -0.628378
O31   O     O_R   0.463030 0.934450 0.036960 -0.628378
O32   O     O_R   0.536970 0.934450 0.963040 -0.628379
O33   O     O_R   0.963010 0.499910 0.945370 -0.569041
O34   O     O_R   0.036990 0.499910 0.054630 -0.569042
O35   O     O_R   0.463010 0.999910 0.945370 -0.569043
O36   O     O_R   0.536990 0.999910 0.054630 -0.569044
O37   O     O_R   0.036930 0.499960 0.871460 -0.638768
O38   O     O_R   0.963070 0.499960 0.128540 -0.638768
O39   O     O_R   0.536930 0.999960 0.871460 -0.638767
O40   O     O_R   0.463070 0.999960 0.128540 -0.638767
O41   O     O_R   0.963000 0.565380 0.037000 -0.599213
O42   O     O_R   0.037000 0.565380 0.963000 -0.599214
O43   O     O_R   0.463000 0.065380 0.037000 -0.599213
O44   O     O_R   0.537000 0.065380 0.963000 -0.599214
O45   O     O_R   0.499940 0.434520 0.051770 -0.605549
O46   O     O_R   0.500060 0.434520 0.948230 -0.605548
O47   O     O_R   0.999940 0.934520 0.051770 -0.605545
O48   O     O_R   0.000060 0.934520 0.948230 -0.605544
Zn1   Zn    Zn3+2 0.000000 0.549330 0.500000 0.965978
Zn2   Zn    Zn3+2 0.500000 0.049330 0.500000 0.965979
Zn3   Zn    Zn3+2 0.000000 0.450620 0.500000 1.017951
Zn4   Zn    Zn3+2 0.500000 0.950620 0.500000 1.017953
Zn5   Zn    Zn3+2 0.950620 0.499900 0.049380 1.023064
Zn6   Zn    Zn3+2 0.049380 0.499900 0.950620 1.023063
Zn7   Zn    Zn3+2 0.450620 0.999900 0.049380 1.023063
Zn8   Zn    Zn3+2 0.549380 0.999900 0.950620 1.023062
Zn9   Zn    Zn3+2 0.499980 0.499990 0.069090 0.960879
Zn10  Zn    Zn3+2 0.500020 0.499990 0.930910 0.960880
Zn11  Zn    Zn3+2 0.999980 0.999990 0.069090 0.960879
Zn12  Zn    Zn3+2 0.000020 0.999990 0.930910 0.960880
O49   O     O_3   0.077893 0.468541 0.610113 -0.761813
H49   H     H_    0.076443 0.474416 0.566696 0.334593
O50   O     O_3   0.922107 0.468541 0.389887 -0.761814
H50   H     H_    0.923557 0.474416 0.433304 0.334593
O51   O     O_3   0.577891 0.968535 0.610115 -0.761811
H51   H     H_    0.576442 0.974411 0.566698 0.334594
O52   O     O_3   0.422109 0.968535 0.389885 -0.761811
H52   H     H_    0.423558 0.974412 0.433302 0.334594
O53   O     O_3   0.983340 0.636520 0.905034 -0.738024
H53   H     H_    0.987261 0.604209 0.904520 0.350672
O54   O     O_3   0.016660 0.636520 0.094966 -0.738024
H54   H     H_    0.012739 0.604209 0.095480 0.350671
O55   O     O_3   0.483360 0.136520 0.905008 -0.738033
H55   H     H_    0.487276 0.104208 0.904502 0.350668
O56   O     O_3   0.516640 0.136520 0.094992 -0.738032
H56   H     H_    0.512724 0.104208 0.095498 0.350667
N1    N     N_2   0.437210 0.272021 0.135455 -0.302446
H57   H     H_    0.428192 0.285224 0.186503 0.222055
C153  C     C_3   0.400148 0.254790 0.138237 -0.732566
H58   H     H_    0.378485 0.235298 0.191319 0.237143
H59   H     H_    0.380574 0.282054 0.137683 0.230151
H60   H     H_    0.411453 0.232698 0.089158 0.251439
N2    N     N_2   0.562790 0.272021 0.864545 -0.302446
H61   H     H_    0.571808 0.285224 0.813496 0.222056
C154  C     C_3   0.599852 0.254790 0.861763 -0.732565
H62   H     H_    0.621515 0.235299 0.808681 0.237142
H63   H     H_    0.619426 0.282054 0.862317 0.230150
H64   H     H_    0.588547 0.232697 0.910842 0.251439
N3    N     N_2   0.937221 0.772020 0.135462 -0.302448
H65   H     H_    0.928213 0.785221 0.186506 0.222047
C155  C     C_3   0.900153 0.754788 0.138266 -0.732554
H66   H     H_    0.878501 0.735290 0.191343 0.237143
H67   H     H_    0.880570 0.782053 0.137739 0.230147
H68   H     H_    0.911451 0.732702 0.089183 0.251435
N4    N     N_2   0.062779 0.772020 0.864538 -0.302448
H69   H     H_    0.071787 0.785221 0.813493 0.222046
C156  C     C_3   0.099847 0.754788 0.861734 -0.732554
H70   H     H_    0.121499 0.735290 0.808657 0.237143
H71   H     H_    0.119430 0.782053 0.862262 0.230148
H72   H     H_    0.088549 0.732702 0.910817 0.251435
N5    N     N_2   0.440226 0.367365 0.136834 -0.288223
H73   H     H_    0.435407 0.355547 0.185778 0.218230
C157  C     C_3   0.400419 0.383100 0.147492 -0.730625
H74   H     H_    0.377434 0.355357 0.162055 0.230862
H75   H     H_    0.408175 0.399854 0.095306 0.228690
H76   H     H_    0.383720 0.407183 0.195172 0.234737
N6    N     N_2   0.559774 0.367365 0.863166 -0.288223
H77   H     H_    0.564593 0.355547 0.814222 0.218230
C158  C     C_3   0.599581 0.383100 0.852508 -0.730625
H78   H     H_    0.622566 0.355357 0.837944 0.230862
H79   H     H_    0.591825 0.399854 0.904694 0.228690
H80   H     H_    0.616280 0.407183 0.804827 0.234737
N7    N     N_2   0.940229 0.867364 0.136836 -0.288218
H81   H     H_    0.935408 0.855545 0.185781 0.218231
C159  C     C_3   0.900423 0.883103 0.147493 -0.730597
H82   H     H_    0.877438 0.855361 0.162050 0.230853
H83   H     H_    0.908181 0.899860 0.095308 0.228682
H84   H     H_    0.883724 0.907184 0.195177 0.234729
N8    N     N_2   0.059771 0.867364 0.863164 -0.288218
H85   H     H_    0.064591 0.855545 0.814218 0.218231
C160  C     C_3   0.099577 0.883103 0.852507 -0.730600
H86   H     H_    0.122562 0.855361 0.837950 0.230853
H87   H     H_    0.091819 0.899860 0.904691 0.228683
H88   H     H_    0.116276 0.907184 0.804823 0.234730
O57   O     O_3   0.515886 0.727065 0.874949 -0.762511
H89   H     H_    0.521038 0.706122 0.835247 0.337999
O58   O     O_3   0.484114 0.727065 0.125051 -0.762511
H90   H     H_    0.478962 0.706122 0.164753 0.337999
O59   O     O_3   0.015875 0.227065 0.874957 -0.762510
H91   H     H_    0.021023 0.206122 0.835257 0.337998
O60   O     O_3   0.984125 0.227065 0.125043 -0.762510
H92   H     H_    0.978977 0.206122 0.164743 0.337999
O61   O     O_3   0.889852 0.500561 0.918880 -0.759002
H93   H     H_    0.894882 0.472104 0.892043 0.312589
O62   O     O_3   0.110148 0.500561 0.081120 -0.759002
H94   H     H_    0.105118 0.472104 0.107957 0.312589
O63   O     O_3   0.389852 0.000570 0.918880 -0.759002
H95   H     H_    0.394879 0.972113 0.892045 0.312589
O64   O     O_3   0.610148 0.000570 0.081120 -0.759001
H96   H     H_    0.605121 0.972113 0.107955 0.312589
O65   O     O_3   0.916949 0.572479 0.898996 -0.728950
H97   H     H_    0.885966 0.582531 0.925489 0.345376
O66   O     O_3   0.083052 0.572479 0.101003 -0.728951
H98   H     H_    0.114034 0.582531 0.074511 0.345377
O67   O     O_3   0.416955 0.072485 0.898990 -0.728953
H99   H     H_    0.385974 0.082541 0.925482 0.345375
O68   O     O_3   0.583045 0.072485 0.101010 -0.728955
H100  H     H_    0.614026 0.082540 0.074518 0.345375
N9    N     N_2   0.918365 0.579244 0.769298 -0.282153
H101  H     H_    0.887441 0.593076 0.805404 0.227878
C161  C     C_3   0.954318 0.610566 0.740448 -0.636706
H102  H     H_    0.946575 0.641210 0.722285 0.205697
H103  H     H_    0.985581 0.597120 0.689978 0.251727
H104  H     H_    0.958972 0.619398 0.784973 0.279487
N10   N     N_2   0.081634 0.579244 0.230701 -0.282153
H105  H     H_    0.112559 0.593076 0.194596 0.227879
C162  C     C_3   0.045682 0.610566 0.259552 -0.636706
H106  H     H_    0.053425 0.641210 0.277715 0.205696
H107  H     H_    0.014419 0.597120 0.310022 0.251727
H108  H     H_    0.041028 0.619398 0.215027 0.279487
N11   N     N_2   0.418373 0.079251 0.769292 -0.282152
H109  H     H_    0.387450 0.093086 0.805396 0.227877
C163  C     C_3   0.454328 0.110570 0.740439 -0.636702
H110  H     H_    0.446588 0.141215 0.722273 0.205696
H111  H     H_    0.485590 0.097121 0.689970 0.251727
H112  H     H_    0.458982 0.119401 0.784964 0.279489
N12   N     N_2   0.581627 0.079251 0.230708 -0.282151
H113  H     H_    0.612550 0.093086 0.194604 0.227877
C164  C     C_3   0.545672 0.110570 0.259561 -0.636701
H114  H     H_    0.553412 0.141215 0.277727 0.205695
H115  H     H_    0.514410 0.097121 0.310030 0.251726
H116  H     H_    0.541018 0.119401 0.215036 0.279489
O69   O     O_3   0.137324 0.450214 0.270516 -0.758093
H117  H     H_    0.107022 0.461353 0.294422 0.328809
O70   O     O_3   0.862676 0.450214 0.729484 -0.758092
H118  H     H_    0.892978 0.461353 0.705578 0.328810
O71   O     O_3   0.637324 0.950217 0.270512 -0.758093
H119  H     H_    0.607022 0.961356 0.294420 0.328809
O72   O     O_3   0.362676 0.950217 0.729487 -0.758093
H120  H     H_    0.392978 0.961356 0.705580 0.328809
N13   N     N_2   0.133542 0.549887 0.454670 -0.297212
H121  H     H_    0.144041 0.543640 0.488523 0.239115
C165  C     C_3   0.132126 0.596744 0.443154 -0.733196
H122  H     H_    0.165789 0.611212 0.412193 0.223266
H123  H     H_    0.110490 0.613361 0.499344 0.234450
H124  H     H_    0.118512 0.602905 0.410078 0.260095
N14   N     N_2   0.866458 0.549887 0.545330 -0.297211
H125  H     H_    0.855959 0.543640 0.511477 0.239114
C166  C     C_3   0.867874 0.596744 0.556847 -0.733194
H126  H     H_    0.834211 0.611212 0.587807 0.223266
H127  H     H_    0.889509 0.613361 0.500657 0.234449
H128  H     H_    0.881488 0.602905 0.589922 0.260095
N15   N     N_2   0.633541 0.049883 0.454674 -0.297216
H129  H     H_    0.644041 0.043635 0.488526 0.239114
C167  C     C_3   0.632125 0.096741 0.443161 -0.733195
H130  H     H_    0.665788 0.111209 0.412202 0.223267
H131  H     H_    0.610490 0.113357 0.499352 0.234450
H132  H     H_    0.618511 0.102903 0.410087 0.260096
N16   N     N_2   0.366459 0.049883 0.545326 -0.297216
H133  H     H_    0.355959 0.043635 0.511474 0.239114
C168  C     C_3   0.367875 0.096741 0.556839 -0.733195
H134  H     H_    0.334212 0.111209 0.587799 0.223267
H135  H     H_    0.389510 0.113357 0.500648 0.234450
H136  H     H_    0.381489 0.102903 0.589914 0.260096

loop_
_geom_bond_atom_site_label_1
_geom_bond_atom_site_label_2
_ccdc_geom_bond_type
C162  H106  S    
O8    Zn12  S    
C55   C59   A    
C15   O67   S    
C108  C120  A    
C155  H66   S    
C2    O2    A    
C74   C83   A    
C147  O51   S    
O63   H95   S    
C157  H75   S    
C14   O62   S    
C85   O33   A    
C19   N11   S    
C60   C98   S    
C76   C131  S    
C110  H26   S    
O54   H54   S    
C47   C143  S    
O43   Zn7   S    
C48   C144  S    
C117  C132  A    
C142  C146  A    
C77   C122  A    
C146  C150  A    
C11   C15   S    
C12   C16   S    
C91   C100  A    
C94   O47   A    
C99   N5    S    
C141  C145  A    
C164  H116  S    
O6    Zn10  S    
O25   Zn3   S    
C49   C69   A    
C111  H27   S    
C98   O8    A    
C51   C71   A    
C73   C81   A    
C25   C29   A    
O26   Zn3   S    
C27   C31   A    
O37   Zn6   S    
O50   H50   S    
C87   O39   A    
C104  O16   A    
C150  H30   S    
C62   C66   A    
C126  C129  A    
O61   H93   S    
C82   C134  A    
C52   C72   A    
O3    Zn2   S    
C157  H74   S    
C16   C20   S    
C75   C133  A    
C146  O50   S    
C45   O25   A    
C3    C31   S    
C4    C32   S    
C93   O45   A    
C36   N16   S    
C162  H108  S    
O19   Zn4   S    
O20   Zn4   S    
N13   H121  S    
C165  H122  S    
C107  C120  A    
C41   C69   S    
N16   C168  S    
C47   O23   A    
C43   C71   S    
C21   H45   S    
O70   H118  S    
C57   C61   A    
N15   H129  S    
C56   H12   S    
O12   Zn11  S    
C59   C63   A    
C46   O22   A    
C60   C64   A    
C74   C90   S    
C50   C70   A    
C55   H11   S    
C154  H63   S    
C66   C70   A    
C49   C53   A    
C86   O38   A    
C44   C72   S    
C51   C55   A    
C153  H59   S    
O62   H94   S    
C61   C65   A    
C26   O70   S    
C24   H48   S    
C19   C139  S    
C160  H86   S    
O44   Zn8   S    
C2    O18   A    
C109  H25   S    
C116  N2    S    
C17   C137  S    
C10   C138  A    
C8    C88   S    
C52   H8    S    
N8    C160  S    
N9    H101  S    
C29   C33   A    
C133  H33   S    
C18   H42   S    
C134  H34   S    
C161  H102  S    
C112  C114  A    
C168  H134  S    
O9    Zn10  S    
C75   C134  A    
C23   C43   A    
N4    C156  S    
C50   H6    S    
O10   Zn9   S    
C5    C9    A    
C64   C68   A    
C148  O52   S    
C155  H67   S    
O49   H49   S    
C48   O28   A    
N7    C159  S    
N16   H133  S    
C42   C70   S    
O15   Zn11  S    
C126  H38   S    
C79   O29   A    
C9    C13   S    
C5    C149  A    
C139  C143  A    
C25   O69   S    
C22   C42   A    
C166  H128  S    
C89   O41   A    
O34   Zn6   S    
C85   O37   A    
O24   Zn2   S    
C112  H28   S    
C5    C85   S    
C63   H15   S    
C102  N8    S    
C105  H21   S    
N1    H57   S    
C136  H36   S    
C156  H71   S    
C49   H5    S    
C80   O32   A    
C135  H35   S    
C76   C135  A    
C7    C11   A    
C158  H79   S    
C96   O10   A    
C30   C34   A    
C10   C14   S    
C48   O24   A    
C127  H39   S    
C39   H3    S    
C82   O54   S    
C128  H40   S    
C147  C151  A    
C121  C125  A    
C125  C129  A    
C123  C127  A    
C8    C12   A    
C160  H88   S    
O7    Zn11  S    
N3    H65   S    
C27   O71   S    
C28   O72   S    
C15   O63   S    
C78   C123  A    
C103  O14   A    
O23   Zn2   S    
N10   C162  S    
C14   O66   S    
C26   C30   A    
O1    Zn1   S    
C79   C113  S    
C145  O49   S    
C163  H112  S    
O41   Zn5   S    
C168  H136  S    
O45   Zn9   S    
C75   C132  S    
N13   C165  S    
C21   C25   A    
C159  H84   S    
C97   O11   A    
C62   H14   S    
C107  C111  A    
C148  C152  A    
C74   C84   A    
N14   C166  S    
O52   H52   S    
C151  H31   S    
C92   C102  A    
C6    C86   S    
C13   C17   S    
C2    C30   S    
C45   O21   A    
C165  H124  S    
O35   Zn7   S    
C8    C152  A    
C59   C97   S    
C61   H13   S    
C37   C41   A    
C13   O61   S    
C118  C132  A    
O11   Zn12  S    
O2    Zn1   S    
C47   O27   A    
C97   O7    A    
N2    H61   S    
C38   H2    S    
C89   O42   A    
O17   Zn3   S    
C91   C99   A    
C83   O55   S    
C94   O48   A    
C164  H115  S    
C58   C62   A    
C45   C141  S    
C106  C119  A    
C3    O3    A    
O18   Zn3   S    
C92   C94   S    
O56   H56   S    
C100  C116  A    
C77   C120  S    
C1    O1    A    
C33   N13   S    
O72   H120  S    
C46   C142  S    
C15   C19   S    
N11   C163  S    
C50   C54   A    
C90   O44   A    
C99   C115  A    
C167  H132  S    
C88   O40   A    
O59   H91   S    
C18   C138  S    
C11   C139  A    
C105  C109  A    
O48   Zn12  S    
C100  N6    S    
C9    C137  A    
C7    C87   S    
C4    O20   A    
C163  H110  S    
C12   C140  A    
O31   Zn7   S    
C124  C128  A    
C117  N3    S    
C159  H82   S    
C162  H107  S    
C104  C130  S    
O53   H53   S    
C35   N15   S    
C149  H29   S    
C157  H76   S    
N5    C157  S    
C161  H104  S    
O38   Zn5   S    
N6    H77   S    
C95   O9    A    
C24   C28   A    
C16   O68   S    
C138  C142  A    
N4    H69   S    
C53   C57   A    
O5    Zn9   S    
O65   H97   S    
C98   O12   A    
C33   C37   A    
C108  C112  A    
C65   H17   S    
C35   C39   A    
O60   H92   S    
C154  H62   S    
C37   H1    S    
C122  O58   S    
C91   C93   S    
O47   Zn11  S    
O64   H96   S    
C28   C32   A    
C81   O53   S    
C106  H22   S    
N12   C164  S    
O36   Zn8   S    
C81   C133  A    
C103  C129  S    
C92   C101  A    
C21   C41   A    
O21   Zn1   S    
C24   C44   A    
C31   C35   A    
C32   C36   A    
C73   C82   A    
O68   H100  S    
C137  C141  A    
C84   C136  A    
O13   Zn9   S    
C22   H46   S    
N5    H73   S    
C140  C144  A    
C104  O15   A    
O30   Zn6   S    
C128  C130  A    
C6    C10   A    
C167  H130  S    
C161  H103  S    
C101  C117  A    
C20   C140  S    
C78   C119  S    
C153  H58   S    
C73   C89   S    
O58   H90   S    
C64   H16   S    
C68   H20   S    
C121  O57   S    
N7    H81   S    
C107  H23   S    
C65   C69   A    
C108  H24   S    
C111  C114  A    
C67   C71   A    
O57   H89   S    
C93   O46   A    
N8    H85   S    
C6    C150  A    
C56   C60   A    
C3    O19   A    
C22   C26   A    
C84   O56   S    
O39   Zn8   S    
C166  H127  S    
C105  C119  A    
C1    O17   A    
C145  C149  A    
O27   Zn4   S    
O28   Zn4   S    
C95   O5    A    
O66   H98   S    
C19   H43   S    
N2    C154  S    
C20   N12   S    
C156  H70   S    
C14   C18   S    
C17   H41   S    
N12   H113  S    
O32   Zn8   S    
C144  C148  A    
C76   C136  A    
C115  C131  A    
C158  H78   S    
C143  C147  A    
N15   C167  S    
C34   N14   S    
C38   C42   A    
C154  H64   S    
C4    O4    A    
C17   N9    S    
C18   N10   S    
C123  O59   S    
C124  O60   S    
C23   H47   S    
C153  H60   S    
C58   C96   S    
N10   H105  S    
C160  H87   S    
C23   C27   A    
C152  H32   S    
C78   C124  A    
O51   H51   S    
C103  O13   A    
C83   C135  A    
C102  C118  A    
C68   C72   A    
O4    Zn2   S    
C115  N1    S    
N9    C161  S    
C90   O43   A    
C163  H111  S    
C1    C29   S    
C168  H135  S    
C88   O36   A    
C63   C67   A    
C159  H83   S    
C118  N4    S    
C36   C40   A    
C155  H68   S    
C77   C121  A    
C13   O65   S    
C39   C43   A    
C67   H19   S    
C87   O35   A    
N6    C158  S    
C122  C126  A    
C165  H123  S    
C79   O30   A    
O46   Zn10  S    
C96   O6    A    
C40   C44   A    
O55   H55   S    
C46   O26   A    
C54   H10   S    
C109  C113  A    
C110  C113  A    
O71   H119  S    
C101  N7    S    
C80   C114  S    
N1    C153  S    
O42   Zn6   S    
C156  H72   S    
C7    C151  A    
O16   Zn12  S    
C80   O31   A    
C164  H114  S    
C54   C58   A    
C158  H80   S    
O40   Zn7   S    
C34   C38   A    
C66   H18   S    
C40   H4    S    
O29   Zn5   S    
O33   Zn5   S    
N11   H109  S    
C127  C130  A    
C86   O34   A    
O69   H117  S    
C167  H131  S    
C53   H9    S    
C166  H126  S    
C116  C131  A    
C51   H7    S    
N3    C155  S    
O22   Zn1   S    
C52   C56   A    
C106  C110  A    
C57   C95   S    
O14   Zn10  S    
C125  H37   S    
O67   H99   S    
C20   H44   S    
C16   O64   S    
N14   H125  S    
