data_mof_unit_60862.cif
_audit_creation_date              2012-12-10T19:11:07-0500
_audit_creation_method            fapswitch 2.2
_symmetry_space_group_name_H-M    P1
_symmetry_Int_Tables_number       1
_space_group_crystal_system       triclinic
_cell_length_a                    37.268592
_cell_length_b                    30.198254
_cell_length_c                    21.685913
_cell_angle_alpha                 90.000468
_cell_angle_beta                  54.227285
_cell_angle_gamma                 90.000085
_cell_volume                      19801.8900437

loop_
_atom_site_label
_atom_site_type_symbol
_atom_type_description
_atom_site_fract_x
_atom_site_fract_y
_atom_site_fract_z
_atom_type_partial_charge
C1    C     C_R   0.086177 0.500058 0.413598 0.967167
C2    C     C_R   0.913823 0.500058 0.586400 0.967156
C3    C     C_R   0.586177 0.000057 0.413600 0.967160
C4    C     C_R   0.413823 0.000058 0.586402 0.967185
C5    C     C_R   0.000854 0.496967 0.812539 -0.097584
C6    C     C_R   0.999146 0.496966 0.187461 -0.097570
C7    C     C_R   0.500854 0.996966 0.812539 -0.097583
C8    C     C_R   0.499146 0.996966 0.187461 -0.097584
C9    C     C_R   0.034995 0.475029 0.745816 -0.065034
C10   C     C_R   0.965010 0.475020 0.254178 -0.065033
C11   C     C_R   0.534989 0.975019 0.745822 -0.065037
C12   C     C_R   0.465004 0.975031 0.254185 -0.065030
C13   C     C_R   0.034632 0.476028 0.681739 -0.069530
C14   C     C_R   0.965372 0.476019 0.318256 -0.069532
C15   C     C_R   0.534628 0.976020 0.681743 -0.069523
C16   C     C_R   0.465367 0.976029 0.318261 -0.069540
C17   C     C_R   0.000828 0.499695 0.685230 -0.140496
C18   C     C_R   0.999172 0.499693 0.314770 -0.140502
C19   C     C_R   0.500828 0.999694 0.685229 -0.140488
C20   C     C_R   0.499173 0.999694 0.314769 -0.140496
C21   C     C_R   0.966772 0.520921 0.752244 0.029038
C22   C     C_R   0.033224 0.520923 0.247760 0.029042
C23   C     C_R   0.466776 0.020924 0.752240 0.029048
C24   C     C_R   0.533230 0.020917 0.247754 0.029043
C25   C     C_R   0.109975 0.476785 0.718398 -0.099834
C26   C     C_R   0.890041 0.476750 0.281548 -0.099788
C27   C     C_R   0.609954 0.976736 0.718473 -0.099764
C28   C     C_R   0.390020 0.976800 0.281620 -0.099857
C29   C     C_R   0.144127 0.456711 0.716924 -0.213701
C30   C     C_R   0.855901 0.456661 0.283003 -0.213723
C31   C     C_R   0.644085 0.956641 0.717039 -0.213729
C32   C     C_R   0.355861 0.956733 0.283106 -0.213698
C33   C     C_R   0.141637 0.411808 0.736127 -0.032963
C34   C     C_R   0.858401 0.411751 0.263825 -0.032968
C35   C     C_R   0.641576 0.911730 0.736221 -0.032958
C36   C     C_R   0.358344 0.911830 0.263901 -0.032965
C37   C     C_R   0.104884 0.386178 0.753194 -0.053636
C38   C     C_R   0.895149 0.386131 0.246808 -0.053592
C39   C     C_R   0.604831 0.886115 0.753211 -0.053587
C40   C     C_R   0.395098 0.886195 0.246816 -0.053621
C41   C     C_R   0.069754 0.407541 0.757779 -0.119894
C42   C     C_R   0.930268 0.407510 0.242234 -0.119798
C43   C     C_R   0.569720 0.907500 0.757768 -0.119777
C44   C     C_R   0.430234 0.907551 0.242220 -0.119926
C45   C     C_R   0.999739 0.499975 0.620294 0.913662
C46   C     C_R   0.000260 0.499975 0.379707 0.913661
C47   C     C_R   0.499740 0.999975 0.620293 0.913654
C48   C     C_R   0.500262 0.999975 0.379706 0.913678
C49   C     C_R   0.072007 0.452727 0.741316 0.105141
C50   C     C_R   0.928008 0.452701 0.258667 0.105043
C51   C     C_R   0.571987 0.952693 0.741338 0.105013
C52   C     C_R   0.427987 0.952736 0.258689 0.105176
C53   C     C_R   0.202764 0.472053 0.257998 -0.146636
C54   C     C_R   0.797237 0.472065 0.742009 -0.146575
C55   C     C_R   0.702764 0.972062 0.257997 -0.146573
C56   C     C_R   0.297236 0.972054 0.742000 -0.146629
C57   C     C_R   0.156963 0.471294 0.305050 -0.294023
C58   C     C_R   0.843038 0.471305 0.694959 -0.294035
C59   C     C_R   0.656963 0.971301 0.305046 -0.294037
C60   C     C_R   0.343037 0.971294 0.694948 -0.294032
C61   C     C_R   0.133964 0.500417 0.366473 -0.134114
C62   C     C_R   0.866037 0.500416 0.633521 -0.134100
C63   C     C_R   0.633963 0.000416 0.366480 -0.134099
C64   C     C_R   0.366036 0.000417 0.633527 -0.134113
C65   C     C_R   0.156714 0.530180 0.381929 0.486140
C66   C     C_R   0.843288 0.530168 0.618045 0.486151
C67   C     C_R   0.656711 0.030170 0.381954 0.486158
C68   C     C_R   0.343286 0.030182 0.618072 0.486146
C69   C     C_R   0.202713 0.528631 0.337558 -0.273245
C70   C     C_R   0.797289 0.528615 0.662410 -0.273273
C71   C     C_R   0.702710 0.028619 0.337589 -0.273296
C72   C     C_R   0.297287 0.028634 0.662443 -0.273258
C73   C     C_R   0.226098 0.500350 0.274343 0.116275
C74   C     C_R   0.773903 0.500348 0.725643 0.116284
C75   C     C_R   0.726097 0.000348 0.274359 0.116278
C76   C     C_R   0.273902 0.000352 0.725657 0.116276
C77   C     C_R   0.297955 0.539608 0.215553 -0.259804
C78   C     C_R   0.702045 0.539598 0.784383 -0.259753
C79   C     C_R   0.797955 0.039599 0.215614 -0.259824
C80   C     C_R   0.202044 0.039609 0.784449 -0.259844
C81   C     C_R   0.343986 0.539387 0.172013 0.453429
C82   C     C_R   0.656015 0.539376 0.827923 0.453385
C83   C     C_R   0.843986 0.039377 0.172071 0.453414
C84   C     C_R   0.156013 0.039387 0.827990 0.453444
C85   C     C_R   0.366611 0.500535 0.133747 -0.117251
C86   C     C_R   0.633389 0.500537 0.866250 -0.117376
C87   C     C_R   0.866611 0.000537 0.133750 -0.117329
C88   C     C_R   0.133389 0.000535 0.866253 -0.117228
C89   C     C_R   0.893891 0.605438 0.743151 -0.297222
C90   C     C_R   0.106108 0.605446 0.256836 -0.297244
C91   C     C_R   0.393884 0.105443 0.743176 -0.297247
C92   C     C_R   0.606124 0.105426 0.256831 -0.297234
C93   C     C_R   0.343928 0.461711 0.142209 -0.269752
C94   C     C_R   0.656071 0.461723 0.857839 -0.269629
C95   C     C_R   0.843929 0.961722 0.142168 -0.269661
C96   C     C_R   0.156072 0.961712 0.857787 -0.269769
C97   C     C_R   0.298142 0.461295 0.189547 -0.170282
C98   C     C_R   0.701857 0.461303 0.810494 -0.170289
C99   C     C_R   0.798143 0.961302 0.189515 -0.170281
C100  C     C_R   0.201859 0.961296 0.810447 -0.170274
C101  C     C_R   0.274671 0.500406 0.225805 0.098926
C102  C     C_R   0.725329 0.500405 0.774182 0.098886
C103  C     C_R   0.774671 0.000405 0.225821 0.098920
C104  C     C_R   0.225329 0.000407 0.774193 0.098943
C105  C     C_R   1.000000 0.413944 0.999997 1.014414
C106  C     C_R   0.500001 0.913944 0.000003 1.014400
C107  C     C_R   0.000205 0.498496 0.879547 0.908082
C108  C     C_R   0.999795 0.498495 0.120453 0.908115
C109  C     C_R   0.500205 0.998495 0.879547 0.908108
C110  C     C_R   0.499795 0.998496 0.120453 0.908088
C111  C     C_R   1.000000 0.586090 0.000000 0.871079
C112  C     C_R   0.500000 0.086090 1.000000 0.871080
C113  C     C_R   0.500000 0.414027 1.000000 0.998626
C114  C     C_R   1.000000 0.914027 1.000000 0.998615
C115  C     C_R   0.414053 0.499995 0.086035 0.945877
C116  C     C_R   0.585947 0.499998 0.913964 0.945820
C117  C     C_R   0.914053 0.999997 0.086035 0.945841
C118  C     C_R   0.085947 0.999994 0.913965 0.945891
C119  C     C_R   0.499999 0.586069 0.000001 0.962133
C120  C     C_R   0.000000 0.086069 1.000000 0.962149
C121  C     C_R   0.010328 0.297562 0.043687 -0.138870
C122  C     C_R   0.989625 0.297558 0.956376 -0.138783
C123  C     C_R   0.510382 0.797559 0.043621 -0.138748
C124  C     C_R   0.489676 0.797560 0.956314 -0.138912
C125  C     C_R   0.931391 0.586774 0.733798 -0.066292
C126  C     C_R   0.068606 0.586779 0.266198 -0.066276
C127  C     C_R   0.431389 0.086778 0.733808 -0.066286
C128  C     C_R   0.568620 0.086765 0.266193 -0.066299
C129  C     C_R   0.012268 0.343672 0.041299 0.390141
C130  C     C_R   0.987709 0.343669 0.958727 0.390396
C131  C     C_R   0.512295 0.843671 0.041271 0.390481
C132  C     C_R   0.487735 0.843669 0.958702 0.390079
C133  C     C_R   0.999996 0.366338 0.000002 -0.243106
C134  C     C_R   0.500005 0.866337 0.999999 -0.243110
C135  C     C_R   0.999973 0.274376 0.000038 0.000941
C136  C     C_R   0.500033 0.774376 0.999962 0.000885
C137  C     C_R   0.464195 0.702483 0.009750 0.443053
C138  C     C_R   0.535851 0.702468 0.990197 0.442592
C139  C     C_R   0.964153 0.202470 0.009805 0.442612
C140  C     C_R   0.035806 0.202481 0.990260 0.443010
C141  C     C_R   0.465103 0.656428 0.007442 -0.277342
C142  C     C_R   0.534919 0.656415 0.992537 -0.276867
C143  C     C_R   0.965083 0.156417 0.007464 -0.276917
C144  C     C_R   0.034897 0.156426 0.992566 -0.277339
C145  C     C_R   0.500007 0.633711 0.999994 -0.182766
C146  C     C_R   0.999994 0.133712 0.000008 -0.182688
C147  C     C_R   0.500028 0.725829 0.999964 -0.076435
C148  C     C_R   0.999975 0.225829 0.000040 -0.076378
C149  C     C_R   0.025866 0.702478 0.931103 -0.155565
C150  C     C_R   0.974130 0.702479 0.068897 -0.155564
C151  C     C_R   0.525869 0.202478 0.931101 -0.155565
C152  C     C_R   0.474131 0.202479 0.068894 -0.155566
C153  C     C_R   0.026400 0.656575 0.931293 -0.179974
C154  C     C_R   0.973598 0.656576 0.068708 -0.179977
C155  C     C_R   0.526402 0.156575 0.931291 -0.179976
C156  C     C_R   0.473598 0.156576 0.068706 -0.179977
C157  C     C_R   0.999999 0.633764 0.000000 -0.023397
C158  C     C_R   0.500000 0.133764 0.999999 -0.023397
C159  C     C_R   0.928834 0.542998 0.759693 0.059367
C160  C     C_R   0.071162 0.543000 0.240312 0.059371
C161  C     C_R   0.428836 0.042999 0.759691 0.059367
C162  C     C_R   0.571172 0.042988 0.240302 0.059358
C163  C     C_R   0.999998 0.725814 1.000000 0.165930
C164  C     C_R   0.500001 0.225814 0.999997 0.165931
C165  C     C_R   0.461059 0.297607 0.052792 -0.272833
C166  C     C_R   0.538943 0.297606 0.947203 -0.272838
C167  C     C_R   0.961057 0.797607 0.052796 -0.272835
C168  C     C_R   0.038940 0.797606 0.947203 -0.272833
C169  C     C_R   0.461339 0.343720 0.055188 0.400492
C170  C     C_R   0.538662 0.343720 0.944811 0.400489
C171  C     C_R   0.961337 0.843720 0.055189 0.400487
C172  C     C_R   0.038660 0.843719 0.944808 0.400495
C173  C     C_R   0.500000 0.366411 0.999999 -0.219790
C174  C     C_R   0.999999 0.866411 0.999999 -0.219789
C175  C     C_R   0.500000 0.274343 0.999997 -0.010078
C176  C     C_R   0.999998 0.774343 1.000000 -0.010079
C177  C     C_R   0.888971 0.519532 0.795232 -0.226652
C178  C     C_R   0.111024 0.519532 0.204781 -0.226642
C179  C     C_R   0.388976 0.019529 0.795223 -0.226641
C180  C     C_R   0.611033 0.019518 0.204760 -0.226652
C181  C     C_R   0.851866 0.538796 0.805387 -0.169153
C182  C     C_R   0.148129 0.538798 0.194620 -0.169146
C183  C     C_R   0.351868 0.038793 0.805390 -0.169142
C184  C     C_R   0.648141 0.038780 0.194597 -0.169147
C185  C     C_R   0.853962 0.581769 0.779075 0.056689
C186  C     C_R   0.146036 0.581776 0.220916 0.056672
C187  C     C_R   0.353958 0.081771 0.779099 0.056671
C188  C     C_R   0.646050 0.081753 0.220903 0.056688
C189  C     C_R   0.966880 0.518807 0.815665 -0.191322
C190  C     C_R   0.033117 0.518811 0.184339 -0.191307
C191  C     C_R   0.466884 0.018812 0.815660 -0.191309
C192  C     C_R   0.533123 0.018803 0.184334 -0.191331
H1    H     H_    0.041210 0.388813 0.771275 0.211791
H2    H     H_    0.958810 0.388790 0.228771 0.211809
H3    H     H_    0.541179 0.888785 0.771217 0.211818
H4    H     H_    0.458778 0.888818 0.228713 0.211781
H5    H     H_    0.219698 0.450777 0.208527 0.143309
H6    H     H_    0.780304 0.450801 0.791494 0.143292
H7    H     H_    0.719698 0.950796 0.208514 0.143295
H8    H     H_    0.280302 0.950778 0.791470 0.143311
H9    H     H_    0.139410 0.449022 0.292081 0.170909
H10   H     H_    0.860590 0.449042 0.707943 0.170895
H11   H     H_    0.639411 0.949037 0.292064 0.170899
H12   H     H_    0.360590 0.949021 0.707916 0.170912
H13   H     H_    0.219827 0.549158 0.353586 0.138596
H14   H     H_    0.780178 0.549130 0.646363 0.138606
H15   H     H_    0.719821 0.049137 0.353633 0.138607
H16   H     H_    0.280173 0.049163 0.646418 0.138595
H17   H     H_    0.280777 0.570528 0.240706 0.141837
H18   H     H_    0.719221 0.570514 0.759187 0.141907
H19   H     H_    0.780779 0.070516 0.240805 0.141885
H20   H     H_    0.219221 0.070530 0.759300 0.141826
H21   H     H_    0.361735 0.431554 0.113473 0.200307
H22   H     H_    0.638264 0.431573 0.886615 0.200272
H23   H     H_    0.861736 0.931571 0.113397 0.200275
H24   H     H_    0.138266 0.931554 0.886519 0.200304
H25   H     H_    0.895360 0.639085 0.724503 0.178496
H26   H     H_    0.104641 0.639095 0.275474 0.178502
H27   H     H_    0.395350 0.139092 0.724542 0.178503
H28   H     H_    0.604659 0.139073 0.275474 0.178495
H29   H     H_    0.281329 0.430261 0.197959 0.146172
H30   H     H_    0.718668 0.430273 0.802122 0.146157
H31   H     H_    0.781332 0.930272 0.197893 0.146155
H32   H     H_    0.218673 0.930262 0.802033 0.146172
H33   H     H_    0.016474 0.279960 0.080165 0.204400
H34   H     H_    0.983473 0.279952 0.919910 0.204286
H35   H     H_    0.516536 0.779955 0.080086 0.204257
H36   H     H_    0.483529 0.779957 0.919840 0.204430
H37   H     H_    0.438040 0.638435 0.013483 0.196096
H38   H     H_    0.561974 0.638412 0.986509 0.196131
H39   H     H_    0.938028 0.138415 0.013491 0.196120
H40   H     H_    0.061958 0.138432 0.986529 0.196085
H41   H     H_    0.045305 0.719588 0.877081 0.134188
H42   H     H_    0.954692 0.719590 0.122918 0.134188
H43   H     H_    0.545309 0.219588 0.877079 0.134188
H44   H     H_    0.454692 0.219591 0.122916 0.134185
H45   H     H_    0.046563 0.638844 0.877907 0.153261
H46   H     H_    0.953435 0.638846 0.122093 0.153259
H47   H     H_    0.546566 0.138844 0.877906 0.153260
H48   H     H_    0.453434 0.138846 0.122092 0.153258
H49   H     H_    0.430338 0.280173 0.091886 0.155466
H50   H     H_    0.569663 0.280172 0.908110 0.155462
H51   H     H_    0.930336 0.780174 0.091890 0.155463
H52   H     H_    0.069660 0.780172 0.908107 0.155466
H53   H     H_    0.886557 0.486148 0.815670 0.150263
H54   H     H_    0.113436 0.486146 0.184352 0.150265
H55   H     H_    0.386566 0.986142 0.815649 0.150266
H56   H     H_    0.613442 0.986134 0.184326 0.150265
H57   H     H_    0.821479 0.519906 0.833905 0.187887
H58   H     H_    0.178516 0.519906 0.166107 0.187897
H59   H     H_    0.321482 0.019900 0.833904 0.187896
H60   H     H_    0.678527 0.019886 0.166076 0.187883
H61   H     H_    0.940677 0.535221 0.867425 0.168578
H62   H     H_    0.059316 0.535229 0.132582 0.168575
H63   H     H_    0.440685 0.035231 0.867418 0.168576
H64   H     H_    0.559326 0.035214 0.132573 0.168581
H65   H     H_    0.112393 0.511565 0.704203 0.151038
H66   H     H_    0.887616 0.511534 0.295723 0.151035
H67   H     H_    0.612385 0.011521 0.704299 0.151032
H68   H     H_    0.387607 0.011579 0.295818 0.151038
H69   H     H_    0.172139 0.476719 0.702705 0.168497
H70   H     H_    0.827892 0.476660 0.297187 0.168480
H71   H     H_    0.672092 0.976637 0.702873 0.168469
H72   H     H_    0.327849 0.976745 0.297337 0.168510
O1    O     O_R   0.065470 0.536950 0.434540 -0.613195
O2    O     O_R   0.934530 0.536950 0.565460 -0.613227
O3    O     O_R   0.565470 0.036950 0.434540 -0.613228
O4    O     O_R   0.434530 0.036950 0.565460 -0.613194
O5    O     O_R   0.434520 0.500000 0.117190 -0.634583
O6    O     O_R   0.565480 0.500000 0.882810 -0.634640
O7    O     O_R   0.934520 0.000000 0.117190 -0.634605
O8    O     O_R   0.065480 0.000000 0.882810 -0.634563
O9    O     O_R   0.434520 0.500010 0.013750 -0.613366
O10   O     O_R   0.565480 0.500010 0.986250 -0.613375
O11   O     O_R   0.934520 0.000010 0.013750 -0.613384
O12   O     O_R   0.065480 0.000010 0.986250 -0.613373
O13   O     O_R   0.500000 0.565470 0.051720 -0.621353
O14   O     O_R   0.500000 0.565470 0.948280 -0.621319
O15   O     O_R   0.000000 0.065470 0.051720 -0.621340
O16   O     O_R   1.000000 0.065470 0.948280 -0.621364
O17   O     O_R   0.065450 0.463030 0.434550 -0.621162
O18   O     O_R   0.934550 0.463030 0.565450 -0.621156
O19   O     O_R   0.565450 0.963030 0.434550 -0.621161
O20   O     O_R   0.434550 0.963030 0.565450 -0.621162
O21   O     O_R   0.000000 0.536950 0.591620 -0.620735
O22   O     O_R   0.000000 0.536950 0.408380 -0.620752
O23   O     O_R   0.500000 0.036950 0.591620 -0.620757
O24   O     O_R   0.500000 0.036950 0.408380 -0.620739
O25   O     O_R   0.999990 0.463030 0.591630 -0.623364
O26   O     O_R   0.000010 0.463030 0.408370 -0.623361
O27   O     O_R   0.499990 0.963030 0.591630 -0.623360
O28   O     O_R   0.500010 0.963030 0.408370 -0.623366
O29   O     O_R   0.963040 0.434500 0.036950 -0.620601
O30   O     O_R   0.036960 0.434500 0.963050 -0.620608
O31   O     O_R   0.463040 0.934500 0.036950 -0.620622
O32   O     O_R   0.536960 0.934500 0.963050 -0.620590
O33   O     O_R   0.963030 0.499970 0.945350 -0.633992
O34   O     O_R   0.036970 0.499970 0.054650 -0.633986
O35   O     O_R   0.463030 0.999970 0.945350 -0.633981
O36   O     O_R   0.536970 0.999970 0.054650 -0.633995
O37   O     O_R   0.036950 0.499990 0.871430 -0.619658
O38   O     O_R   0.963050 0.499990 0.128570 -0.619672
O39   O     O_R   0.536950 0.999990 0.871430 -0.619672
O40   O     O_R   0.463050 0.999990 0.128570 -0.619656
O41   O     O_R   0.963030 0.565430 0.036970 -0.619616
O42   O     O_R   0.036970 0.565430 0.963030 -0.619612
O43   O     O_R   0.463030 0.065430 0.036970 -0.619611
O44   O     O_R   0.536970 0.065430 0.963030 -0.619617
O45   O     O_R   0.499980 0.434540 0.051730 -0.626136
O46   O     O_R   0.500020 0.434540 0.948270 -0.626145
O47   O     O_R   0.999980 0.934540 0.051730 -0.626146
O48   O     O_R   0.000020 0.934540 0.948270 -0.626138
Zn1   Zn    Zn3+2 0.000000 0.549340 0.500000 0.976884
Zn2   Zn    Zn3+2 0.500000 0.049340 0.500000 0.976845
Zn3   Zn    Zn3+2 0.000000 0.450640 0.500000 1.016194
Zn4   Zn    Zn3+2 0.500000 0.950640 0.500000 1.016191
Zn5   Zn    Zn3+2 0.950630 0.499960 0.049360 0.978073
Zn6   Zn    Zn3+2 0.049370 0.499960 0.950640 0.978099
Zn7   Zn    Zn3+2 0.450630 0.999960 0.049360 0.978103
Zn8   Zn    Zn3+2 0.549370 0.999960 0.950640 0.978067
Zn9   Zn    Zn3+2 0.499990 0.500000 0.069080 0.983186
Zn10  Zn    Zn3+2 0.500010 0.500000 0.930920 0.983159
Zn11  Zn    Zn3+2 0.999990 0.000000 0.069080 0.983166
Zn12  Zn    Zn3+2 0.000010 0.000000 0.930920 0.983192
C193  C     C_2   0.814206 0.602059 0.790543 0.869023
O49   O     O_2   0.816165 0.639165 0.766111 -0.647922
O50   O     O_R   0.774186 0.578859 0.829793 -0.810038
H73   H     H_    0.749486 0.596296 0.834379 0.349845
C194  C     C_2   0.185795 0.602070 0.209430 0.869007
O51   O     O_2   0.183839 0.639179 0.233851 -0.647922
O52   O     O_R   0.225816 0.578870 0.170175 -0.810041
H74   H     H_    0.250519 0.596313 0.165570 0.349826
C195  C     C_2   0.314196 0.102063 0.790593 0.869008
O53   O     O_2   0.316148 0.139173 0.766179 -0.647923
O54   O     O_R   0.274177 0.078861 0.829848 -0.810040
H75   H     H_    0.249471 0.096302 0.834459 0.349827
C196  C     C_2   0.685811 0.102040 0.209422 0.869033
O55   O     O_2   0.683858 0.139146 0.233849 -0.647929
O56   O     O_R   0.725830 0.078837 0.170165 -0.810032
H76   H     H_    0.750533 0.096272 0.165570 0.349849
C197  C     C_2   0.176457 0.393792 0.742204 0.966669
O57   O     O_2   0.214820 0.405904 0.697696 -0.617823
O58   O     O_R   0.165143 0.364525 0.800971 -0.816041
H77   H     H_    0.191655 0.355071 0.799744 0.345876
C198  C     C_2   0.823600 0.393717 0.257716 0.966705
O59   O     O_2   0.785233 0.405824 0.302195 -0.617843
O60   O     O_R   0.834935 0.364437 0.198951 -0.815979
H78   H     H_    0.808434 0.354974 0.200150 0.345790
C199  C     C_2   0.676363 0.893692 0.742365 0.966720
O61   O     O_2   0.714734 0.905794 0.697905 -0.617848
O62   O     O_R   0.665008 0.864416 0.801144 -0.815982
H79   H     H_    0.691500 0.854951 0.799970 0.345767
C200  C     C_2   0.323516 0.893821 0.257841 0.966645
O63   O     O_2   0.285156 0.905941 0.302355 -0.617819
O64   O     O_R   0.334818 0.864550 0.199084 -0.816050
H80   H     H_    0.308300 0.855100 0.200325 0.345892
C201  C     C_2   0.103680 0.337073 0.760539 0.947568
O65   O     O_2   0.068354 0.317470 0.793990 -0.641143
O66   O     O_R   0.142927 0.312797 0.725696 -0.780613
H81   H     H_    0.137567 0.279725 0.734137 0.334703
C202  C     C_2   0.896355 0.337023 0.239512 0.947599
O67   O     O_2   0.931679 0.317418 0.206128 -0.641278
O68   O     O_R   0.857109 0.312746 0.274327 -0.780631
H82   H     H_    0.862469 0.279672 0.265929 0.334606
C203  C     C_2   0.603621 0.837005 0.760498 0.947589
O69   O     O_2   0.568298 0.817401 0.793833 -0.641258
O70   O     O_R   0.642865 0.812728 0.725728 -0.780645
H83   H     H_    0.637504 0.779653 0.734112 0.334584
C204  C     C_2   0.396297 0.837092 0.239464 0.947566
O71   O     O_2   0.431623 0.817486 0.205974 -0.641176
O72   O     O_R   0.357046 0.812819 0.274341 -0.780612
H84   H     H_    0.362403 0.779747 0.265891 0.334701
O73   O     O_3   0.133751 0.556996 0.445622 -0.575188
C205  C     C_3   0.136929 0.601373 0.422485 0.085773
H85   H     H_    0.127360 0.604778 0.382664 0.156318
H86   H     H_    0.171113 0.614179 0.394771 0.147562
C206  C     C_3   0.105405 0.629601 0.492057 -0.673821
H87   H     H_    0.114282 0.627670 0.532764 0.256041
H88   H     H_    0.107380 0.664640 0.474796 0.202847
H89   H     H_    0.070982 0.617592 0.520391 0.284425
O74   O     O_3   0.866253 0.556974 0.554341 -0.575190
C207  C     C_3   0.863072 0.601355 0.577462 0.085746
H90   H     H_    0.872633 0.604772 0.617291 0.156336
H91   H     H_    0.828889 0.614160 0.605159 0.147573
C208  C     C_3   0.894601 0.629575 0.507881 -0.673789
H92   H     H_    0.885732 0.627632 0.467165 0.256045
H93   H     H_    0.892624 0.664618 0.525129 0.202855
H94   H     H_    0.929023 0.617567 0.479564 0.284424
O75   O     O_3   0.633745 0.056979 0.445654 -0.575186
C209  C     C_3   0.636926 0.101359 0.422525 0.085752
H95   H     H_    0.627392 0.104768 0.382658 0.156296
H96   H     H_    0.671105 0.114171 0.394866 0.147566
C210  C     C_3   0.605367 0.129575 0.492099 -0.673680
H97   H     H_    0.614206 0.127642 0.532856 0.256070
H98   H     H_    0.607345 0.164617 0.474844 0.202819
H99   H     H_    0.570949 0.117561 0.520377 0.284372
O76   O     O_3   0.366250 0.056998 0.554381 -0.575191
C211  C     C_3   0.363073 0.101374 0.577522 0.085784
H100  H     H_    0.372611 0.104774 0.617386 0.156274
H101  H     H_    0.328894 0.114189 0.605192 0.147554
C212  C     C_3   0.394631 0.129595 0.507955 -0.673702
H102  H     H_    0.385790 0.127669 0.467200 0.256068
H103  H     H_    0.392653 0.164635 0.525220 0.202811
H104  H     H_    0.429049 0.117580 0.479670 0.284364
O77   O     O_3   0.367103 0.577688 0.162585 -0.631059
C213  C     C_3   0.364071 0.585460 0.229740 0.089141
H105  H     H_    0.374351 0.555705 0.246331 0.151348
H106  H     H_    0.329703 0.594788 0.277333 0.141088
C214  C     C_3   0.394655 0.623398 0.216584 -0.796835
H107  H     H_    0.384362 0.654173 0.203041 0.232868
H108  H     H_    0.393133 0.629050 0.268661 0.213539
H109  H     H_    0.429227 0.615332 0.168889 0.269265
O78   O     O_3   0.632904 0.577667 0.837276 -0.630999
C215  C     C_3   0.635876 0.585332 0.770150 0.089210
H110  H     H_    0.625521 0.555548 0.753751 0.151408
H111  H     H_    0.670244 0.594585 0.722452 0.141056
C216  C     C_3   0.605330 0.623288 0.783214 -0.796709
H112  H     H_    0.615726 0.654100 0.796473 0.232906
H113  H     H_    0.606766 0.628820 0.731192 0.213512
H114  H     H_    0.570767 0.615319 0.831063 0.269269
O79   O     O_3   0.867100 0.077669 0.162707 -0.631009
C217  C     C_3   0.864102 0.085361 0.229848 0.089188
H115  H     H_    0.874412 0.055578 0.246327 0.151362
H116  H     H_    0.829738 0.094657 0.277499 0.141082
C218  C     C_3   0.894679 0.123292 0.216756 -0.796729
H117  H     H_    0.884339 0.154101 0.203389 0.232906
H118  H     H_    0.893211 0.128856 0.268802 0.213509
H119  H     H_    0.929242 0.115273 0.168968 0.269287
O80   O     O_3   0.132894 0.077687 0.837421 -0.631066
C219  C     C_3   0.135940 0.085471 0.770256 0.089130
H120  H     H_    0.125686 0.055714 0.753622 0.151324
H121  H     H_    0.170306 0.094822 0.722689 0.141099
C220  C     C_3   0.105338 0.123393 0.783425 -0.796826
H122  H     H_    0.115596 0.154168 0.797032 0.232876
H123  H     H_    0.106882 0.129062 0.731331 0.213537
H124  H     H_    0.070765 0.115299 0.831083 0.269273
O81   O     O_3   0.021297 0.367045 0.085646 -0.618646
C221  C     C_3   0.066434 0.362172 0.055339 0.109621
H125  H     H_    0.088029 0.371000 0.993788 0.163287
H126  H     H_    0.073664 0.327650 0.062943 0.161129
C222  C     C_3   0.077513 0.393148 0.097332 -0.808973
H127  H     H_    0.056212 0.385614 0.159127 0.261138
H128  H     H_    0.112704 0.388957 0.075380 0.209817
H129  H     H_    0.072054 0.428047 0.088669 0.260981
O82   O     O_3   0.978695 0.367040 0.914359 -0.618645
C223  C     C_3   0.933560 0.362178 0.944649 0.109520
H130  H     H_    0.911958 0.371012 0.006199 0.163290
H131  H     H_    0.926324 0.327657 0.937048 0.161032
C224  C     C_3   0.922499 0.393155 0.902633 -0.808935
H132  H     H_    0.943806 0.385615 0.840839 0.261149
H133  H     H_    0.887308 0.388973 0.924571 0.209801
H134  H     H_    0.927962 0.428054 0.911291 0.260967
O83   O     O_3   0.521309 0.867044 0.085639 -0.618653
C225  C     C_3   0.566445 0.862183 0.055348 0.109488
H135  H     H_    0.588047 0.871015 0.993797 0.163316
H136  H     H_    0.573681 0.827663 0.062951 0.161004
C226  C     C_3   0.577504 0.893165 0.097363 -0.808903
H137  H     H_    0.556193 0.885632 0.159160 0.261150
H138  H     H_    0.612693 0.888980 0.075434 0.209792
H139  H     H_    0.572046 0.928064 0.088694 0.260960
O84   O     O_3   0.478704 0.867040 0.914355 -0.618634
C227  C     C_3   0.433565 0.862174 0.944677 0.109647
H140  H     H_    0.411976 0.871019 0.006221 0.163278
H141  H     H_    0.426324 0.827649 0.937103 0.161131
C228  C     C_3   0.422488 0.893138 0.902668 -0.808955
H142  H     H_    0.443781 0.885584 0.840879 0.261138
H143  H     H_    0.387293 0.888955 0.924635 0.209817
H144  H     H_    0.427960 0.928039 0.911296 0.260970
O85   O     O_3   0.428993 0.724739 0.018811 -0.619517
C229  C     C_3   0.394683 0.728201 0.097119 0.079076
H145  H     H_    0.407183 0.737538 0.131251 0.151191
H146  H     H_    0.376539 0.696245 0.118257 0.167201
C230  C     C_3   0.362544 0.763974 0.108842 -0.759580
H147  H     H_    0.348799 0.755721 0.076572 0.254181
H148  H     H_    0.334961 0.766602 0.170156 0.235442
H149  H     H_    0.379890 0.796337 0.088806 0.260934
O86   O     O_3   0.571061 0.724699 0.981146 -0.619443
C231  C     C_3   0.605300 0.728299 0.902823 0.079183
H150  H     H_    0.592731 0.738048 0.868965 0.151681
H151  H     H_    0.623275 0.696273 0.881308 0.166825
C232  C     C_3   0.637677 0.763744 0.891246 -0.759189
H152  H     H_    0.651532 0.755031 0.923173 0.254260
H153  H     H_    0.665162 0.766524 0.829896 0.235370
H154  H     H_    0.620499 0.796169 0.911762 0.260505
O87   O     O_3   0.928943 0.224704 0.018860 -0.619452
C233  C     C_3   0.894695 0.228285 0.097181 0.079161
H155  H     H_    0.907254 0.237978 0.131078 0.151617
H156  H     H_    0.876699 0.196267 0.118642 0.166863
C234  C     C_3   0.862348 0.263774 0.108780 -0.759200
H157  H     H_    0.848509 0.255124 0.076805 0.254250
H158  H     H_    0.834850 0.266531 0.170127 0.235363
H159  H     H_    0.879547 0.296193 0.088334 0.260545
O88   O     O_3   0.071005 0.224736 0.981213 -0.619527
C235  C     C_3   0.105326 0.228186 0.902908 0.079077
H160  H     H_    0.092840 0.237530 0.868760 0.151169
H161  H     H_    0.123461 0.196224 0.881783 0.167204
C236  C     C_3   0.137474 0.263944 0.891193 -0.759617
H162  H     H_    0.151210 0.255679 0.923472 0.254179
H163  H     H_    0.165060 0.266569 0.829881 0.235426
H164  H     H_    0.120136 0.296311 0.911230 0.260954
O89   O     O_3   0.423083 0.367042 0.106991 -0.625716
C237  C     C_3   0.412739 0.361436 0.180428 0.105024
H165  H     H_    0.441682 0.369424 0.181255 0.151839
H166  H     H_    0.401708 0.326921 0.200817 0.143512
C238  C     C_3   0.375209 0.392581 0.235410 -0.803799
H167  H     H_    0.345653 0.385515 0.236330 0.257758
H168  H     H_    0.366403 0.387959 0.293547 0.215151
H169  H     H_    0.385563 0.427471 0.217819 0.260104
O90   O     O_3   0.576920 0.367043 0.893019 -0.625696
C239  C     C_3   0.587274 0.361438 0.819574 0.105047
H170  H     H_    0.558336 0.369427 0.818733 0.151826
H171  H     H_    0.598309 0.326924 0.799184 0.143506
C240  C     C_3   0.624807 0.392585 0.764605 -0.803805
H172  H     H_    0.654357 0.385520 0.763702 0.257772
H173  H     H_    0.633623 0.387964 0.706462 0.215133
H174  H     H_    0.614450 0.427475 0.782197 0.260081
O91   O     O_3   0.923080 0.867044 0.106984 -0.625699
C241  C     C_3   0.912730 0.861440 0.180426 0.105046
H175  H     H_    0.941670 0.869430 0.181262 0.151830
H176  H     H_    0.901698 0.826926 0.200817 0.143506
C242  C     C_3   0.875198 0.892587 0.235399 -0.803808
H177  H     H_    0.845646 0.885520 0.236306 0.257771
H178  H     H_    0.866384 0.887966 0.293540 0.215132
H179  H     H_    0.885553 0.927477 0.217807 0.260087
O92   O     O_3   0.076916 0.867041 0.893005 -0.625715
C243  C     C_3   0.087259 0.861434 0.819568 0.105020
H180  H     H_    0.058315 0.869424 0.818742 0.151841
H181  H     H_    0.098290 0.826919 0.799179 0.143513
C244  C     C_3   0.124789 0.892579 0.764585 -0.803787
H182  H     H_    0.154345 0.885512 0.763665 0.257756
H183  H     H_    0.133595 0.887957 0.706449 0.215153
H184  H     H_    0.114436 0.927469 0.782178 0.260105
C245  C     C_2   0.972206 0.614060 0.698858 0.967701
O93   O     O_2   0.994578 0.611659 0.723124 -0.582314
O94   O     O_R   0.985623 0.642997 0.638596 -0.783498
H185  H     H_    0.968022 0.639679 0.616819 0.294249
C246  C     C_2   0.027791 0.614066 0.301137 0.967672
O95   O     O_2   0.005417 0.611661 0.276876 -0.582324
O96   O     O_R   0.014376 0.643006 0.361394 -0.783501
H186  H     H_    0.031980 0.639692 0.383167 0.294249
C247  C     C_2   0.472203 0.114066 0.698868 0.967683
O97   O     O_2   0.494580 0.111661 0.723123 -0.582319
O98   O     O_R   0.485613 0.143009 0.638616 -0.783503
H187  H     H_    0.468008 0.139693 0.616845 0.294240
C248  C     C_2   0.527807 0.114056 0.301135 0.967717
O99   O     O_2   0.505432 0.111657 0.276874 -0.582315
O100  O     O_R   0.514395 0.142993 0.361395 -0.783496
H188  H     H_    0.531998 0.139673 0.383167 0.294240
C249  C     C_2   0.070341 0.453544 0.610691 0.929999
O101  O     O_2   0.076529 0.413797 0.610881 -0.622134
O102  O     O_R   0.096973 0.478000 0.543982 -0.771001
H189  H     H_    0.120675 0.459143 0.500083 0.341929
C250  C     C_2   0.929668 0.453530 0.389300 0.930014
O103  O     O_2   0.923493 0.413780 0.389106 -0.622159
O104  O     O_R   0.903027 0.477983 0.456010 -0.770982
H190  H     H_    0.879331 0.459121 0.499907 0.341929
C251  C     C_2   0.570334 0.953532 0.610697 0.930005
O105  O     O_2   0.576508 0.913782 0.610886 -0.622157
O106  O     O_R   0.596976 0.977988 0.543991 -0.770986
H191  H     H_    0.620673 0.959126 0.500093 0.341927
C252  C     C_2   0.429659 0.953545 0.389309 0.930001
O107  O     O_2   0.423467 0.913799 0.389115 -0.622133
O108  O     O_R   0.403030 0.978001 0.456020 -0.771007
H192  H     H_    0.379327 0.959143 0.499917 0.341929

loop_
_geom_bond_atom_site_label_1
_geom_bond_atom_site_label_2
_ccdc_geom_bond_type
C111  O42   A    
C99   C103  A    
C120  C146  S    
C201  O65   D    
C55   C59   A    
C250  O103  D    
O12   Zn11  S    
C77   C101  A    
C40   C204  S    
C243  C244  S    
C47   O27   A    
C196  O55   D    
C89   C125  A    
O81   C221  S    
C230  H149  S    
C150  C163  A    
O9    Zn10  S    
C207  H90   S    
C112  C158  S    
O23   Zn2   S    
O19   Zn4   S    
C26   C50   A    
C227  H141  S    
C120  O16   A    
C123  H35   S    
C29   C33   A    
C100  C104  A    
C228  H144  S    
C121  H33   S    
C31   H71   S    
C218  H117  S    
C32   H72   S    
C149  C153  A    
O14   Zn10  S    
C206  H89   S    
C41   H1    S    
C170  O90   S    
C117  O7    A    
C178  H54   S    
C11   C15   A    
C55   H7    S    
C12   C16   A    
C186  C194  S    
C172  C174  A    
C224  H133  S    
C110  O36   A    
C70   C74   A    
C151  C155  A    
C22   C190  A    
C13   C249  S    
C141  C145  A    
O4    Zn2   S    
C38   C202  S    
C73   C101  S    
C212  H103  S    
C168  H52   S    
C155  C158  A    
C75   C103  S    
C21   C159  S    
C125  C245  S    
C41   C49   A    
C200  O64   S    
C144  H40   S    
C99   H31   S    
C165  C169  A    
C237  H166  S    
C94   H22   S    
C27   C31   A    
O108  H192  S    
C46   O22   A    
C28   C32   A    
O43   Zn7   S    
C105  O30   A    
O44   Zn8   S    
C62   C66   A    
C222  H129  S    
C209  H96   S    
C90   C186  A    
C251  O105  D    
C113  O45   A    
C106  O32   A    
C30   H70   S    
C15   C19   A    
C220  H122  S    
C115  O9    A    
O29   Zn5   S    
O64   H80   S    
C36   C40   A    
C68   C72   A    
C220  H124  S    
C128  C162  A    
C90   C126  A    
C121  C135  A    
C83   O79   S    
C160  C178  A    
C178  C182  A    
C91   C127  A    
C14   C250  S    
C129  C133  A    
C180  H56   S    
C67   O75   S    
C3    C63   S    
C245  O94   S    
O74   C207  S    
C226  H139  S    
C213  H106  S    
C165  H49   S    
C15   C251  S    
C126  C246  S    
C105  C133  S    
C5    C107  S    
C223  H131  S    
C53   C73   A    
C84   C88   A    
O32   Zn8   S    
C119  O13   A    
O47   Zn11  S    
C57   C61   A    
C241  H175  S    
C152  H44   S    
O31   Zn7   S    
C210  H97   S    
C59   C63   A    
C96   H24   S    
C130  O82   S    
C60   C64   A    
C169  O89   S    
C156  C158  A    
C246  O95   D    
C53   H5    S    
C249  O102  S    
C203  O69   D    
C1    O17   A    
O91   C241  S    
C8    C192  A    
O75   C209  S    
C95   C99   A    
C35   C199  S    
O82   C223  S    
C219  H121  S    
O16   Zn12  S    
C5    C189  A    
O54   H75   S    
C61   C65   A    
C114  C174  S    
C58   H10   S    
C132  C134  A    
O66   H81   S    
C45   O25   A    
C189  H61   S    
C138  O86   S    
C236  H163  S    
C214  H107  S    
O77   C213  S    
C180  C184  A    
C56   H8    S    
C79   C83   A    
C199  O61   D    
O62   H79   S    
O33   Zn5   S    
C234  H157  S    
C117  O11   A    
C106  O31   A    
C232  H154  S    
C241  C242  S    
C118  O12   A    
C212  H102  S    
C68   O76   S    
C72   H16   S    
C66   C70   A    
O80   C219  S    
C247  O97   D    
C114  O48   A    
C64   C68   A    
C17   C45   S    
C19   C47   S    
C142  H38   S    
C2    O2    A    
C124  C132  A    
C233  C234  S    
C43   H3    S    
C193  O50   S    
C205  H85   S    
C239  H171  S    
C107  O37   A    
C85   C93   A    
C60   H12   S    
C172  O92   S    
C87   C95   A    
C225  H135  S    
O8    Zn12  S    
C161  C179  A    
C78   H18   S    
C162  C180  A    
C223  C224  S    
C80   H20   S    
C25   H65   S    
C44   C52   A    
C54   C74   A    
O89   C237  S    
C194  O52   S    
C79   C103  A    
C233  H155  S    
O85   C229  S    
C216  H113  S    
C27   C51   A    
C232  H152  S    
C118  O8    A    
C197  O58   S    
C210  H99   S    
C235  H161  S    
C139  C148  A    
C238  H168  S    
C30   C34   A    
C152  C156  A    
O2    Zn1   S    
C9    C49   S    
C10   C14   A    
O39   Zn8   S    
C229  H145  S    
O40   Zn7   S    
C252  O108  S    
C149  H41   S    
C240  H173  S    
C205  C206  S    
C231  H151  S    
C5    C9    A    
O87   C233  S    
C8    C110  S    
C242  H178  S    
C21   C189  A    
O98   H187  S    
C8    C12   A    
C151  H43   S    
C225  C226  S    
C244  H182  S    
C24   C192  A    
C214  H109  S    
C234  H158  S    
C218  H118  S    
C42   C50   A    
C131  O83   S    
C166  C170  A    
C167  H51   S    
C217  H115  S    
O42   Zn6   S    
C243  H181  S    
C88   C118  S    
C93   C97   A    
C212  H104  S    
C111  O41   A    
C226  H137  S    
C91   C187  A    
C18   C22   A    
C89   C185  A    
O28   Zn4   S    
C229  C230  S    
C115  O5    A    
C26   C30   A    
C36   C200  S    
C230  H148  S    
C154  H46   S    
C69   H13   S    
C248  O100  S    
C13   C17   A    
O5    Zn9   S    
C182  H58   S    
O76   C211  S    
C227  C228  S    
C22   C160  S    
C211  H100  S    
C177  C181  A    
C98   H30   S    
C71   H15   S    
C4    O20   A    
O1    Zn1   S    
C37   C41   A    
C231  H150  S    
C90   H26   S    
C40   C44   A    
C217  C218  S    
C201  O66   S    
C224  H132  S    
C57   H9    S    
O96   H186  S    
C82   O78   S    
C169  C173  A    
C143  H39   S    
O88   C235  S    
C237  C238  S    
C81   C85   A    
C236  H162  S    
C208  H93   S    
O30   Zn6   S    
C58   C62   A    
C143  C146  A    
C83   C87   A    
C88   C96   A    
O78   C215  S    
C78   C102  A    
C226  H138  S    
O100  H188  S    
C80   C84   A    
C131  C134  A    
C200  O63   D    
O35   Zn7   S    
C2    O18   A    
O36   Zn8   S    
O10   Zn9   S    
C79   H19   S    
C202  O68   S    
C166  C175  A    
O79   C217  S    
C80   C104  A    
C195  O53   D    
C105  O29   A    
C87   C117  S    
O90   C239  S    
C9    C13   A    
C222  H128  S    
C94   C98   A    
C141  H37   S    
O72   H84   S    
C122  H34   S    
C150  H42   S    
C244  H184  S    
C45   O21   A    
C168  C176  A    
C182  C186  A    
O15   Zn11  S    
C129  O81   S    
C221  H125  S    
C196  O56   S    
C177  H53   S    
C112  O44   A    
C220  H123  S    
C33   C197  S    
O68   H82   S    
C69   C73   A    
C198  O60   S    
O18   Zn3   S    
C66   O74   S    
C72   C76   A    
C74   C102  S    
C195  O54   S    
C155  H47   S    
O25   Zn3   S    
C245  O93   D    
C25   C29   A    
C250  O104  S    
C142  C145  A    
C7    C191  A    
C119  O14   A    
C116  O6    A    
C18   C46   S    
C12   C52   S    
C251  O106  S    
C184  C188  A    
C171  C174  A    
C207  H91   S    
C44   H4    S    
C124  C136  A    
C93   H21   S    
C85   C115  S    
C3    O3    A    
C154  C157  A    
C144  C146  A    
C138  C142  A    
O60   H78   S    
C53   C57   A    
C227  H140  S    
C120  O15   A    
C241  H176  S    
C207  C208  S    
O48   Zn12  S    
C33   C37   A    
C56   C60   A    
O27   Zn4   S    
C221  C222  S    
C35   C39   A    
C76   C104  S    
C249  O101  D    
C48   O28   A    
C98   C102  A    
C210  H98   S    
C127  C247  S    
O56   H76   S    
C26   H66   S    
C77   C81   A    
C224  H134  S    
O7    Zn11  S    
C92   C188  A    
O11   Zn12  S    
C211  H101  S    
C233  H156  S    
C219  C220  S    
C20   C48   S    
C107  O33   A    
C215  H110  S    
C166  H50   S    
C31   C35   A    
C130  C133  A    
C232  H153  S    
C10   C50   S    
C32   C36   A    
C208  H92   S    
C137  C141  A    
C237  H165  S    
C65   O73   S    
C123  C131  A    
C137  C147  A    
C140  C144  A    
C121  C129  A    
O41   Zn5   S    
C1    C61   S    
C6    C10   A    
C167  C171  A    
C125  C159  A    
C209  H95   S    
O46   Zn10  S    
C108  O34   A    
C119  C145  S    
C4    C64   S    
C113  O46   A    
C240  H174  S    
C111  C157  S    
C132  O84   S    
O52   H74   S    
C47   O23   A    
C246  O96   S    
C244  H183  S    
C82   C86   A    
C48   O24   A    
C43   C51   A    
C112  O43   A    
C65   C69   A    
C185  C193  S    
C67   C71   A    
C153  C157  A    
C193  O49   D    
C25   C49   A    
C122  C135  A    
C59   H11   S    
C168  C172  A    
C190  H62   S    
C213  H105  S    
C225  H136  S    
C126  C160  A    
C170  C173  A    
C17   C21   A    
C71   C75   A    
O58   H77   S    
C109  O39   A    
C223  H130  S    
C56   C76   A    
C110  O40   A    
C95   H23   S    
C194  O51   D    
C14   C18   A    
C19   C23   A    
O70   H83   S    
C215  H111  S    
O24   Zn2   S    
O104  H190  S    
C140  C148  A    
C209  C210  S    
C23   C191  A    
C216  H112  S    
C139  O87   S    
C197  O57   D    
C156  H48   S    
C7    C11   A    
C215  C216  S    
C235  C236  S    
C238  H167  S    
O86   C231  S    
C188  C196  S    
C164  C175  S    
C184  H60   S    
C128  C248  S    
C38   C42   A    
C183  C187  A    
C203  O70   S    
C46   O26   A    
C229  H146  S    
C100  H32   S    
O22   Zn1   S    
C96   C100  A    
O37   Zn6   S    
C86   C116  S    
C240  H172  S    
C28   H68   S    
C92   H28   S    
C78   C82   A    
C219  H120  S    
C86   C94   A    
C228  H143  S    
C20   C24   A    
C213  C214  S    
C248  O99   D    
C29   H69   S    
O94   H185  S    
C149  C163  A    
C214  H108  S    
O3    Zn2   S    
O45   Zn9   S    
C242  H177  S    
O34   Zn6   S    
C16   C20   A    
C208  H94   S    
C187  C195  S    
C3    O19   A    
C34   C198  S    
C199  O62   S    
C217  H116  S    
C211  C212  S    
C139  C143  A    
C159  C177  A    
C192  H64   S    
C81   O77   S    
C163  C176  S    
C92   C128  A    
C140  O88   S    
C124  H36   S    
C84   O80   S    
C179  C183  A    
O20   Zn4   S    
O6    Zn10  S    
C63   C67   A    
C206  H88   S    
O38   Zn5   S    
C114  O47   A    
C39   C203  S    
C16   C252  S    
O102  H189  S    
C181  C185  A    
C39   C43   A    
C231  C232  S    
C230  H147  S    
C7    C109  S    
C191  H63   S    
O84   C227  S    
C239  H170  S    
O106  H191  S    
C106  C134  S    
C138  C147  A    
C6    C190  A    
C228  H142  S    
C151  C164  A    
C116  O10   A    
C206  H87   S    
C152  C164  A    
C183  H59   S    
O21   Zn1   S    
C252  O107  D    
C150  C154  A    
C42   H2    S    
C37   C201  S    
C216  H114  S    
C113  C173  S    
C204  O71   D    
C54   C58   A    
C171  O91   S    
C235  H160  S    
C238  H169  S    
C137  O85   S    
C165  C175  A    
O13   Zn9   S    
C34   C38   A    
C24   C162  S    
C4    O4    A    
C109  O35   A    
C179  H55   S    
C77   H17   S    
C70   H14   S    
C242  H179  S    
C27   H67   S    
C202  O67   D    
C54   H6    S    
C153  H45   S    
C123  C136  A    
C236  H164  S    
C55   C75   A    
C247  O98   S    
C181  H57   S    
O73   C205  S    
O50   H73   S    
C28   C52   A    
C222  H127  S    
O26   Zn3   S    
C218  H119  S    
C205  H86   S    
C97   H29   S    
C91   H27   S    
O83   C225  S    
C234  H159  S    
C221  H126  S    
C136  C147  S    
C11   C51   S    
C89   H25   S    
C1    O1    A    
C127  C161  A    
C135  C148  S    
C239  C240  S    
C6    C108  S    
C243  H180  S    
O17   Zn3   S    
C204  O72   S    
C198  O59   D    
O92   C243  S    
C122  C130  A    
C97   C101  A    
C2    C62   S    
C167  C176  A    
C23   C161  S    
C108  O38   A    
