data_mof_unit_67281.cif
_audit_creation_date              2013-03-05T16:01:59-0500
_audit_creation_method            fapswitch 2.2
_symmetry_space_group_name_H-M    P1
_symmetry_Int_Tables_number       1
_space_group_crystal_system       triclinic
_cell_length_a                    8.380127
_cell_length_b                    14.654281
_cell_length_c                    14.980563
_cell_angle_alpha                 94.926697
_cell_angle_beta                  98.0157
_cell_angle_gamma                 92.854017
_cell_volume                      1811.41905307

loop_
_atom_site_label
_atom_site_type_symbol
_atom_site_description
_atom_site_fract_x
_atom_site_fract_y
_atom_site_fract_z
_atom_type_partial_charge
P1    P     P_3+3 0.018620 0.416870 0.295980 0.536729
O1    O     O_2   0.841250 0.444240 0.280450 -0.376270
O2    O     O_3   0.112870 0.447390 0.393710 -0.394355
O3    O     O_3   0.597960 0.615760 0.327700 -0.361448
O4    O     O_2   0.674142 0.542863 0.173269 -0.397811
O5    O     O_3   0.004297 0.297100 0.279760 -0.494476
O6    O     O_3   0.610790 0.715705 0.174362 -0.550993
C1    C     C_3   0.389896 0.808799 0.128002 -1.044167
H1    H     H_    0.449604 0.826053 0.069345 0.285696
H2    H     H_    0.300894 0.750841 0.105977 0.240585
P2    P     P_3+3 0.635650 0.716500 0.560900 0.415934
P3    P     P_3+3 0.053827 0.780504 0.361974 0.457887
O7    O     O_2   0.802240 0.729720 0.532850 -0.402263
O8    O     O_3   0.017190 0.664840 0.371090 -0.406882
O9    O     O_2   0.941403 0.831530 0.420096 -0.367278
O10   O     O_3   0.722282 0.721600 0.677456 -0.662499
O11   O     O_3   0.985855 0.803442 0.250881 -0.474206
C2    C     C_3   0.005555 0.726392 0.191942 0.505986
H3    H     H_    0.924782 0.667417 0.203161 0.155948
H4    H     H_    0.132432 0.706617 0.202135 -0.020806
C3    C     C_3   0.960868 0.749084 0.094615 -0.900266
H5    H     H_    0.831772 0.764141 0.081477 0.286848
H6    H     H_    0.034670 0.810281 0.081805 0.284107
C4    C     C_3   0.118417 0.744349 0.645080 0.326945
H7    H     H_    0.110579 0.704832 0.577874 0.092892
H8    H     H_    0.998570 0.751546 0.664913 0.127475
C5    C     C_3   0.189161 0.839544 0.632634 -0.253328
H9    H     H_    0.315297 0.834697 0.622036 0.141967
H10   H     H_    0.122589 0.864740 0.571381 0.116633
Ba1   Ba    Ba6+2 0.833410 0.543320 0.453520 1.591600
C6    C     C_3   0.953872 0.258520 0.353489 0.430492
H11   H     H_    0.855094 0.296314 0.377814 0.019831
H12   H     H_    0.056141 0.262900 0.409255 0.052111
C7    C     C_3   0.892210 0.158082 0.324323 -0.246931
H13   H     H_    0.762545 0.154732 0.296317 0.206634
H14   H     H_    0.903443 0.117642 0.383405 0.089161
C8    C     C_3   0.682087 0.779139 0.750908 0.876253
C9    C     C_3   0.635282 0.875227 0.729170 0.130456
H15   H     H_    0.564984 0.871844 0.661996 0.039169
H16   H     H_    0.744230 0.920164 0.725054 0.026671
P4    P     P_3+3 0.171070 0.583210 0.704020 0.519500
O12   O     O_2   0.348460 0.555790 0.719610 -0.329421
O13   O     O_3   0.076820 0.552690 0.606290 -0.402631
O14   O     O_3   0.591740 0.384320 0.672310 -0.370513
O15   O     O_3   0.214522 0.703345 0.713206 -0.497095
P5    P     P_3+3 0.142204 0.218778 0.638911 0.479598
O16   O     O_3   0.629090 0.386360 0.459240 -0.442368
O17   O     O_3   0.172500 0.335240 0.628910 -0.362611
O18   O     O_2   0.289900 0.179513 0.602913 -0.398761
O19   O     O_3   0.183298 0.201033 0.753953 -0.440488
Ba2   Ba    Ba6+2 0.356410 0.456750 0.546480 1.596599
P6    P     P_3+3 0.554573 0.608849 0.209624 0.437671
C10   C     C_3   0.514275 0.784667 0.205145 0.736156
H17   H     H_    0.454285 0.767197 0.263633 0.013961
H18   H     H_    0.323895 0.868300 0.150940 0.266981
O20   O     O_3   0.560600 0.613720 0.540760 -0.413479
C11   C     C_3   0.505317 0.310166 0.256151 0.887090
H19   H     H_    0.581225 0.370169 0.290729 0.061995
C12   C     C_3   0.572782 0.282893 0.165981 -0.025416
H20   H     H_    0.506166 0.218129 0.133221 0.119244
H21   H     H_    0.550575 0.340028 0.122035 0.096160
P7    P     P_3+3 0.554512 0.270003 0.429641 0.497187
O21   O     O_2   0.387470 0.270310 0.467210 -0.311298
O22   O     O_3   0.507803 0.236375 0.311243 -0.576833
H22   H     H_    0.981969 0.690186 0.046987 0.221826
C13   C     C_3   0.151717 0.280178 0.806923 0.466674
H23   H     H_    0.216737 0.342452 0.789196 0.098218
H24   H     H_    0.020476 0.290127 0.796436 -0.035333
C14   C     C_3   0.210774 0.272377 0.907306 -0.269895
H25   H     H_    0.339396 0.297626 0.923987 0.187983
H26   H     H_    0.140487 0.316576 0.949137 0.089084
P8    P     P_3+3 0.627154 0.394295 0.791606 0.436947
C15   C     C_3   0.657030 0.218011 0.793635 1.220618
H27   H     H_    0.718709 0.238802 0.736069 -0.099731
O23   O     O_2   0.497252 0.454800 0.823819 -0.417466
O24   O     O_3   0.580045 0.290255 0.833808 -0.565196
H28   H     H_    0.865016 0.140687 0.832028 0.266103
C16   C     C_3   0.785880 0.187534 0.864796 -1.130777
H29   H     H_    0.728532 0.150787 0.914698 0.256549
H30   H     H_    0.859792 0.247802 0.900994 0.231194
C17   C     C_R   0.344507 0.562157 0.169235 0.127815
H31   H     H_    0.318352 0.529491 0.303964 0.173329
H32   H     H_    0.459406 0.638982 0.029997 0.182166
C18   C     C_R   0.110638 0.479346 0.210113 0.355843
C19   C     C_R   0.925675 0.480122 0.771168 0.221467
C20   C     C_R   0.831449 0.448440 0.833858 0.094477
C21   C     C_R   0.889743 0.460461 0.925908 -0.415774
C22   C     C_R   0.042798 0.505725 0.957448 0.080334
C23   C     C_R   0.126888 0.547849 0.892767 -0.054152
C24   C     C_R   0.113746 0.512150 0.051255 0.068296
C25   C     C_R   0.270034 0.557481 0.077510 0.012490
C26   C     C_R   0.344138 0.601001 0.012547 -0.221276
C27   C     C_R   0.266225 0.602672 0.924584 -0.091649
C28   C     C_R   0.037156 0.472878 0.119363 -0.390772
C29   C     C_R   0.261115 0.526192 0.234314 -0.379674
C30   C     C_R   0.069429 0.533875 0.797913 0.065199
H33   H     H_    0.922184 0.434691 0.104100 0.177016
H34   H     H_    0.812904 0.433546 0.970568 0.179797
H35   H     H_    0.313132 0.648712 0.881252 0.187971
C31   C     C_R   0.721164 0.935553 0.527952 -0.171745
C32   C     C_R   0.519639 0.799264 0.495323 0.245597
C33   C     C_R   0.364818 0.765094 0.454836 -0.445260
C34   C     C_R   0.266695 0.817467 0.400094 0.191172
C35   C     C_R   0.327645 0.900963 0.379140 -0.286914
C36   C     C_R   0.467932 0.944780 0.430972 -0.067122
C37   C     C_R   0.572498 0.892331 0.485359 -0.044498
H36   H     H_    0.318707 0.697801 0.467440 0.165854
C38   C     C_R   0.643976 0.086247 0.479217 -0.177295
C39   C     C_R   0.759422 0.030220 0.523472 0.042242
C40   C     C_R   0.680527 0.184456 0.488334 0.213008
C41   C     C_R   0.827435 0.221117 0.539641 -0.501130
C42   C     C_R   0.944712 0.165155 0.576981 0.196042
C43   C     C_R   0.909594 0.070134 0.568339 -0.292766
C44   C     C_R   0.495704 0.041659 0.433283 0.570762
H37   H     H_    0.258960 0.933988 0.325954 0.201729
H38   H     H_    0.999233 0.027115 0.597515 0.172265
H39   H     H_    0.854377 0.294604 0.547241 0.190466
H40   H     H_    0.806471 0.897033 0.567929 0.160056
I1    I     I_    0.664608 0.906863 0.246267 -0.274955
I2    I     I_    0.176397 0.942340 0.740646 -0.237702
I3    I     I_    0.010684 0.087861 0.222187 -0.301942
I4    I     I_    0.910207 0.804467 0.846619 -0.459747
O25   O     O_3   0.558504 0.733312 0.789157 -0.561023
C45   C     C_3   0.623795 0.670627 0.849242 -0.106242
H41   H     H_    0.537284 0.613611 0.850669 0.193580
H42   H     H_    0.650791 0.704750 0.919250 0.128412
H43   H     H_    0.730925 0.637314 0.828824 0.087915
O26   O     O_3   0.536385 0.913343 0.790214 -0.542956
C46   C     C_3   0.625819 0.953538 0.872079 0.051206
H44   H     H_    0.552762 0.005781 0.902278 0.185014
H45   H     H_    0.742223 0.988777 0.863090 0.117950
H46   H     H_    0.646070 0.901019 0.920908 0.134049
O27   O     O_3   0.344524 0.338124 0.238933 -0.666956
C47   C     C_3   0.251439 0.287319 0.162473 -0.179793
H47   H     H_    0.253644 0.212362 0.167400 0.206899
H48   H     H_    0.288243 0.307291 0.098415 0.089256
H49   H     H_    0.126832 0.305842 0.154797 0.191482
O28   O     O_3   0.737829 0.269152 0.176789 -0.575876
C48   C     C_3   0.777139 0.237210 0.091227 -0.057493
H50   H     H_    0.907679 0.229300 0.095870 0.169921
H51   H     H_    0.745539 0.286387 0.039889 0.107118
H52   H     H_    0.717493 0.168015 0.068337 0.147473
I5    I     I_    0.194969 0.135490 0.947568 -0.325592
O29   O     O_3   0.538980 0.144638 0.767725 -0.563566
C49   C     C_3   0.572011 0.093627 0.689655 -0.084805
H53   H     H_    0.692948 0.065847 0.701063 0.086513
H54   H     H_    0.565190 0.137425 0.633347 0.133699
H55   H     H_    0.479090 0.036337 0.670265 0.200035
O30   O     O_3   0.874639 0.458587 0.681090 -0.656255
C50   C     C_3   0.771793 0.526038 0.652210 0.187458
H56   H     H_    0.838841 0.588960 0.641972 0.135221
H57   H     H_    0.682186 0.544839 0.697591 0.103906
H58   H     H_    0.703549 0.496207 0.588151 0.221980
O31   O     O_3   0.372184 0.092587 0.396194 -0.579256
C51   C     C_3   0.232221 0.078269 0.438416 -0.009743
H59   H     H_    0.253251 0.045420 0.503119 0.091828
H60   H     H_    0.137015 0.034958 0.394130 0.133303
H61   H     H_    0.178683 0.143967 0.449901 0.162265

loop_
_geom_bond_atom_site_label_1
_geom_bond_atom_site_label_2
_geom_bond_distance
_ccdc_geom_bond_type
C13   H24   1.107806 S    
C21   C22   1.414491 A    
C32   C33   1.401986 A    
P5    C42   1.879975 S    
C51   H60   1.099616 S    
C2    C3    1.523163 S    
C48   H51   1.112808 S    
P4    O12   1.550682 D    
C41   C42   1.398944 A    
C4    C5    1.524928 S    
P8    O24   1.747938 S    
O26   C46   1.410073 S    
C47   H49   1.085077 S    
C49   H53   1.107608 S    
C24   C25   1.426937 A    
O25   C45   1.417079 S    
C10   H17   1.111093 S    
P1    C18   1.869791 S    
H32   C26   1.078078 S    
P5    O18   1.535444 D    
C8    C9    1.529960 S    
O3    P6    1.748561 S    
C4    O15   1.405540 S    
P1    Ba1   3.459666 S    
C9    H16   1.110774 S    
Ba1   Ba2   4.569268 S    
C4    H8    1.093825 S    
O6    P6    1.758144 S    
Ba2   O20   2.812368 S    
C19   C20   1.402222 A    
C9    H15   1.088739 S    
C17   C29   1.399356 A    
C19   C30   1.396046 A    
C16   H30   1.107835 S    
C11   C12   1.564212 S    
C13   C14   1.531980 S    
C5    H10   1.107033 S    
C38   C39   1.429433 A    
P1    O1    1.550254 D    
C15   H27   1.121350 S    
C38   C44   1.431015 A    
C14   H26   1.109222 S    
C40   C41   1.412211 A    
C42   C43   1.399972 A    
P7    O22   1.782978 S    
C8    O25   1.419223 S    
O17   Ba2   2.775959 S    
O16   Ba2   2.971483 S    
P2    Ba1   3.497973 S    
C1    H1    1.111133 S    
C50   H58   1.090440 S    
P3    O11   1.748674 S    
C15   C16   1.520060 S    
C6    H12   1.105513 S    
O4    P6    1.547214 D    
O14   P8    1.762426 S    
C27   H35   1.072877 S    
C2    H4    1.109415 S    
H28   C16   1.109191 S    
O12   Ba2   2.872078 S    
C46   H46   1.109631 S    
O5    C6    1.389867 S    
C12   H20   1.115377 S    
C3    H5    1.108890 S    
C51   H61   1.092654 S    
P4    O13   1.580242 S    
C11   O27   1.423454 S    
C33   C34   1.385853 A    
O8    Ba1   2.775417 S    
P8    O23   1.540513 D    
C1    H18   1.110782 S    
C35   C36   1.407804 A    
C49   H54   1.099981 S    
C24   C28   1.425088 A    
P5    O17   1.735226 S    
C12   H21   1.115840 S    
P1    O5    1.746887 S    
O7    Ba1   2.922672 S    
Ba2   O21   2.922717 S    
C4    H7    1.109471 S    
P3    C34   1.835274 S    
C25   C26   1.405408 A    
O2    Ba2   2.835006 S    
C20   C21   1.390346 A    
C2    H3    1.109843 S    
C47   H48   1.106108 S    
C12   O28   1.396658 S    
C5    I2    2.131788 S    
Ba1   O20   2.972458 S    
P1    O2    1.580241 S    
C18   C29   1.391549 A    
C17   C25   1.422218 A    
O2    Ba1   2.993371 S    
P7    O21   1.579942 D    
C36   C44   1.423836 A    
C35   H37   1.080003 S    
P2    O10   1.788874 S    
Ba1   O16   2.812874 S    
P8    C20   1.854039 S    
C6    H11   1.104472 S    
P7    C40   1.876714 S    
P3    O9    1.546593 D    
C7    H13   1.105967 S    
O11   C2    1.403451 S    
C6    C7    1.541136 S    
C33   H36   1.082497 S    
P2    C32   1.853898 S    
C18   C28   1.405337 A    
O19   C13   1.405684 S    
O31   C51   1.423029 S    
C45   H43   1.110150 S    
O14   Ba2   2.843298 S    
P4    Ba2   3.460361 S    
P3    O8    1.727859 S    
C7    I3    2.154212 S    
C3    H6    1.109503 S    
O27   C47   1.421710 S    
C15   O24   1.402174 S    
C50   H57   1.110303 S    
Ba1   O13   2.834339 S    
C31   H40   1.080374 S    
O6    C10   1.411914 S    
C51   H59   1.115011 S    
C49   H55   1.107016 S    
C11   O22   1.414801 S    
C45   H42   1.110685 S    
C46   H44   1.109073 S    
C32   C37   1.439372 A    
P5    O19   1.754050 S    
H31   C29   1.081916 S    
C3    H22   1.109011 S    
C16   H29   1.106055 S    
C21   H34   1.076091 S    
C22   C24   1.440783 A    
O29   C49   1.401413 S    
C1    C10   1.522486 S    
P6    C17   1.856093 S    
C9    O26   1.415920 S    
C48   H50   1.098982 S    
C10   I1    2.131338 S    
C47   H47   1.108116 S    
C39   C43   1.414528 A    
C14   I5    2.146849 S    
C36   C37   1.413481 A    
O10   C8    1.416867 S    
C31   C37   1.410923 A    
C28   H33   1.075461 S    
C41   H39   1.082228 S    
O1    Ba1   2.871392 S    
C43   H38   1.075007 S    
C23   C30   1.429090 A    
O30   C50   1.400479 S    
O16   P7    1.783648 S    
P2    O7    1.521086 D    
O13   Ba2   2.994365 S    
C11   H19   1.104677 S    
C26   C27   1.389428 A    
C48   H52   1.112490 S    
C38   C40   1.447203 A    
C13   H23   1.110277 S    
C7    H14   1.102650 S    
C23   C27   1.386232 A    
C14   H25   1.109250 S    
C19   O30   1.362314 S    
O28   C48   1.414437 S    
C8    I4    2.218464 S    
P4    C30   1.916800 S    
C31   C39   1.417585 A    
C22   C23   1.437484 A    
C1    H2    1.098488 S    
C34   C35   1.380218 A    
P4    O15   1.769580 S    
C50   H56   1.089107 S    
C46   H45   1.111205 S    
C44   O31   1.387415 S    
O3    Ba1   2.843900 S    
P2    O20   1.590540 S    
C45   H41   1.082237 S    
C5    H9    1.095408 S    
C15   O29   1.414471 S    
