data_mof_unit_10363.cif
_audit_creation_date              2012-12-11T16:33:31-0500
_audit_creation_method            fapswitch 2.2
_symmetry_space_group_name_H-M    P1
_symmetry_Int_Tables_number       1
_space_group_crystal_system       triclinic
_cell_length_a                    6.961621
_cell_length_b                    18.190063
_cell_length_c                    20.256226
_cell_angle_alpha                 68.629797
_cell_angle_beta                  90.282872
_cell_angle_gamma                 91.15367
_cell_volume                      2388.2390121

loop_
_atom_site_label
_atom_site_type_symbol
_atom_type_description
_atom_site_fract_x
_atom_site_fract_y
_atom_site_fract_z
_atom_type_partial_charge
O1    O     O_R   0.488960 0.443750 0.941980 -0.537793
O2    O     O_R   0.823890 0.406510 0.087590 -0.539702
O3    O     O_R   0.999680 0.556250 0.058020 -0.539121
C1    C     C_R   0.652674 0.381381 0.114051 0.729706
O4    O     O_R   0.818360 0.434410 0.944340 -0.543093
O5    O     O_R   0.994110 0.584350 0.913750 -0.540868
C2    C     C_R   0.649674 0.425276 0.920010 0.726903
O6    O     O_R   0.494530 0.415650 0.086250 -0.542260
O7    O     O_3   0.662590 0.549160 0.990130 -0.366413
V1    V     V_3+5 0.935320 0.490880 0.001830 1.412363
O8    O     O_R   0.324180 0.593490 0.912410 -0.526120
C3    C     C_R   0.155994 0.617898 0.885909 0.789327
O9    O     O_R   0.329720 0.565590 0.055660 -0.532438
C4    C     C_R   0.162229 0.578526 0.077118 0.758396
V2    V     V_3+5 0.435990 0.509120 0.998170 1.412812
O10   O     O_3   0.158850 0.450840 0.009870 -0.375774
C5    C     C_3   0.104445 0.700020 0.317495 -0.173413
C6    C     C_3   0.278682 0.698582 0.270266 -0.120504
H1    H     H_    0.398608 0.656417 0.286490 0.115052
H2    H     H_    0.081462 0.659315 0.373123 0.122759
H3    H     H_    0.437425 0.823007 0.242832 0.152403
C7    C     C_1   0.155796 0.624221 0.122694 -0.204869
C8    C     C_1   0.110299 0.875555 0.377351 -0.191848
C9    C     C_3   0.966037 0.709103 0.254551 -0.133672
C10   C     C_3   0.140552 0.708548 0.207871 0.132841
C11   C     C_3   0.992344 0.799180 0.230587 0.254250
C12   C     C_3   0.126404 0.790725 0.292663 0.151836
C13   C     C_3   0.162742 0.799342 0.182529 -0.197662
C14   C     C_3   0.300136 0.789882 0.245826 -0.182785
C15   C     C_1   0.149301 0.662274 0.161001 -0.051771
C16   C     C_1   0.117089 0.837282 0.339268 -0.030278
H4    H     H_    0.183752 0.840515 0.126956 0.112811
H5    H     H_    0.827103 0.677005 0.257388 0.107968
H6    H     H_    0.977176 0.515405 0.706828 0.123533
C17   C     C_R   0.256395 0.782805 0.872871 0.148935
C18   C     C_R   0.309053 0.859398 0.865912 -0.195310
C19   C     C_R   0.279532 0.922398 0.803382 0.162944
C20   C     C_R   0.194301 0.909252 0.745398 0.165463
C21   C     C_R   0.166827 0.830189 0.746601 -0.025736
C22   C     C_R   0.191332 0.765518 0.812795 0.027945
C23   C     C_R   0.115368 0.814821 0.683954 -0.150930
C24   C     C_R   0.080534 0.735151 0.688041 0.011293
C25   C     C_R   0.092458 0.672148 0.755322 0.011733
C26   C     C_R   0.147489 0.686689 0.817164 -0.137155
C27   C     C_R   0.036443 0.715060 0.627074 0.175120
C28   C     C_R   0.997369 0.636061 0.634292 0.235296
C29   C     C_R   0.005348 0.576357 0.700710 -0.193354
C30   C     C_R   0.054217 0.593674 0.759721 -0.193558
H7    H     H_    0.366683 0.869906 0.911600 0.127507
H8    H     H_    0.063369 0.543604 0.808972 0.123587
C31   C     C_R   0.578674 0.087935 0.250259 0.129290
C32   C     C_R   0.508360 0.076265 0.190547 -0.155540
C33   C     C_R   0.484094 0.138784 0.128398 -0.142400
C34   C     C_R   0.535411 0.215632 0.122343 0.144633
C35   C     C_R   0.589565 0.233170 0.184231 0.018295
C36   C     C_R   0.598445 0.167003 0.250646 0.025679
C37   C     C_R   0.634433 0.312315 0.182778 -0.151104
C38   C     C_R   0.665597 0.325123 0.248237 0.046349
C39   C     C_R   0.672450 0.258163 0.312969 -0.005021
C40   C     C_R   0.629148 0.181096 0.314630 -0.139167
C41   C     C_R   0.686347 0.402335 0.253366 0.097217
C42   C     C_R   0.742105 0.409036 0.317709 -0.101431
C43   C     C_R   0.762242 0.342985 0.378905 0.176934
C44   C     C_R   0.722487 0.268881 0.376842 -0.155796
H9    H     H_    0.481536 0.017298 0.190605 0.127375
H10   H     H_    0.435120 0.125635 0.082932 0.120533
H11   H     H_    0.764275 0.466808 0.320940 0.115325
H12   H     H_    0.733819 0.219483 0.426551 0.116657
O11   O     O_R   0.770540 0.084530 0.414050 -0.544356
O12   O     O_R   0.445710 0.065660 0.555720 -0.542520
O13   O     O_R   0.270420 0.915650 0.586190 -0.535264
C45   C     C_R   0.615187 0.080970 0.575333 0.725591
O14   O     O_R   0.441140 0.093540 0.412470 -0.540048
O15   O     O_R   0.265820 0.943740 0.441930 -0.541835
C46   C     C_R   0.611430 0.115548 0.384744 0.703803
O16   O     O_R   0.775150 0.056440 0.558310 -0.527335
O17   O     O_3   0.602370 0.950960 0.510050 -0.370763
V3    V     V_3+5 0.329450 0.009140 0.498150 1.433504
O18   O     O_R   0.935790 0.934280 0.444060 -0.536801
C47   C     C_R   0.103464 0.921451 0.422702 0.743446
O19   O     O_R   0.940370 0.906390 0.587310 -0.524081
C48   C     C_R   0.108426 0.882135 0.614171 0.877666
V4    V     V_3+5 0.828810 0.990710 0.501460 1.440885
O20   O     O_3   0.105780 0.049100 0.489960 -0.367667
C49   C     C_3   0.779006 0.312341 0.724713 -0.188479
C50   C     C_3   0.615110 0.310444 0.672802 -0.179383
H13   H     H_    0.603048 0.350851 0.616669 0.122080
H14   H     H_    0.896208 0.357244 0.710807 0.122464
C51   C     C_1   0.624605 0.130078 0.617964 -0.202541
C52   C     C_1   0.639142 0.382524 0.872093 -0.184745
C53   C     C_3   0.789045 0.221414 0.750083 0.232317
C54   C     C_3   0.627643 0.219530 0.698999 0.130346
C55   C     C_3   0.641016 0.212022 0.809066 -0.176729
C56   C     C_3   0.628761 0.302750 0.783152 0.124341
C57   C     C_3   0.477411 0.210333 0.757316 -0.195140
C58   C     C_3   0.467073 0.301240 0.732014 0.224400
C59   C     C_1   0.627440 0.170982 0.653882 -0.048497
C60   C     C_1   0.632857 0.346980 0.831730 -0.045005
H15   H     H_    0.357693 0.166938 0.771363 0.136524
H16   H     H_    0.652995 0.171406 0.865137 0.119784
C61   C     C_3   0.336052 0.004071 0.799688 -0.823788
H17   H     H_    0.400456 0.003941 0.850022 0.208643
H18   H     H_    0.443945 0.030171 0.757020 0.216908
H19   H     H_    0.208031 0.041476 0.788739 0.213007
N1    N     N_3   0.122989 0.976119 0.688053 -0.667814
H20   H     H_    0.017485 0.002872 0.707707 0.226757
H21   H     H_    0.235159 0.016839 0.667169 0.244437
N2    N     N_3   0.034361 0.773650 0.557030 -0.685486
H22   H     H_    0.138611 0.759904 0.526611 0.218924
H23   H     H_    0.899456 0.772154 0.534549 0.256507
N3    N     N_3   0.950316 0.617303 0.572937 -0.681744
H24   H     H_    0.903089 0.558507 0.587967 0.224300
H25   H     H_    0.076892 0.622368 0.543919 0.220702
C62   C     C_3   0.818407 0.350857 0.447827 -0.805025
H26   H     H_    0.843861 0.413522 0.441604 0.204533
H27   H     H_    0.702275 0.325813 0.487585 0.209753
H28   H     H_    0.952387 0.318064 0.467929 0.215783
C63   C     C_3   0.652632 0.014286 0.307318 -0.729300
H29   H     H_    0.800976 0.025654 0.321711 0.207538
H30   H     H_    0.555232 0.993664 0.353696 0.216421
H31   H     H_    0.663307 0.964000 0.288782 0.198966
C64   C     C_3   0.530686 0.273935 0.047899 -0.755795
H32   H     H_    0.501513 0.246330 0.008013 0.183214
H33   H     H_    0.412393 0.315339 0.042208 0.235033
H34   H     H_    0.674785 0.301774 0.034425 0.193662
C65   C     C_3   0.630307 0.479277 0.196231 -0.740875
H35   H     H_    0.481948 0.473778 0.178381 0.213483
H36   H     H_    0.627642 0.528988 0.215745 0.180070
H37   H     H_    0.734598 0.497519 0.152040 0.222176
C66   C     C_3   0.285131 0.348311 0.720653 -0.821633
H38   H     H_    0.200777 0.338767 0.677785 0.213107
H39   H     H_    0.200652 0.328641 0.770603 0.216803
H40   H     H_    0.321932 0.412086 0.704791 0.213617
C67   C     C_3   0.968723 0.173332 0.762174 -0.836093
H41   H     H_    0.053787 0.191654 0.712403 0.219654
H42   H     H_    0.053355 0.182574 0.805115 0.214845
H43   H     H_    0.926955 0.110028 0.778492 0.208774
N4    N     N_3   0.834699 0.854298 0.209559 -0.695142
H44   H     H_    0.771782 0.848927 0.164546 0.219167
H45   H     H_    0.894277 0.911303 0.193945 0.225156
N5    N     N_3   0.269445 0.723898 0.942394 -0.664025
H46   H     H_    0.182144 0.740475 0.976281 0.210010
H47   H     H_    0.411473 0.722781 0.959804 0.234625

loop_
_geom_bond_atom_site_label_1
_geom_bond_atom_site_label_2
_ccdc_geom_bond_type
C19   C61   S    
C35   C36   A    
C55   C56   S    
O12   V3    S    
C23   C24   A    
O2    C1    A    
C57   C58   S    
C1    O6    A    
C31   C63   S    
C67   H43   S    
C62   H26   S    
C49   C53   S    
C21   C23   A    
O17   V3    S    
C10   C13   S    
N1    H21   S    
C11   C12   S    
C61   H17   S    
C42   H11   S    
V4    O20   S    
C44   H12   S    
C13   C14   S    
C9    C11   S    
C6    H1    S    
N5    H47   S    
O5    C3    A    
C20   C21   A    
C57   H15   S    
C12   C14   S    
C56   C60   S    
V2    O10   S    
C5    H2    S    
N2    H22   S    
C31   C36   A    
C63   H29   S    
C28   C29   A    
C43   C62   S    
O8    V2    S    
C17   C18   A    
C1    C37   S    
O14   V3    S    
O11   C46   A    
C41   C65   S    
O1    V2    S    
C8    C47   S    
C25   C30   A    
C27   N2    S    
C45   O16   A    
O13   C48   A    
C38   C41   A    
C30   H8    S    
C34   C64   S    
C39   C40   A    
C61   H18   S    
O15   C47   A    
O9    C4    A    
O14   C46   A    
C6    C10   S    
O16   V4    S    
O19   V4    S    
C54   C59   S    
O19   C48   A    
C5    C9    S    
O12   C45   A    
C12   C16   S    
C31   C32   A    
C5    C12   S    
C13   H4    S    
C9    C10   S    
C53   C54   S    
O4    C2    A    
C50   H13   S    
C67   H42   S    
C65   H37   S    
C38   C39   A    
C49   C50   S    
C2    C52   S    
H3    C14   S    
C54   C57   S    
O18   C47   A    
C51   C59   T    
C24   C27   A    
C8    C16   T    
C66   H39   S    
C25   C26   A    
C19   C20   A    
O11   V4    S    
V3    O20   S    
C53   C55   S    
C49   C56   S    
C29   C30   A    
C42   C43   A    
C5    C6    S    
C39   C44   A    
N3    H25   S    
C6    C14   S    
C56   C58   S    
C33   H10   S    
C55   H16   S    
O3    C4    A    
C50   C58   S    
C17   N5    S    
O6    V2    S    
C35   C37   A    
C66   H40   S    
C24   C25   A    
C64   H33   S    
O2    V1    S    
C21   C22   A    
C32   C33   A    
C58   C66   S    
O7    V1    S    
C49   H14   S    
C10   C15   S    
C34   C35   A    
C18   C19   A    
C65   H36   S    
C7    C15   T    
N3    H24   S    
O1    C2    A    
C52   C60   T    
C11   N4    S    
O5    V1    S    
C62   H27   S    
O8    C3    A    
C33   C34   A    
C67   H41   S    
N4    H45   S    
C61   H19   S    
N1    H20   S    
C40   C46   S    
C11   C13   S    
C9    H5    S    
C4    C7    S    
C64   H34   S    
O9    V2    S    
C17   C22   A    
O7    V2    S    
O4    V1    S    
C3    C26   S    
O3    V1    S    
C50   C54   S    
N5    H46   S    
O18   V4    S    
C45   C51   S    
C37   C38   A    
C53   C67   S    
C20   N1    S    
C65   H35   S    
C23   C48   S    
N2    H23   S    
C66   H38   S    
C41   C42   A    
C63   H30   S    
C62   H28   S    
N4    H44   S    
C32   H9    S    
C43   C44   A    
C27   C28   A    
C22   C26   A    
C36   C40   A    
C55   C57   S    
O15   V3    S    
O17   V4    S    
V1    O10   S    
H6    C29   S    
C64   H32   S    
C28   N3    S    
C63   H31   S    
O13   V3    S    
C18   H7    S    
