data_mof_unit_65663.cif
_audit_creation_date              2012-12-10T21:41:24-0500
_audit_creation_method            fapswitch 2.2
_symmetry_space_group_name_H-M    P1
_symmetry_Int_Tables_number       1
_space_group_crystal_system       triclinic
_cell_length_a                    23.882856
_cell_length_b                    24.083928
_cell_length_c                    16.130295
_cell_angle_alpha                 90.009161
_cell_angle_beta                  93.898851
_cell_angle_gamma                 90.001356
_cell_volume                      9256.55971224

loop_
_atom_site_label
_atom_site_type_symbol
_atom_type_description
_atom_site_fract_x
_atom_site_fract_y
_atom_site_fract_z
_atom_type_partial_charge
C1    C     C_R   0.575457 0.077125 0.511177 0.891872
C2    C     C_R   0.424496 0.922914 0.488816 0.891542
C3    C     C_R   0.424377 0.076983 0.488810 0.891320
C4    C     C_R   0.575512 0.922925 0.511176 0.891686
C5    C     C_R   0.075440 0.577140 0.511175 0.891763
C6    C     C_R   0.924513 0.422900 0.488819 0.891540
C7    C     C_R   0.924557 0.577135 0.488834 0.891762
C8    C     C_R   0.075359 0.422788 0.511153 0.891973
C9    C     C_R   0.516860 0.000005 0.110306 0.287338
C10   C     C_R   0.483144 0.000000 0.889694 0.287376
C11   C     C_R   0.016858 0.499997 0.110306 0.287266
C12   C     C_R   0.983145 0.500008 0.889693 0.287301
C13   C     C_R   0.565325 0.000023 0.164749 -0.296293
C14   C     C_R   0.434678 0.999996 0.835252 -0.296301
C15   C     C_R   0.065323 0.499980 0.164748 -0.296269
C16   C     C_R   0.934679 0.500041 0.835253 -0.296279
C17   C     C_R   0.560921 0.000020 0.251302 -0.064184
C18   C     C_R   0.439079 0.999997 0.748700 -0.064302
C19   C     C_R   0.060921 0.499982 0.251300 -0.064089
C20   C     C_R   0.939080 0.500036 0.748701 -0.064201
C21   C     C_R   0.616068 0.878136 0.517666 -0.039242
C22   C     C_R   0.383080 0.121120 0.482249 -0.039199
C23   C     C_R   0.383984 0.878081 0.482307 -0.039245
C24   C     C_R   0.615631 0.122251 0.517652 -0.039361
C25   C     C_R   0.114753 0.376996 0.517507 -0.039239
C26   C     C_R   0.884510 0.622366 0.482403 -0.039170
C27   C     C_R   0.884118 0.377966 0.482324 -0.039186
C28   C     C_R   0.115498 0.622367 0.517640 -0.039298
C29   C     C_R   0.631656 0.852553 0.444773 -0.232591
C30   C     C_R   0.366552 0.145951 0.555170 -0.232600
C31   C     C_R   0.368601 0.852319 0.555164 -0.232605
C32   C     C_R   0.630594 0.148331 0.444810 -0.232620
C33   C     C_R   0.128912 0.350365 0.444657 -0.232392
C34   C     C_R   0.869535 0.648406 0.555281 -0.232507
C35   C     C_R   0.868843 0.352130 0.555184 -0.232490
C36   C     C_R   0.130306 0.648566 0.444808 -0.232499
C37   C     C_R   0.671500 0.811108 0.449012 -0.156133
C38   C     C_R   0.325774 0.186493 0.550908 -0.156252
C39   C     C_R   0.328782 0.810843 0.550919 -0.156108
C40   C     C_R   0.669965 0.190228 0.449048 -0.156050
C41   C     C_R   0.167186 0.307476 0.448856 -0.156010
C42   C     C_R   0.830362 0.690480 0.551062 -0.156080
C43   C     C_R   0.829178 0.310509 0.550943 -0.156101
C44   C     C_R   0.169527 0.690601 0.449046 -0.156035
C45   C     C_R   0.696881 0.795015 0.526601 0.326002
C46   C     C_R   0.300427 0.202490 0.473243 0.326017
C47   C     C_R   0.303218 0.794905 0.473366 0.325947
C48   C     C_R   0.695512 0.206249 0.526569 0.325921
C49   C     C_R   0.192467 0.291038 0.526331 0.325839
C50   C     C_R   0.805022 0.706717 0.473522 0.325955
C51   C     C_R   0.803656 0.294506 0.473395 0.325949
C52   C     C_R   0.195084 0.706637 0.526554 0.325902
C53   C     C_R   0.679691 0.818878 0.599529 -0.190037
C54   C     C_R   0.318413 0.179304 0.400321 -0.189796
C55   C     C_R   0.320227 0.818928 0.400453 -0.190045
C56   C     C_R   0.678868 0.181927 0.599480 -0.190119
C57   C     C_R   0.176537 0.315914 0.599259 -0.190337
C58   C     C_R   0.821681 0.682423 0.400589 -0.190196
C59   C     C_R   0.820575 0.318599 0.400478 -0.190092
C60   C     C_R   0.178574 0.682202 0.599461 -0.190169
C61   C     C_R   0.639364 0.860496 0.595315 -0.185351
C62   C     C_R   0.359662 0.138568 0.404568 -0.184748
C63   C     C_R   0.360531 0.860572 0.404671 -0.185343
C64   C     C_R   0.639007 0.139870 0.595273 -0.185593
C65   C     C_R   0.137765 0.358948 0.595098 -0.186190
C66   C     C_R   0.861345 0.640189 0.404777 -0.185740
C67   C     C_R   0.860726 0.360386 0.404690 -0.185551
C68   C     C_R   0.138862 0.640009 0.595256 -0.185808
C69   C     C_R   0.461761 0.999980 0.231781 0.376340
C70   C     C_R   0.538241 0.000006 0.768215 0.376455
C71   C     C_R   0.961759 0.500018 0.231784 0.376345
C72   C     C_R   0.038242 0.499966 0.768213 0.376464
C73   C     C_R   0.464541 0.999982 0.145314 -0.286572
C74   C     C_R   0.535462 0.000006 0.854683 -0.286579
C75   C     C_R   0.964539 0.500017 0.145315 -0.286642
C76   C     C_R   0.035464 0.499970 0.854682 -0.286647
H1    H     H_    0.384824 0.133918 0.615830 0.170287
H2    H     H_    0.613357 0.864676 0.384170 0.170340
H3    H     H_    0.612162 0.136258 0.384255 0.170315
H4    H     H_    0.387041 0.864329 0.615744 0.170308
H5    H     H_    0.887809 0.636175 0.615848 0.170357
H6    H     H_    0.110667 0.362734 0.384138 0.170375
H7    H     H_    0.111865 0.636482 0.384263 0.170327
H8    H     H_    0.887250 0.364189 0.615760 0.170332
H9    H     H_    0.313871 0.204830 0.608439 0.152920
H10   H     H_    0.682796 0.792243 0.391529 0.152891
H11   H     H_    0.680838 0.209451 0.391616 0.152866
H12   H     H_    0.317636 0.791842 0.608373 0.152876
H13   H     H_    0.819463 0.709658 0.608522 0.152875
H14   H     H_    0.177546 0.287892 0.391427 0.152871
H15   H     H_    0.180299 0.709906 0.391623 0.152863
H16   H     H_    0.818098 0.291461 0.608397 0.152876
H17   H     H_    0.698573 0.806049 0.659432 0.148081
H18   H     H_    0.299587 0.192091 0.340365 0.148139
H19   H     H_    0.301207 0.806217 0.340570 0.148111
H20   H     H_    0.697893 0.194681 0.659339 0.148072
H21   H     H_    0.195411 0.302907 0.659079 0.147949
H22   H     H_    0.802804 0.695329 0.340721 0.148028
H23   H     H_    0.801581 0.305845 0.340599 0.148080
H24   H     H_    0.197613 0.694959 0.659311 0.148048
H25   H     H_    0.627190 0.879331 0.652323 0.196540
H26   H     H_    0.372486 0.120277 0.347547 0.196532
H27   H     H_    0.372552 0.879539 0.347684 0.196732
H28   H     H_    0.627281 0.120671 0.652252 0.196675
H29   H     H_    0.126598 0.378546 0.652090 0.196396
H30   H     H_    0.873091 0.621024 0.347774 0.196489
H31   H     H_    0.872672 0.379408 0.347701 0.196595
H32   H     H_    0.127246 0.620721 0.652230 0.196580
H33   H     H_    0.574168 0.000010 0.893722 0.185737
H34   H     H_    0.425836 0.999966 0.106273 0.185736
H35   H     H_    0.074170 0.499942 0.893721 0.185757
H36   H     H_    0.925833 0.500031 0.106275 0.185757
H37   H     H_    0.606422 0.000039 0.140245 0.161213
H38   H     H_    0.393581 0.999993 0.859759 0.161153
H39   H     H_    0.106420 0.499965 0.140243 0.161285
H40   H     H_    0.893583 0.500070 0.859760 0.161233
H41   H     H_    0.598557 0.000034 0.292602 0.151659
H42   H     H_    0.401443 0.999995 0.707400 0.151457
H43   H     H_    0.098557 0.499969 0.292600 0.151884
H44   H     H_    0.901443 0.500062 0.707403 0.151717
N1    N     N_2   0.740246 0.755479 0.533495 -0.202903
N2    N     N_2   0.256791 0.241747 0.466215 -0.202670
N3    N     N_2   0.259819 0.755398 0.466502 -0.202882
N4    N     N_2   0.738759 0.245913 0.533378 -0.203007
N5    N     N_2   0.235281 0.250920 0.533043 -0.203287
N6    N     N_2   0.761878 0.746486 0.466712 -0.203062
N7    N     N_2   0.760313 0.254942 0.466547 -0.202926
N8    N     N_2   0.238286 0.746350 0.533343 -0.203045
N9    N     N_R   0.509690 0.000000 0.283730 -0.109923
N10   N     N_R   0.490310 0.000000 0.716270 -0.109873
N11   N     N_R   0.009690 0.500000 0.283730 -0.110050
N12   N     N_R   0.990310 0.500000 0.716270 -0.110006
N13   N     N_2   0.522599 0.000008 0.022216 -0.170468
N14   N     N_2   0.477407 0.999999 0.977784 -0.170485
N15   N     N_2   0.022598 0.499993 0.022217 -0.170451
N16   N     N_2   0.977407 0.500014 0.977783 -0.170466
O1    O     O_R   0.554580 0.058040 0.577230 -0.584865
O2    O     O_R   0.445420 0.941960 0.422770 -0.585017
O3    O     O_R   0.445420 0.058040 0.422770 -0.585182
O4    O     O_R   0.554580 0.941960 0.577230 -0.585086
O5    O     O_R   0.054580 0.558040 0.577230 -0.585060
O6    O     O_R   0.945420 0.441960 0.422770 -0.585185
O7    O     O_R   0.945420 0.558040 0.422770 -0.585058
O8    O     O_R   0.054580 0.441960 0.577230 -0.584886
O9    O     O_R   0.560810 0.058060 0.438340 -0.633898
O10   O     O_R   0.439190 0.941940 0.561660 -0.633953
O11   O     O_R   0.439190 0.058060 0.561660 -0.633891
O12   O     O_R   0.560810 0.941940 0.438340 -0.633891
O13   O     O_R   0.060810 0.558060 0.438340 -0.633858
O14   O     O_R   0.939190 0.441940 0.561660 -0.633911
O15   O     O_R   0.939190 0.558060 0.561660 -0.633987
O16   O     O_R   0.060810 0.441940 0.438340 -0.633964
Zn1   Zn    Zn3+2 0.495820 0.000000 0.592740 0.987437
Zn2   Zn    Zn3+2 0.504180 0.000000 0.407260 0.987318
Zn3   Zn    Zn3+2 0.995820 0.500000 0.592740 0.987386
Zn4   Zn    Zn3+2 0.004180 0.500000 0.407260 0.987263
Br1   Br    Br    0.611320 0.000020 0.726750 -0.542315
Br2   Br    Br    0.388680 0.999943 0.273236 -0.542611
Br3   Br    Br    0.111319 0.499909 0.726737 -0.541857
Br4   Br    Br    0.888680 0.500046 0.273251 -0.542129

loop_
_geom_bond_atom_site_label_1
_geom_bond_atom_site_label_2
_ccdc_geom_bond_type
C3    O11   A    
C59   H23   S    
C14   C18   A    
C1    O9    A    
C58   H22   S    
C72   C76   A    
C67   H31   S    
C74   H33   S    
C7    O7    A    
C52   N8    S    
C5    O13   A    
C73   H34   S    
C15   C19   A    
C71   Br4   S    
C75   H36   S    
C72   Br3   S    
O12   Zn2   S    
C40   H11   S    
C47   C55   A    
N11   Zn4   S    
C28   C68   A    
O13   Zn4   S    
C20   N12   A    
N9    Zn2   S    
C4    O4    A    
C36   H7    S    
C4    O12   A    
C70   N10   A    
N12   Zn3   S    
C49   C57   A    
C30   C38   A    
C40   C48   A    
C41   C49   A    
C9    C13   A    
C52   C60   A    
C59   C67   A    
C30   H1    S    
C11   C15   A    
C58   C66   A    
C29   H2    S    
O16   Zn4   S    
C34   C42   A    
C55   C63   A    
C70   C74   A    
C56   C64   A    
C69   C73   A    
C50   N6    S    
C34   H5    S    
O15   Zn3   S    
C6    O6    A    
C35   C43   A    
C33   H6    S    
C18   H42   S    
C21   C61   A    
C36   C44   A    
C17   H41   S    
O4    Zn1   S    
O2    Zn2   S    
C23   C63   A    
C41   H14   S    
C19   H43   S    
C24   C64   A    
C8    C25   S    
C9    C73   A    
C39   H12   S    
C66   H30   S    
C16   H40   S    
C65   H29   S    
C26   C34   A    
C72   N12   A    
C19   N11   A    
C54   H18   S    
C38   H9    S    
C53   H17   S    
C2    O2    A    
C12   C16   A    
C37   H10   S    
N15   N16   D    
C25   C65   A    
C33   C41   A    
C63   H27   S    
C10   C14   A    
O5    Zn3   S    
C54   C62   A    
O3    Zn2   S    
C45   N1    S    
C14   H38   S    
C17   N9    A    
C26   C66   A    
C61   H25   S    
C24   C32   A    
C11   N15   S    
C22   C62   A    
C5    C28   S    
C5    O5    A    
C6    C27   S    
C16   C20   A    
C57   H21   S    
C46   C54   A    
C25   C33   A    
C69   Br2   S    
C50   C58   A    
O1    Zn1   S    
C8    O8    A    
C7    C26   S    
C60   C68   A    
C44   H15   S    
C42   C50   A    
N4    N7    D    
C7    O15   A    
O9    Zn2   S    
C55   H19   S    
O14   Zn3   S    
C12   C76   A    
N13   N14   D    
C29   C37   A    
C15   H39   S    
C18   N10   A    
C3    O3    A    
C53   C61   A    
C20   H44   S    
C1    O1    A    
C39   C47   A    
C48   C56   A    
C22   C30   A    
C8    O16   A    
C64   H28   S    
C10   N14   S    
C57   C65   A    
C60   H24   S    
C44   C52   A    
C48   N4    S    
C35   H8    S    
C47   N3    S    
C2    O10   A    
C49   N5    S    
C31   H4    S    
C43   H16   S    
C13   C17   A    
C42   H13   S    
C27   C35   A    
C70   Br1   S    
O8    Zn3   S    
C51   N7    S    
N1    N6    D    
C11   C75   A    
C1    C24   S    
C32   H3    S    
C71   C75   A    
C4    C21   S    
C10   C74   A    
C43   C51   A    
O7    Zn4   S    
O10   Zn1   S    
C21   C29   A    
N2    N5    D    
C76   H35   S    
C31   C39   A    
N10   Zn1   S    
C32   C40   A    
C56   H20   S    
O11   Zn1   S    
C38   C46   A    
C27   C67   A    
C45   C53   A    
C6    O14   A    
C51   C59   A    
C28   C36   A    
C71   N11   A    
C69   N9    A    
C12   N16   S    
N3    N8    D    
C2    C23   S    
C46   N2    S    
C3    C22   S    
C68   H32   S    
O6    Zn4   S    
C37   C45   A    
C13   H37   S    
C23   C31   A    
C62   H26   S    
C9    N13   S    
