data_mof_unit_54604.cif
_audit_creation_date              2012-12-11T15:08:56-0500
_audit_creation_method            fapswitch 2.2
_symmetry_space_group_name_H-M    P1
_symmetry_Int_Tables_number       1
_space_group_crystal_system       triclinic
_cell_length_a                    19.494039
_cell_length_b                    11.35109
_cell_length_c                    18.69502
_cell_angle_alpha                 90.060389
_cell_angle_beta                  90.469462
_cell_angle_gamma                 90.022957
_cell_volume                      4136.6661793

loop_
_atom_site_label
_atom_site_type_symbol
_atom_type_description
_atom_site_fract_x
_atom_site_fract_y
_atom_site_fract_z
_atom_type_partial_charge
C1    C     C_R   0.272988 0.041976 0.854557 0.542916
C2    C     C_R   0.726996 0.041009 0.145306 0.534858
C3    C     C_R   0.772806 0.542170 0.854734 0.535301
C4    C     C_R   0.226586 0.540774 0.144957 0.539898
C5    C     C_3   0.515772 0.712160 0.966855 -0.088380
C6    C     C_3   0.479463 0.731283 0.038546 -0.082194
C7    C     C_3   0.019564 0.222716 0.963586 -0.088357
C8    C     C_3   0.982541 0.223684 0.035706 -0.089354
C9    C     C_3   0.314865 0.533448 0.046498 -0.214677
C10   C     C_3   0.683419 0.539652 0.953565 -0.212850
C11   C     C_3   0.810533 0.017923 0.042989 -0.213089
C12   C     C_3   0.186083 0.031855 0.954213 -0.215463
C13   C     C_3   0.329047 0.574317 0.968755 -0.005641
C14   C     C_3   0.672300 0.566272 0.034150 -0.009180
C15   C     C_3   0.821464 0.051141 0.964238 0.004836
C16   C     C_3   0.173577 0.067908 0.032897 -0.005678
C17   C     C_3   0.184396 0.511184 0.021080 -0.215373
C18   C     C_3   0.815871 0.512175 0.978166 -0.214541
C19   C     C_3   0.679853 0.023260 0.025519 -0.188499
C20   C     C_3   0.316661 0.012623 0.976670 -0.207083
C21   C     C_3   0.235951 0.701759 0.055751 -0.273265
C22   C     C_3   0.765784 0.701805 0.946188 -0.264569
C23   C     C_3   0.745451 0.202115 0.058478 -0.262554
C24   C     C_3   0.263997 0.202495 0.944700 -0.278072
C25   C     C_3   0.241032 0.570334 0.069339 0.000126
C26   C     C_3   0.758286 0.571689 0.930863 -0.003819
C27   C     C_3   0.741752 0.070065 0.069910 0.002908
C28   C     C_3   0.259058 0.071147 0.930343 0.001890
C29   C     C_3   0.259080 0.609944 0.932296 0.064653
C30   C     C_3   0.741895 0.604909 0.069086 0.062333
C31   C     C_3   0.755581 0.112703 0.932525 0.069817
C32   C     C_3   0.243039 0.108059 0.068203 0.066945
C33   C     C_3   0.209962 0.505533 0.942767 0.002347
C34   C     C_3   0.792408 0.503719 0.056917 -0.001820
C35   C     C_3   0.686778 0.047759 0.945346 0.012927
C36   C     C_3   0.295599 0.009361 0.056519 -0.000772
C37   C     C_3   0.231545 0.719605 0.974172 -0.268748
C38   C     C_3   0.766529 0.717032 0.028036 -0.262204
C39   C     C_3   0.750582 0.226894 0.977279 -0.241606
C40   C     C_3   0.267834 0.219724 0.026523 -0.266330
C41   C     C_3   0.507111 0.700584 0.461742 -0.227727
C42   C     C_3   0.505010 0.700301 0.541799 -0.232415
C43   C     C_3   0.994979 0.200329 0.458108 -0.233097
C44   C     C_3   0.992915 0.200535 0.538168 -0.228258
C45   C     C_R   0.444535 0.816251 0.862271 0.524121
C46   C     C_R   0.558526 0.816949 0.137652 0.536871
C47   C     C_R   0.943643 0.317059 0.862362 0.541229
C48   C     C_R   0.057788 0.316780 0.137761 0.540949
C49   C     C_3   0.563995 0.908362 0.474387 -0.217960
C50   C     C_3   0.433409 0.885343 0.527115 -0.226675
C51   C     C_3   0.066710 0.385298 0.473031 -0.228805
C52   C     C_3   0.936113 0.408332 0.525791 -0.220157
C53   C     C_3   0.442860 0.883661 0.444867 -0.258321
C54   C     C_3   0.556757 0.897682 0.556443 -0.254250
C55   C     C_3   0.943357 0.397775 0.443725 -0.252243
C56   C     C_3   0.057238 0.383583 0.555282 -0.257404
C57   C     C_3   0.512343 0.828421 0.431732 0.059814
C58   C     C_3   0.492131 0.827249 0.570364 0.059316
C59   C     C_3   0.007935 0.327309 0.429696 0.057395
C60   C     C_3   0.987724 0.328339 0.568330 0.059841
C61   C     C_3   0.181699 0.657074 0.458139 -0.237216
C62   C     C_3   0.820185 0.646888 0.541015 -0.227659
C63   C     C_3   0.679837 0.146984 0.459021 -0.227767
C64   C     C_3   0.318282 0.157000 0.541931 -0.237196
C65   C     C_3   0.180803 0.652937 0.538609 -0.236991
C66   C     C_3   0.815210 0.659653 0.461757 -0.228589
C67   C     C_3   0.684787 0.159593 0.538287 -0.228096
C68   C     C_3   0.319142 0.153028 0.461438 -0.237072
C69   C     C_3   0.242463 0.460057 0.473174 -0.234045
C70   C     C_3   0.747686 0.455435 0.526699 -0.220204
C71   C     C_3   0.752300 0.955522 0.473050 -0.218855
C72   C     C_3   0.257629 0.959896 0.526453 -0.234416
C73   C     C_3   0.308018 0.635382 0.443220 -0.253609
C74   C     C_3   0.696017 0.647268 0.557984 -0.261901
C75   C     C_3   0.804004 0.147431 0.442094 -0.261742
C76   C     C_3   0.191941 0.134842 0.556915 -0.253407
C77   C     C_3   0.240189 0.575147 0.429510 0.064100
C78   C     C_3   0.759729 0.572414 0.570053 0.064330
C79   C     C_3   0.740271 0.072553 0.429904 0.063525
C80   C     C_3   0.259842 0.074843 0.570431 0.063777
C81   C     C_3   0.251685 0.607616 0.567551 0.061019
C82   C     C_3   0.746995 0.606859 0.432558 0.060591
C83   C     C_3   0.752999 0.106818 0.567422 0.062535
C84   C     C_3   0.248223 0.107792 0.432473 0.061617
C85   C     C_3   0.256036 0.476736 0.553731 -0.255060
C86   C     C_3   0.751885 0.474241 0.444940 -0.260062
C87   C     C_3   0.748095 0.974208 0.554831 -0.261529
C88   C     C_3   0.243770 0.976862 0.445995 -0.254843
C89   C     C_R   0.264395 0.646724 0.856195 0.609399
C90   C     C_R   0.736940 0.641529 0.145410 0.608229
C91   C     C_R   0.763005 0.145017 0.855687 0.573113
C92   C     C_R   0.236872 0.143170 0.144792 0.604371
C93   C     C_3   0.310216 0.663708 0.523854 -0.234513
C94   C     C_3   0.683049 0.649324 0.476158 -0.221247
C95   C     C_3   0.816966 0.149379 0.523923 -0.220798
C96   C     C_3   0.189766 0.163760 0.476405 -0.235041
C97   C     C_R   0.273083 0.043856 0.646085 0.542013
C98   C     C_R   0.726732 0.042974 0.354211 0.539900
C99   C     C_R   0.773288 0.542860 0.645746 0.536084
C100  C     C_R   0.226987 0.544109 0.353826 0.540435
C101  C     C_R   0.470282 0.822795 0.646551 0.535851
C102  C     C_R   0.532362 0.822889 0.355120 0.547284
C103  C     C_R   0.967674 0.322847 0.644912 0.549507
C104  C     C_R   0.029748 0.322828 0.353481 0.547984
C105  C     C_R   0.260751 0.640838 0.643599 0.555012
C106  C     C_R   0.738865 0.641066 0.356588 0.551669
C107  C     C_R   0.761123 0.141001 0.643420 0.540123
C108  C     C_R   0.239177 0.141082 0.356473 0.551354
C109  C     C_3   0.493270 0.921761 0.028738 -0.046941
C110  C     C_3   0.529574 0.900540 0.956696 -0.108568
C111  C     C_3   0.984196 0.415556 0.035628 -0.083058
C112  C     C_3   0.020454 0.414598 0.963198 -0.080517
C113  C     C_3   0.436992 0.832607 0.006693 -0.141936
C114  C     C_3   0.571703 0.800107 0.989651 -0.187386
C115  C     C_3   0.933813 0.320106 0.008535 -0.161030
C116  C     C_3   0.069628 0.317708 0.990758 -0.152630
C117  C     C_3   0.473750 0.814252 0.935517 0.026735
C118  C     C_3   0.534616 0.820525 0.061511 0.039367
C119  C     C_3   0.971138 0.319878 0.936507 0.041380
C120  C     C_3   0.032056 0.319341 0.062802 0.039341
Cr1   Cr    Cr6+3 0.229620 0.836040 0.749110 1.030256
Cr2   Cr    Cr6+3 0.770380 0.836040 0.250890 1.028999
Cr3   Cr    Cr6+3 0.729620 0.336040 0.749110 1.037998
Cr4   Cr    Cr6+3 0.270380 0.336040 0.250890 1.033060
Cr5   Cr    Cr6+3 0.387630 0.990680 0.750730 1.046156
Cr6   Cr    Cr6+3 0.612370 0.990680 0.249270 1.052301
Cr7   Cr    Cr6+3 0.887630 0.490680 0.750730 1.047179
Cr8   Cr    Cr6+3 0.112370 0.490680 0.249270 1.045634
Cr9   Cr    Cr6+3 0.386020 0.676590 0.749210 1.058173
Cr10  Cr    Cr6+3 0.613980 0.676590 0.250790 1.055585
Cr11  Cr    Cr6+3 0.886020 0.176590 0.749210 1.053673
Cr12  Cr    Cr6+3 0.113980 0.176590 0.250790 1.055642
H1    H     H_    0.383523 0.826325 0.024261 0.122303
H2    H     H_    0.625966 0.790957 0.975229 0.088100
H3    H     H_    0.881381 0.312946 0.027596 0.135374
H4    H     H_    0.123459 0.307190 0.975332 0.123819
H5    H     H_    0.189968 0.738988 0.081390 0.213960
H6    H     H_    0.815470 0.728831 0.924905 0.219696
H7    H     H_    0.698914 0.243645 0.080218 0.217337
H8    H     H_    0.310228 0.241015 0.919713 0.210223
H9    H     H_    0.282131 0.744264 0.079216 0.128749
H10   H     H_    0.725308 0.755118 0.919539 0.127705
H11   H     H_    0.790490 0.237429 0.088297 0.134867
H12   H     H_    0.218281 0.245067 0.920606 0.138898
H13   H     H_    0.260509 0.796973 0.959420 0.094133
H14   H     H_    0.733606 0.790044 0.042792 0.095634
H15   H     H_    0.796343 0.274382 0.965805 0.059030
H16   H     H_    0.237453 0.294944 0.042216 0.090391
H17   H     H_    0.177018 0.735798 0.958978 0.190299
H18   H     H_    0.820304 0.736154 0.044847 0.189416
H19   H     H_    0.707925 0.282716 0.960611 0.206320
H20   H     H_    0.322047 0.239158 0.041511 0.200417
H21   H     H_    0.631823 0.064543 0.045130 0.201492
H22   H     H_    0.365208 0.063826 0.972157 0.189659
H23   H     H_    0.136047 0.563324 0.022464 0.170288
H24   H     H_    0.863876 0.565459 0.977478 0.167941
H25   H     H_    0.547801 0.641825 0.444396 0.137529
H26   H     H_    0.466760 0.633872 0.557665 0.136778
H27   H     H_    0.033180 0.133866 0.442143 0.136405
H28   H     H_    0.952248 0.141714 0.555473 0.137349
H29   H     H_    0.459890 0.657928 0.440298 0.118655
H30   H     H_    0.553408 0.666505 0.564021 0.116903
H31   H     H_    0.946562 0.166579 0.435854 0.117725
H32   H     H_    0.040150 0.157924 0.559521 0.118819
H33   H     H_    0.616413 0.897666 0.457011 0.108275
H34   H     H_    0.391295 0.830831 0.540808 0.107295
H35   H     H_    0.108772 0.330688 0.459291 0.106700
H36   H     H_    0.883676 0.397647 0.543131 0.108297
H37   H     H_    0.601272 0.851531 0.580373 0.106809
H38   H     H_    0.401361 0.833904 0.417756 0.112143
H39   H     H_    0.098718 0.333811 0.582320 0.113425
H40   H     H_    0.898803 0.351706 0.419709 0.111834
H41   H     H_    0.490267 0.012613 0.050118 0.200611
H42   H     H_    0.546678 0.954632 0.912275 0.201353
H43   H     H_    0.977916 0.502714 0.061190 0.188840
H44   H     H_    0.027727 0.501243 0.937394 0.187207
H45   H     H_    0.442035 0.973867 0.422379 0.119260
H46   H     H_    0.552808 0.986197 0.581518 0.120411
H47   H     H_    0.947373 0.486332 0.418820 0.123808
H48   H     H_    0.058089 0.473758 0.577924 0.119672
H49   H     H_    0.425660 0.976581 0.545384 0.129395
H50   H     H_    0.550036 0.000092 0.461179 0.120637
H51   H     H_    0.950109 0.500050 0.539182 0.120738
H52   H     H_    0.074546 0.476516 0.454885 0.128879
H53   H     H_    0.129282 0.635436 0.439489 0.139793
H54   H     H_    0.870305 0.610656 0.554504 0.136337
H55   H     H_    0.629690 0.110840 0.445418 0.136346
H56   H     H_    0.370712 0.135406 0.560503 0.139799
H57   H     H_    0.190846 0.748216 0.439602 0.119976
H58   H     H_    0.820489 0.735394 0.566466 0.119702
H59   H     H_    0.679610 0.235533 0.433744 0.119954
H60   H     H_    0.309104 0.248072 0.560668 0.120581
H61   H     H_    0.164689 0.740737 0.557432 0.137267
H62   H     H_    0.821480 0.752653 0.448656 0.134756
H63   H     H_    0.678500 0.252573 0.551560 0.135875
H64   H     H_    0.335258 0.240863 0.442766 0.137360
H65   H     H_    0.140092 0.593011 0.556844 0.120932
H66   H     H_    0.859594 0.615526 0.436270 0.123286
H67   H     H_    0.640393 0.115367 0.563665 0.121068
H68   H     H_    0.359812 0.093114 0.443045 0.120876
H69   H     H_    0.721319 0.882469 0.454097 0.109773
H70   H     H_    0.308806 0.929834 0.531492 0.110619
H71   H     H_    0.191382 0.429670 0.467627 0.110531
H72   H     H_    0.778714 0.382440 0.545470 0.109987
H73   H     H_    0.699774 0.939353 0.576367 0.110278
H74   H     H_    0.281871 0.927945 0.413467 0.111072
H75   H     H_    0.217766 0.427767 0.585975 0.112880
H76   H     H_    0.800204 0.439462 0.423327 0.114847
H77   H     H_    0.351233 0.576437 0.428504 0.124437
H78   H     H_    0.652855 0.605954 0.586762 0.113216
H79   H     H_    0.847131 0.106142 0.413236 0.114468
H80   H     H_    0.148775 0.075584 0.571353 0.124638
H81   H     H_    0.311250 0.716595 0.410507 0.105262
H82   H     H_    0.702869 0.737399 0.579534 0.111353
H83   H     H_    0.797191 0.237579 0.420700 0.114264
H84   H     H_    0.188571 0.215794 0.589963 0.106746
H85   H     H_    0.524090 0.624493 0.942074 0.187726
H86   H     H_    0.458879 0.658729 0.071666 0.163321
H87   H     H_    0.033695 0.141020 0.934657 0.165633
H88   H     H_    0.966646 0.142935 0.064598 0.165614
H89   H     H_    0.299847 0.754962 0.528685 0.108406
H90   H     H_    0.661853 0.732181 0.457522 0.109361
H91   H     H_    0.838197 0.232186 0.542763 0.109766
H92   H     H_    0.200278 0.255044 0.472151 0.108661
H93   H     H_    0.360393 0.639622 0.546438 0.130966
H94   H     H_    0.642940 0.582758 0.465937 0.120093
H95   H     H_    0.857041 0.082803 0.534030 0.120187
H96   H     H_    0.139553 0.140004 0.453721 0.130836
H97   H     H_    0.279792 0.397959 0.450811 0.132529
H98   H     H_    0.694248 0.428783 0.537679 0.120358
H99   H     H_    0.805743 0.928981 0.462020 0.120246
H100  H     H_    0.220498 0.897478 0.548807 0.132096
H101  H     H_    0.308114 0.444354 0.568320 0.125353
H102  H     H_    0.709152 0.427878 0.417083 0.116871
H103  H     H_    0.790821 0.927854 0.582608 0.115520
H104  H     H_    0.191611 0.944584 0.431529 0.125232
H105  H     H_    0.320809 0.437245 0.051074 0.171397
H106  H     H_    0.670481 0.448075 0.940758 0.190617
H107  H     H_    0.812627 0.923122 0.049824 0.165681
H108  H     H_    0.179865 0.936050 0.947555 0.171734
H109  H     H_    0.353406 0.572840 0.083461 0.125670
H110  H     H_    0.646466 0.592396 0.921296 0.116278
H111  H     H_    0.853654 0.052982 0.076085 0.124070
H112  H     H_    0.146585 0.073278 0.919219 0.125254
H113  H     H_    0.362095 0.652715 0.969810 0.129185
H114  H     H_    0.636511 0.638643 0.041256 0.149471
H115  H     H_    0.863324 0.117604 0.964219 0.148128
H116  H     H_    0.138500 0.143118 0.034583 0.138062
H117  H     H_    0.671554 0.930687 0.036092 0.064421
H118  H     H_    0.329413 0.927642 0.953236 0.075859
H119  H     H_    0.169740 0.427420 0.044467 0.079482
H120  H     H_    0.833265 0.432334 0.952777 0.088758
H121  H     H_    0.685371 0.964094 0.914489 0.129377
H122  H     H_    0.269674 0.926018 0.067353 0.163498
H123  H     H_    0.240382 0.425289 0.937376 0.169286
H124  H     H_    0.764513 0.421152 0.063051 0.170969
O1    O     O_R   0.214130 0.708570 0.829890 -0.479502
O2    O     O_R   0.785870 0.708570 0.170110 -0.480622
O3    O     O_R   0.714130 0.208570 0.829890 -0.467146
O4    O     O_R   0.285870 0.208570 0.170110 -0.474828
O5    O     O_R   0.446360 0.919990 0.675230 -0.506272
O6    O     O_R   0.553640 0.919990 0.324770 -0.499861
O7    O     O_R   0.946360 0.419990 0.675230 -0.500265
O8    O     O_R   0.053640 0.419990 0.324770 -0.501075
O9    O     O_R   0.457170 0.717300 0.668380 -0.529762
O10   O     O_R   0.542830 0.717300 0.331620 -0.527906
O11   O     O_R   0.957170 0.217300 0.668380 -0.526675
O12   O     O_R   0.042830 0.217300 0.331620 -0.528745
O13   O     O_R   0.320870 0.624890 0.673130 -0.506206
O14   O     O_R   0.679130 0.624890 0.326870 -0.507560
O15   O     O_R   0.820870 0.124890 0.673130 -0.507965
O16   O     O_R   0.179130 0.124890 0.326870 -0.508128
O17   O     O_3   0.334430 0.834430 0.749680 -0.315726
O18   O     O_3   0.665570 0.834430 0.250320 -0.321313
O19   O     O_3   0.834430 0.334430 0.749680 -0.317623
O20   O     O_3   0.165570 0.334430 0.250320 -0.319333
O21   O     O_R   0.236050 0.959150 0.825270 -0.518363
O22   O     O_R   0.763950 0.959150 0.174730 -0.516346
O23   O     O_R   0.736050 0.459150 0.825270 -0.509270
O24   O     O_R   0.263950 0.459150 0.174730 -0.515942
O25   O     O_R   0.332100 0.076650 0.832310 -0.501089
O26   O     O_R   0.667900 0.076650 0.167690 -0.509714
O27   O     O_R   0.832100 0.576650 0.832310 -0.508115
O28   O     O_R   0.167900 0.576650 0.167690 -0.508931
O29   O     O_R   0.446500 0.918620 0.826240 -0.489077
O30   O     O_R   0.553500 0.918620 0.173760 -0.469971
O31   O     O_R   0.946500 0.418620 0.826240 -0.475060
O32   O     O_R   0.053500 0.418620 0.173760 -0.474501
O33   O     O_R   0.457310 0.715830 0.831280 -0.491372
O34   O     O_R   0.542690 0.715830 0.168720 -0.488900
O35   O     O_R   0.957310 0.215830 0.831280 -0.488856
O36   O     O_R   0.042690 0.215830 0.168720 -0.485287
O37   O     O_R   0.321000 0.623520 0.824130 -0.465526
O38   O     O_R   0.679000 0.623520 0.175870 -0.477696
O39   O     O_R   0.821000 0.123520 0.824130 -0.473326
O40   O     O_R   0.179000 0.123520 0.175870 -0.472635
O41   O     O_R   0.213990 0.710040 0.667000 -0.521145
O42   O     O_R   0.786010 0.710040 0.333000 -0.520749
O43   O     O_R   0.713990 0.210040 0.667000 -0.526723
O44   O     O_R   0.286010 0.210040 0.333000 -0.521286
O45   O     O_R   0.235920 0.960520 0.674260 -0.514414
O46   O     O_R   0.764080 0.960520 0.325740 -0.513601
O47   O     O_R   0.735920 0.460520 0.674260 -0.513273
O48   O     O_R   0.264080 0.460520 0.325740 -0.513977
O49   O     O_R   0.331960 0.078120 0.669410 -0.526072
O50   O     O_R   0.668040 0.078120 0.330590 -0.526744
O51   O     O_R   0.831960 0.578120 0.669410 -0.528250
O52   O     O_R   0.168040 0.578120 0.330590 -0.527601
Br1   Br    Br    0.141969 0.486382 0.866121 -0.553024
Br2   Br    Br    0.863068 0.492577 0.131501 -0.559203
Br3   Br    Br    0.606416 0.148036 0.917489 -0.527771
Br4   Br    Br    0.372349 0.013682 0.124613 -0.545008
Br5   Br    Br    0.383665 0.454014 0.920225 -0.524752
Br6   Br    Br    0.622208 0.438524 0.080147 -0.518969
Br7   Br    Br    0.867412 0.930531 0.909142 -0.565334
Br8   Br    Br    0.121807 0.944916 0.081605 -0.562901

loop_
_geom_bond_atom_site_label_1
_geom_bond_atom_site_label_2
_ccdc_geom_bond_type
C36   Br4   S    
C55   C59   S    
C83   C87   S    
C73   C93   S    
C47   O35   A    
C42   C58   S    
C29   C89   S    
C75   C95   S    
C48   C120  S    
Cr5   O17   S    
C24   H8    S    
C57   C102  S    
C85   H101  S    
C59   C104  S    
C63   H55   S    
Cr1   O21   S    
Cr9   O37   S    
Cr2   O18   S    
C5    C6    S    
Cr10  O14   S    
C109  H41   S    
Cr11  O11   S    
C22   C38   S    
C29   C33   S    
C87   H103  S    
C30   C38   S    
C77   C100  S    
C9    C13   S    
C87   H73   S    
C72   C88   S    
C11   C15   S    
C5    H85   S    
C12   C16   S    
C102  O6    A    
C99   O51   A    
C103  O11   A    
C60   C103  S    
C83   C107  S    
C113  H1    S    
C74   H82   S    
C61   H57   S    
C54   H37   S    
C23   H11   S    
C64   H60   S    
C109  C118  S    
C16   H116  S    
C70   H72   S    
Cr5   O29   S    
C50   C53   S    
C46   O30   A    
C7    C119  S    
C33   H123  S    
Cr8   O32   S    
C62   H58   S    
C62   C66   S    
C20   C28   S    
Cr3   O3    S    
C90   O38   A    
C54   H46   S    
C100  O48   A    
C43   C44   S    
C1    O21   A    
C66   C82   S    
C3    O23   A    
C11   C27   S    
C58   C101  S    
C106  O42   A    
C53   H38   S    
C97   O45   A    
C56   H39   S    
C4    O24   A    
C82   C94   S    
C90   O2    A    
C55   H40   S    
C18   H24   S    
C92   O40   A    
Cr2   O46   S    
C3    C26   S    
Cr3   O43   S    
C84   C88   S    
C31   C91   S    
Cr7   O19   S    
C53   H45   S    
Cr12  O16   S    
Cr10  O38   S    
Cr11  O35   S    
C17   C25   S    
C19   C35   S    
C76   C96   S    
C1    O25   A    
C32   C92   S    
C75   H83   S    
Cr3   O23   S    
C33   Br1   S    
C98   O46   A    
C95   H91   S    
C41   C57   S    
C61   C65   S    
C12   H108  S    
C78   C99   S    
C71   H99   S    
C104  O8    A    
C75   C79   S    
Cr12  O20   S    
C67   C83   S    
Cr8   O52   S    
C80   C97   S    
C11   H111  S    
C69   C77   S    
C111  C112  S    
C9    H109  S    
C71   C79   S    
C4    C25   S    
Cr4   O24   S    
C7    C8    S    
C8    H88   S    
C64   C68   S    
C73   H77   S    
C24   H12   S    
C43   H27   S    
C39   H19   S    
C49   C57   S    
C40   H20   S    
C34   H124  S    
C38   H14   S    
C52   C60   S    
C15   Br7   S    
C61   C77   S    
C12   H112  S    
C93   H93   S    
C110  C114  S    
C43   C59   S    
C62   H54   S    
C76   H80   S    
C10   H106  S    
Cr6   O18   S    
C14   Br6   S    
Cr2   O22   S    
Cr3   O19   S    
C95   H95   S    
C110  H42   S    
C81   C105  S    
C30   C34   S    
C10   C14   S    
C35   Br3   S    
C36   H122  S    
C116  C120  S    
C20   C36   S    
C7    C116  S    
C69   H97   S    
C22   H10   S    
C61   H53   S    
C114  H2    S    
Cr11  O15   S    
C66   H66   S    
C64   H56   S    
C113  C117  S    
C112  H44   S    
Cr5   O25   S    
C115  C119  S    
Cr6   O30   S    
C22   C26   S    
Cr8   O28   S    
C112  C116  S    
C69   C85   S    
C85   H75   S    
C72   H70   S    
C56   H48   S    
C45   C117  S    
C21   C25   S    
C73   C77   S    
C72   H100  S    
C55   H47   S    
C62   C78   S    
C76   C80   S    
C2    O22   A    
C42   H30   S    
C15   C31   S    
C16   C32   S    
C97   O49   A    
C72   C80   S    
C107  O43   A    
C9    H105  S    
C115  H3    S    
C4    O28   A    
C82   C106  S    
Cr5   O49   S    
C91   O3    A    
C13   Br5   S    
C69   H71   S    
Cr5   O5    S    
C94   H90   S    
C81   C85   S    
Cr1   O1    S    
C13   H113  S    
C41   H29   S    
C41   C42   S    
C74   C94   S    
Cr9   O17   S    
C18   C26   S    
C30   C90   S    
C9    C25   S    
C2    O26   A    
C75   H79   S    
C86   H102  S    
C12   C28   S    
C13   C29   S    
C34   Br2   S    
C67   H67   S    
C98   O50   A    
C45   O29   A    
C46   C118  S    
C66   H62   S    
C6    H86   S    
C51   H35   S    
C50   H34   S    
C1    C28   S    
Cr1   O41   S    
C2    C27   S    
Cr10  O18   S    
Cr4   O44   S    
C52   C55   S    
C32   C36   S    
C64   C80   S    
C73   H81   S    
C42   H26   S    
C17   C33   S    
C110  C117  S    
C38   H18   S    
C65   H61   S    
C105  O13   A    
C40   H16   S    
C107  O15   A    
C68   C84   S    
C24   C28   S    
C108  O16   A    
C51   H52   S    
C45   O33   A    
C86   H76   S    
C53   C57   S    
C19   H117  S    
C82   C86   S    
C17   H119  S    
C56   C60   S    
C50   C58   S    
C49   H33   S    
C48   O36   A    
Cr7   O31   S    
C76   H84   S    
C65   C81   S    
Cr7   O51   S    
C68   H64   S    
C71   C87   S    
C15   H115  S    
C44   H28   S    
C31   C35   S    
C96   H96   S    
Cr9   O9    S    
C16   Br8   S    
C101  O9    A    
C37   H17   S    
C112  C119  S    
C116  H4    S    
C22   H6    S    
C21   H9    S    
C47   O31   A    
C109  C110  S    
C48   O32   A    
C89   O37   A    
C44   C60   S    
C63   H59   S    
Cr6   O26   S    
C91   O39   A    
C84   C108  S    
Cr7   O7    S    
Cr8   O8    S    
Cr1   O17   S    
C94   H94   S    
Cr10  O10   S    
Cr12  O40   S    
C21   C37   S    
Cr4   O4    S    
C74   C78   S    
C29   C37   S    
C44   H32   S    
C43   H31   S    
C101  O5    A    
C5    C114  S    
C70   C78   S    
C79   C98   S    
C10   H110  S    
C52   H51   S    
C63   C79   S    
C20   H22   S    
C74   H78   S    
C111  H43   S    
C23   H7    S    
Cr6   O50   S    
C84   C96   S    
C11   H107  S    
C49   C54   S    
Cr6   O6    S    
C19   H21   S    
C51   C56   S    
C46   O34   A    
Cr7   O27   S    
Cr8   O20   S    
C8    C115  S    
C20   H118  S    
Cr2   O2    S    
C18   H120  S    
C96   H92   S    
Cr12  O36   S    
C23   C27   S    
C19   C27   S    
C109  C113  S    
C7    H87   S    
C10   C26   S    
C47   C119  S    
Cr9   O33   S    
C105  O41   A    
C14   C30   S    
C67   H63   S    
C92   O4    A    
C108  O44   A    
C88   H104  S    
C63   C67   S    
C89   O1    A    
Cr1   O45   S    
C21   H5    S    
C5    C117  S    
C111  C120  S    
Cr2   O42   S    
Cr3   O47   S    
C70   H98   S    
C6    C113  S    
Cr11  O19   S    
Cr4   O48   S    
Cr12  O12   S    
C81   C93   S    
C83   C95   S    
Cr10  O34   S    
Cr11  O39   S    
C18   C34   S    
C114  C118  S    
C65   H65   S    
C106  O14   A    
C41   H25   S    
C50   H49   S    
C51   C59   S    
C70   C86   S    
C99   O47   A    
C8    C120  S    
C35   H121  S    
C54   C58   S    
C71   H69   S    
C104  O12   A    
C88   H74   S    
C93   H89   S    
C68   H68   S    
C52   H36   S    
Cr4   O20   S    
C23   C39   S    
C3    O27   A    
C24   C40   S    
C31   C39   S    
C32   C40   S    
Cr9   O13   S    
C49   H50   S    
C100  O52   A    
C102  O10   A    
C39   H15   S    
C103  O7    A    
C111  C115  S    
C37   H13   S    
C6    C118  S    
C14   H114  S    
C17   H23   S    
