data_mof_unit_53014.cif
_audit_creation_date              2012-12-10T16:50:55-0500
_audit_creation_method            fapswitch 2.2
_symmetry_space_group_name_H-M    P1
_symmetry_Int_Tables_number       1
_space_group_crystal_system       triclinic
_cell_length_a                    7.782145
_cell_length_b                    8.635326
_cell_length_c                    10.436607
_cell_angle_alpha                 90.779603
_cell_angle_beta                  87.626795
_cell_angle_gamma                 92.900856
_cell_volume                      699.808118484

loop_
_atom_site_label
_atom_site_type_symbol
_atom_type_description
_atom_site_fract_x
_atom_site_fract_y
_atom_site_fract_z
_atom_type_partial_charge
C1    C     C_R   0.544473 0.793911 0.496988 0.927876
C2    C     C_R   0.964941 0.694218 0.063421 -0.081490
C3    C     C_R   0.109710 0.791607 0.084097 -0.183509
C4    C     C_R   0.946133 0.760276 0.946498 -0.160016
C5    C     C_R   0.243667 0.723476 0.142476 -0.211553
C6    C     C_R   0.838413 0.670062 0.865906 -0.218365
C7    C     C_R   0.367358 0.644911 0.070157 0.033720
C8    C     C_R   0.679540 0.614288 0.929828 0.021346
C9    C     C_R   0.372910 0.653367 0.934673 0.075120
C10   C     C_R   0.668618 0.618417 0.067326 0.053406
C11   C     C_R   0.508415 0.587846 0.129946 -0.200653
C12   C     C_R   0.455535 0.206123 0.503004 0.950686
C13   C     C_R   0.521491 0.595993 0.867655 -0.222082
C14   C     C_2   0.566395 0.955637 0.512740 -0.096069
C15   C     C_2   0.433761 0.044366 0.486950 -0.114798
C16   C     C_R   0.508624 0.532041 0.737286 0.908861
C17   C     C_R   0.500602 0.525196 0.260680 0.900952
C18   C     C_R   0.249920 0.743024 0.873910 0.150414
C19   C     C_R   0.811271 0.682732 0.134908 0.077056
C20   C     C_R   0.120044 0.816174 0.948332 -0.159560
H1    H     H_    0.130353 0.938895 0.924162 0.123216
H2    H     H_    0.176548 0.814020 0.701565 0.187137
H3    H     H_    0.781405 0.892469 0.218206 0.156634
H4    H     H_    0.892177 0.769493 0.304016 0.204435
H5    H     H_    0.826901 0.988916 0.510428 0.184654
H6    H     H_    0.732803 0.960896 0.658110 0.159608
H7    H     H_    0.173196 0.010365 0.490906 0.186601
H8    H     H_    0.265544 0.038806 0.342670 0.162147
H9    H     H_    0.997071 0.571927 0.053071 0.182491
H10   H     H_    0.257532 0.745471 0.243921 0.188310
H11   H     H_    0.846619 0.688951 0.764053 0.151622
H12   H     H_    0.011878 0.377597 0.409604 0.190596
H13   H     H_    0.988901 0.625625 0.586574 0.172446
H14   H     H_    0.869155 0.864053 0.950063 0.153910
H15   H     H_    0.078688 0.894676 0.140299 0.140632
H16   H     H_    0.347035 0.916201 0.760225 0.155137
N1    N     N_2   0.950330 0.457950 0.466250 -0.173633
N2    N     N_2   0.049670 0.542050 0.533750 -0.174512
N3    N     N_3   0.291065 0.804391 0.749195 -0.426719
N4    N     N_3   0.785592 0.777276 0.247004 -0.425637
N5    N     N_3   0.721531 0.016168 0.570487 -0.434674
N6    N     N_3   0.278048 0.983624 0.430154 -0.458907
O1    O     O_R   0.389250 0.738570 0.508280 -0.601046
O2    O     O_R   0.610750 0.261430 0.491720 -0.582569
O3    O     O_R   0.678390 0.711630 0.486650 -0.656536
O4    O     O_R   0.321610 0.288370 0.513350 -0.634457
O5    O     O_R   0.355430 0.513480 0.694040 -0.591338
O6    O     O_R   0.644570 0.486520 0.305960 -0.600541
O7    O     O_R   0.644570 0.486540 0.672410 -0.618731
O8    O     O_R   0.355430 0.513460 0.327590 -0.636073
Zn1   Zn    Zn3+2 0.306940 0.517990 0.514440 0.930311
Zn2   Zn    Zn3+2 0.693060 0.482010 0.485560 0.934145

loop_
_geom_bond_atom_site_label_1
_geom_bond_atom_site_label_2
_ccdc_geom_bond_type
C17   O8    A    
C2    C4    A    
C18   N3    S    
C17   O6    A    
C8    C13   A    
N2    Zn1   S    
C5    C7    A    
H13   N2    S    
C12   C15   S    
C3    H15   S    
C10   C19   A    
O7    Zn2   S    
O1    Zn1   S    
O2    Zn2   S    
C6    H11   S    
C3    C20   A    
C12   O2    A    
H12   N1    S    
C16   O7    A    
C7    C11   A    
H7    N6    S    
C1    O3    A    
N1    N2    D    
C2    H9    S    
H2    N3    S    
C16   O5    A    
H8    N6    S    
H4    N4    S    
C2    C3    A    
C18   C20   A    
C14   N5    S    
C8    C10   A    
C4    H14   S    
C10   C11   A    
H3    N4    S    
C4    C20   A    
C9    C18   A    
O6    Zn2   S    
C20   H1    S    
H6    N5    S    
C4    C6    A    
C5    H10   S    
C19   N4    S    
C13   C16   S    
H5    N5    S    
C7    C9    A    
N1    Zn2   S    
C9    C13   A    
C14   C15   D    
C11   C17   S    
C6    C8    A    
C1    C14   S    
O3    Zn2   S    
O8    Zn1   S    
C2    C19   A    
O4    Zn1   S    
C1    O1    A    
H16   N3    S    
O5    Zn1   S    
C15   N6    S    
C3    C5    A    
C12   O4    A    
