data_mof_unit_53588.cif
_audit_creation_date              2012-12-10T18:01:19-0500
_audit_creation_method            fapswitch 2.2
_symmetry_space_group_name_H-M    P1
_symmetry_Int_Tables_number       1
_space_group_crystal_system       triclinic
_cell_length_a                    9.666508
_cell_length_b                    10.873593
_cell_length_c                    17.275578
_cell_angle_alpha                 95.427794
_cell_angle_beta                  87.586115
_cell_angle_gamma                 90.36141
_cell_volume                      1806.0795624

loop_
_atom_site_label
_atom_site_type_symbol
_atom_type_description
_atom_site_fract_x
_atom_site_fract_y
_atom_site_fract_z
_atom_type_partial_charge
C1    C     C_R   0.500306 0.737147 0.497969 0.791594
C2    C     C_R   0.499694 0.262853 0.502031 0.791596
C3    C     C_R   0.614111 0.938590 0.524290 -0.266682
C4    C     C_R   0.385889 0.061409 0.475710 -0.266680
C5    C     C_R   0.614822 0.067183 0.529271 0.256048
C6    C     C_R   0.385177 0.932816 0.470729 0.256049
C7    C     C_R   0.499888 0.128823 0.503664 -0.123070
C8    C     C_R   0.500112 0.871177 0.496336 -0.123071
C9    C     C_R   0.922333 0.574783 0.555083 0.253736
C10   C     C_R   0.077667 0.425217 0.444917 0.253736
C11   C     C_R   0.070939 0.569549 0.557233 0.317714
C12   C     C_R   0.929061 0.430451 0.442767 0.317714
C13   C     C_R   0.484341 0.493848 0.649673 0.816822
C14   C     C_R   0.515659 0.506152 0.350327 0.816822
C15   C     C_R   0.479928 0.476888 0.733756 -0.159031
C16   C     C_R   0.520072 0.523112 0.266244 -0.159031
C17   C     C_R   0.594730 0.433076 0.772462 0.130948
C18   C     C_R   0.405270 0.566924 0.227538 0.130948
C19   C     C_R   0.579124 0.415239 0.852117 0.144720
C20   C     C_R   0.420876 0.584761 0.147883 0.144720
C21   C     C_R   0.456783 0.453379 0.894551 -0.000940
C22   C     C_R   0.543217 0.546621 0.105449 -0.000940
C23   C     C_R   0.341095 0.486370 0.854764 0.191422
C24   C     C_R   0.658905 0.513630 0.145236 0.191422
C25   C     C_R   0.353543 0.497638 0.775482 -0.253705
C26   C     C_R   0.646457 0.502363 0.224518 -0.253704
C27   C     C_2   0.452296 0.465907 0.980256 -0.115148
C28   C     C_2   0.547704 0.534093 0.019744 -0.115148
Cu1   Cu    Cu3+1 0.359340 0.499980 0.500000 0.971728
Cu2   Cu    Cu3+1 0.640660 0.500020 0.500000 0.971728
H1    H     H_    0.736740 0.474868 0.253191 0.198575
H2    H     H_    0.263260 0.525133 0.746809 0.198575
H3    H     H_    0.634070 0.574481 0.988656 0.195885
H4    H     H_    0.365930 0.425519 0.011344 0.195885
H5    H     H_    0.701425 0.891024 0.544008 0.181716
H6    H     H_    0.298575 0.108976 0.455992 0.181716
N1    N     N_R   0.147930 0.499970 0.499980 -0.234138
N2    N     N_R   0.852070 0.500030 0.500020 -0.234138
O1    O     O_R   0.381260 0.680340 0.500000 -0.542988
O2    O     O_R   0.618740 0.319660 0.500000 -0.542987
O3    O     O_R   0.618830 0.680370 0.500010 -0.607859
O4    O     O_R   0.381170 0.319630 0.499990 -0.607860
O5    O     O_R   0.367440 0.500000 0.613600 -0.552389
O6    O     O_R   0.632560 0.500000 0.386400 -0.552389
O7    O     O_R   0.605010 0.500030 0.613600 -0.577398
O8    O     O_R   0.394990 0.499970 0.386400 -0.577398
I1    I     I_    0.794522 0.392966 0.716517 -0.313017
I2    I     I_    0.205478 0.607032 0.283483 -0.313018
I3    I     I_    0.141725 0.517988 0.908466 -0.226162
I4    I     I_    0.858275 0.482012 0.091534 -0.226162
I5    I     I_    0.271938 0.689695 0.093501 -0.229546
I6    I     I_    0.728062 0.310306 0.906499 -0.229546
N3    N     N_2   0.723015 0.135322 0.567222 -0.394004
H7    H     H_    0.698298 0.165611 0.624357 0.280686
C29   C     C_3   0.864308 0.093778 0.552132 -0.705545
H8    H     H_    0.893342 0.032600 0.596575 0.227879
H9    H     H_    0.934445 0.175154 0.555686 0.249395
H10   H     H_    0.878081 0.044304 0.493052 0.220570
N4    N     N_2   0.276984 0.864678 0.432779 -0.394005
H11   H     H_    0.301702 0.834385 0.375644 0.280687
C30   C     C_3   0.135692 0.906224 0.447867 -0.705545
H12   H     H_    0.106659 0.967401 0.403424 0.227880
H13   H     H_    0.121917 0.955698 0.506947 0.220570
H14   H     H_    0.065553 0.824847 0.444314 0.249394
N5    N     N_2   0.845457 0.653231 0.613158 -0.391265
H15   H     H_    0.742359 0.655971 0.606137 0.322620
C31   C     C_3   0.891659 0.777742 0.635888 -0.735353
H16   H     H_    0.801502 0.839920 0.649714 0.214994
H17   H     H_    0.955552 0.815177 0.588724 0.225097
H18   H     H_    0.944136 0.779784 0.691569 0.264479
N6    N     N_2   0.154543 0.346768 0.386842 -0.391265
H19   H     H_    0.257641 0.344029 0.393863 0.322620
C32   C     C_3   0.108341 0.222258 0.364112 -0.735354
H20   H     H_    0.198498 0.160080 0.350286 0.214994
H21   H     H_    0.055864 0.220216 0.308430 0.264479
H22   H     H_    0.044448 0.184823 0.411276 0.225097
N7    N     N_2   0.135461 0.615910 0.627074 -0.383106
H23   H     H_    0.081788 0.598818 0.677818 0.264240
C33   C     C_3   0.206090 0.734582 0.630869 -0.571403
H24   H     H_    0.191527 0.782403 0.578109 0.245014
H25   H     H_    0.317698 0.722350 0.639675 0.229063
H26   H     H_    0.168270 0.795560 0.682314 0.187806
N8    N     N_2   0.864539 0.384090 0.372925 -0.383106
H27   H     H_    0.918212 0.401183 0.322181 0.264240
C34   C     C_3   0.793910 0.265418 0.369131 -0.571404
H28   H     H_    0.808472 0.217597 0.421891 0.245013
H29   H     H_    0.831730 0.204440 0.317686 0.187806
H30   H     H_    0.682302 0.277650 0.360324 0.229062

loop_
_geom_bond_atom_site_label_1
_geom_bond_atom_site_label_2
_ccdc_geom_bond_type
C29   H8    S    
C4    H6    S    
Cu1   O4    S    
C1    C8    S    
C32   H20   S    
Cu2   O7    S    
C2    C7    S    
C14   O8    A    
N3    H7    S    
C10   N1    A    
C22   C24   A    
C5    N3    S    
C19   C21   A    
C24   C26   A    
C20   I5    S    
C15   C25   A    
Cu2   N2    S    
C11   N1    A    
C30   H13   S    
C11   N7    S    
C21   C23   A    
N5    C31   S    
Cu2   O3    S    
N7    H23   S    
C10   N6    S    
C25   H2    S    
N7    C33   S    
C21   C27   S    
C26   H1    S    
C22   C28   S    
Cu1   O5    S    
C16   C26   A    
C32   H21   S    
Cu2   O6    S    
C4    C7    A    
C19   I6    S    
C5    C7    A    
N3    C29   S    
C27   H4    S    
C24   I4    S    
N4    C30   S    
C34   H29   S    
C31   H16   S    
C4    C6    A    
C3    C8    A    
C33   H25   S    
C6    C8    A    
C34   H28   S    
C12   N8    S    
C31   H17   S    
C30   H14   S    
Cu1   Cu2   S    
N8    H27   S    
C3    H5    S    
Cu1   O1    S    
Cu2   O2    S    
C9    C11   A    
C10   C12   A    
C1    O3    A    
N8    C34   S    
C20   C22   A    
C28   H3    S    
C13   C15   S    
C32   H22   S    
C14   C16   S    
Cu1   N1    S    
C13   O5    A    
C14   O6    A    
C34   H30   S    
C15   C17   A    
C6    N4    S    
C17   I1    S    
C3    C5    A    
C18   I2    S    
C33   H26   S    
Cu1   O8    S    
C31   H18   S    
C29   H9    S    
N6    H19   S    
C13   O7    A    
C2    O4    A    
C9    N2    A    
C17   C19   A    
C18   C20   A    
C23   C25   A    
C12   N2    A    
C30   H12   S    
C9    N5    S    
C23   I3    S    
C1    O1    A    
C33   H24   S    
C2    O2    A    
N4    H11   S    
C16   C18   A    
N5    H15   S    
C29   H10   S    
N6    C32   S    
C27   C28   D    
