data_mof_unit_10359.cif
_audit_creation_date              2012-12-10T16:49:30-0500
_audit_creation_method            fapswitch 2.2
_symmetry_space_group_name_H-M    P1
_symmetry_Int_Tables_number       1
_space_group_crystal_system       triclinic
_cell_length_a                    7.831229
_cell_length_b                    8.596714
_cell_length_c                    12.868047
_cell_angle_alpha                 89.382768
_cell_angle_beta                  86.184388
_cell_angle_gamma                 92.950692
_cell_volume                      863.159482778

loop_
_atom_site_label
_atom_site_type_symbol
_atom_type_description
_atom_site_fract_x
_atom_site_fract_y
_atom_site_fract_z
_atom_type_partial_charge
C1    C     C_R   0.456692 0.206142 0.495371 0.889996
C2    C     C_R   0.712835 0.558920 0.134596 -0.232594
C3    C     C_R   0.567139 0.579337 0.868561 0.370970
C4    C     C_R   0.432858 0.420655 0.131440 0.370968
C5    C     C_R   0.569587 0.543914 0.974359 0.062148
C6    C     C_R   0.430411 0.456074 0.025642 0.062143
C7    C     C_2   0.446354 0.045149 0.475287 -0.374248
C8    C     C_2   0.553646 0.954851 0.524714 -0.374249
C9    C     C_2   0.873022 0.601734 0.184349 1.041713
C10   C     C_2   0.126998 0.398209 0.815645 1.041707
C11   C     C_2   0.359683 0.997888 0.379350 1.078473
C12   C     C_R   0.543307 0.793858 0.504629 0.889996
C13   C     C_2   0.640316 0.002111 0.620651 1.078474
C14   C     C_R   0.463183 0.506827 0.699924 0.900366
C15   C     C_R   0.536817 0.493170 0.300076 0.900375
C16   C     C_R   0.565972 0.485207 0.187619 -0.162305
C17   C     C_R   0.434028 0.514782 0.812381 -0.162313
C18   C     C_R   0.288065 0.411024 0.971228 -0.205191
C19   C     C_R   0.711937 0.588955 0.028771 -0.205201
C20   C     C_R   0.287171 0.441055 0.865403 -0.232594
Cl1   Cl    Cl    0.275123 0.287874 0.192999 -0.492342
Cl2   Cl    Cl    0.724872 0.712122 0.807005 -0.492346
Cl3   Cl    Cl    0.992036 0.708885 0.414643 -0.404979
Cl4   Cl    Cl    0.007960 0.291104 0.585347 -0.404973
H1    H     H_    0.174696 0.354353 0.010606 0.212274
H2    H     H_    0.825310 0.645614 0.989391 0.212274
H3    H     H_    0.871972 0.828605 0.141575 0.333398
H4    H     H_    0.128137 0.171331 0.858386 0.333398
H5    H     H_    0.127680 0.065675 0.433744 0.345512
H6    H     H_    0.872319 0.934317 0.566260 0.345510
N1    N     N_2   0.054030 0.541640 0.471970 0.155902
N2    N     N_2   0.945970 0.458360 0.528030 0.155905
O1    O     O_R   0.609680 0.261530 0.506880 -0.597896
O2    O     O_R   0.946266 0.753600 0.176778 -0.687208
O3    O     O_2   0.051054 0.499221 0.773437 -0.486411
O4    O     O_R   0.053813 0.246321 0.823195 -0.687199
O5    O     O_2   0.440594 0.934809 0.308662 -0.546719
O6    O     O_R   0.188002 0.026811 0.367840 -0.646909
O7    O     O_2   0.559406 0.065195 0.691338 -0.546734
O8    O     O_R   0.811995 0.973183 0.632163 -0.646904
O9    O     O_R   0.390320 0.738470 0.493120 -0.597900
O10   O     O_R   0.323330 0.288220 0.488910 -0.588786
O11   O     O_R   0.676670 0.711780 0.511090 -0.588790
O12   O     O_R   0.619510 0.488830 0.661140 -0.536395
O13   O     O_R   0.380490 0.511170 0.338860 -0.536393
O14   O     O_R   0.333160 0.515520 0.643180 -0.599572
O15   O     O_R   0.666840 0.484480 0.356820 -0.599562
O16   O     O_2   0.948924 0.500709 0.226574 -0.486406
Zn1   Zn    Zn3+2 0.691200 0.482180 0.511990 1.170809
Zn2   Zn    Zn3+2 0.308800 0.517820 0.488010 1.170807

loop_
_geom_bond_atom_site_label_1
_geom_bond_atom_site_label_2
_ccdc_geom_bond_type
H5    O6    S    
C4    C16   A    
C11   O6    S    
C1    O10   A    
Cl4   N2    S    
C8    C13   S    
C5    C19   A    
C2    C16   A    
O14   Zn2   S    
N1    N2    D    
C15   O15   A    
C8    C12   S    
H6    O8    S    
C7    C8    D    
C14   O14   A    
C7    C11   S    
C4    Cl1   S    
C14   C17   S    
C10   O3    D    
C18   H1    S    
O13   Zn2   S    
O10   Zn2   S    
C5    C6    A    
C14   O12   A    
C3    C17   A    
C12   O11   A    
C18   C20   A    
H3    O2    S    
C9    O2    S    
C6    C18   A    
N2    Zn1   S    
C13   O7    D    
C4    C6    A    
C15   O13   A    
N1    Zn2   S    
O1    Zn1   S    
C15   C16   S    
O9    Zn2   S    
C17   C20   A    
C9    O16   D    
H4    O4    S    
C12   O9    A    
O15   Zn1   S    
C11   O5    D    
C19   H2    S    
O11   Zn1   S    
C13   O8    S    
C10   O4    S    
C3    C5    A    
C2    C19   A    
C1    C7    S    
C2    C9    S    
O12   Zn1   S    
C1    O1    A    
C10   C20   S    
C3    Cl2   S    
Cl3   N1    S    
