data_mof_unit_5068.cif
_audit_creation_date              2012-12-10T16:50:04-0500
_audit_creation_method            fapswitch 2.2
_symmetry_space_group_name_H-M    P1
_symmetry_Int_Tables_number       1
_space_group_crystal_system       triclinic
_cell_length_a                    7.740818
_cell_length_b                    8.582479
_cell_length_c                    10.637789
_cell_angle_alpha                 90.347293
_cell_angle_beta                  87.773441
_cell_angle_gamma                 92.972885
_cell_volume                      705.236085886

loop_
_atom_site_label
_atom_site_type_symbol
_atom_type_description
_atom_site_fract_x
_atom_site_fract_y
_atom_site_fract_z
_atom_type_partial_charge
C1    C     C_R   0.545358 0.794634 0.496842 0.951847
C2    C     C_R   0.434559 0.649786 0.931397 0.024864
C3    C     C_R   0.521331 0.529396 0.869959 -0.052083
C4    C     C_R   0.600647 0.415179 0.934201 -0.250437
C5    C     C_R   0.582617 0.410886 0.061906 -0.181345
C6    C     C_R   0.482052 0.518528 0.126472 -0.075750
C7    C     C_2   0.569585 0.957653 0.495261 -0.389830
C8    C     C_2   0.430649 0.042388 0.507918 -0.324669
C9    C     C_R   0.506478 0.507108 0.739053 0.840167
C10   C     C_R   0.454709 0.205385 0.504092 0.957551
C11   C     C_R   0.495313 0.511910 0.260062 0.859836
C12   C     C_R   0.381615 0.778725 0.863155 -0.238637
C13   C     C_R   0.284733 0.892546 0.920383 0.510120
C14   C     C_R   0.231393 0.874037 0.046126 -0.300927
C15   C     C_R   0.278861 0.745887 0.115976 -0.100884
C16   C     C_R   0.396502 0.637440 0.061577 0.003362
H1    H     H_    0.669627 0.324778 0.885051 0.151204
H2    H     H_    0.986695 0.618051 0.592602 0.194638
H3    H     H_    0.415168 0.792433 0.764046 0.159512
H4    H     H_    0.137853 0.952502 0.085636 0.176244
H5    H     H_    0.645798 0.320379 0.110866 0.163537
H6    H     H_    0.701228 0.007478 0.482853 0.185066
H7    H     H_    0.299100 0.992599 0.520935 0.213293
H8    H     H_    0.013115 0.380361 0.408755 0.225426
N1    N     N_2   0.950330 0.457950 0.466250 -0.150632
N2    N     N_2   0.049670 0.542050 0.533750 -0.177906
O1    O     O_R   0.389250 0.738570 0.508280 -0.598935
O2    O     O_R   0.678390 0.711630 0.486650 -0.637576
O3    O     O_R   0.355400 0.513470 0.694050 -0.622688
O4    O     O_R   0.644540 0.486530 0.672420 -0.627302
O5    O     O_R   0.321610 0.288370 0.513350 -0.625859
O6    O     O_R   0.610750 0.261430 0.491720 -0.618217
O7    O     O_R   0.355460 0.513470 0.327580 -0.609442
O8    O     O_R   0.644600 0.486530 0.305950 -0.583739
Zn1   Zn    Zn3+2 0.306930 0.517990 0.514440 0.965630
Zn2   Zn    Zn3+2 0.693070 0.482010 0.485560 0.964682
O9    O     O_3   0.212548 0.001479 0.845743 -0.618900
C17   C     C_3   0.264809 0.154698 0.882463 0.077032
H9    H     H_    0.375785 0.195521 0.819891 0.151611
H10   H     H_    0.305031 0.166126 0.981826 0.136015
C18   C     C_3   0.116027 0.260977 0.865810 -0.732866
H11   H     H_    0.001456 0.218837 0.924502 0.237791
H12   H     H_    0.154476 0.381606 0.895621 0.227887
H13   H     H_    0.080918 0.262296 0.765567 0.259972
C19   C     C_2   0.161053 0.712795 0.225141 0.980611
O10   O     O_2   0.067967 0.593283 0.226606 -0.621448
O11   O     O_R   0.141652 0.826040 0.318896 -0.817552
H14   H     H_    0.047155 0.795542 0.383985 0.339730

loop_
_geom_bond_atom_site_label_1
_geom_bond_atom_site_label_2
_ccdc_geom_bond_type
C1    O2    A    
O9    C17   S    
C3    C9    S    
C9    O3    A    
C7    H6    S    
C2    C16   A    
C18   H11   S    
O3    Zn1   S    
C13   O9    S    
O11   H14   S    
H2    N2    S    
O4    Zn2   S    
C2    C12   A    
C2    C3    A    
C7    C8    D    
C19   O10   D    
H8    N1    S    
C17   H10   S    
C18   H12   S    
C5    C6    A    
C9    O4    A    
C17   C18   S    
C4    H1    S    
O6    Zn2   S    
C12   H3    S    
O7    Zn1   S    
O8    Zn2   S    
C19   O11   S    
C17   H9    S    
C18   H13   S    
O5    Zn1   S    
C15   C19   S    
N1    Zn2   S    
C6    C16   A    
C15   C16   A    
C10   O6    A    
N2    Zn1   S    
C11   O7    A    
C8    H7    S    
C5    H5    S    
C12   C13   A    
O2    Zn2   S    
C14   H4    S    
C8    C10   S    
C6    C11   S    
C1    O1    A    
C14   C15   A    
C13   C14   A    
O1    Zn1   S    
N1    N2    D    
C1    C7    S    
C10   O5    A    
C11   O8    A    
C3    C4    A    
C4    C5    A    
