data_mof_unit_5134.cif
_audit_creation_date              2012-12-10T16:43:00-0500
_audit_creation_method            fapswitch 2.2
_symmetry_space_group_name_H-M    P1
_symmetry_Int_Tables_number       1
_space_group_crystal_system       triclinic
_cell_length_a                    7.447526
_cell_length_b                    8.729416
_cell_length_c                    12.964652
_cell_angle_alpha                 87.924937
_cell_angle_beta                  79.178931
_cell_angle_gamma                 102.017778
_cell_volume                      807.241830437

loop_
_atom_site_label
_atom_site_type_symbol
_atom_type_description
_atom_site_fract_x
_atom_site_fract_y
_atom_site_fract_z
_atom_type_partial_charge
C1    C     C_R   0.454419 0.200629 0.506927 0.882565
C2    C     C_R   0.545581 0.799371 0.493072 0.882564
C3    C     C_R   0.466316 0.494467 0.701302 0.808723
C4    C     C_R   0.533684 0.505533 0.298698 0.808721
C5    C     C_R   0.553266 0.514386 0.185159 -0.096417
C6    C     C_R   0.446734 0.485617 0.814841 -0.096416
C7    C     C_R   0.255118 0.402601 0.988407 0.180537
C8    C     C_R   0.744878 0.597413 0.011593 0.180532
C9    C     C_R   0.274776 0.414692 0.879285 -0.201697
C10   C     C_R   0.725221 0.585320 0.120715 -0.201693
C11   C     C_R   0.601410 0.545857 0.858258 -0.272724
C12   C     C_R   0.398591 0.454143 0.141742 -0.272722
C13   C     C_R   0.587610 0.536283 0.967060 0.114956
C14   C     C_R   0.412388 0.463722 0.032940 0.114964
C15   C     C_2   0.434089 0.035177 0.526275 -0.028913
C16   C     C_2   0.565912 0.964823 0.473725 -0.028915
Cu1   Cu    Cu3+1 0.686350 0.517570 0.488220 0.937233
Cu2   Cu    Cu3+1 0.313650 0.482430 0.511780 0.937234
H1    H     H_    0.267922 0.398905 0.193897 0.177425
H2    H     H_    0.732081 0.601089 0.806103 0.177424
H3    H     H_    0.843950 0.633373 0.155799 0.155277
H4    H     H_    0.156044 0.366645 0.844202 0.155278
H5    H     H_    0.934292 0.376545 0.582423 0.225892
H6    H     H_    0.065708 0.623455 0.417576 0.225892
N1    N     N_2   0.033570 0.455950 0.529530 -0.221119
N2    N     N_2   0.966430 0.544050 0.470470 -0.221119
O1    O     O_R   0.621060 0.286250 0.492350 -0.591540
O2    O     O_R   0.378940 0.713750 0.507650 -0.591540
O3    O     O_R   0.306310 0.256580 0.512240 -0.584107
O4    O     O_R   0.693690 0.743420 0.487760 -0.584107
O5    O     O_R   0.631800 0.512400 0.642670 -0.592492
O6    O     O_R   0.368200 0.487600 0.357330 -0.592492
O7    O     O_R   0.317060 0.482730 0.662570 -0.591440
O8    O     O_R   0.682940 0.517270 0.337430 -0.591440
C17   C     C_3   0.066787 0.323595 0.054680 -0.882771
H7    H     H_    0.960159 0.286185 0.005822 0.238349
H8    H     H_    0.079780 0.217511 0.100093 0.232087
H9    H     H_    0.014699 0.406120 0.109839 0.241088
C18   C     C_3   0.933203 0.676436 0.945320 -0.882744
H10   H     H_    0.039824 0.713886 0.994181 0.238341
H11   H     H_    0.985318 0.593906 0.890172 0.241087
H12   H     H_    0.920185 0.782502 0.899894 0.232081
C19   C     C_3   0.273855 0.952959 0.614457 -0.846706
H13   H     H_    0.208715 0.038665 0.661133 0.222358
H14   H     H_    0.162281 0.877703 0.581402 0.263757
H15   H     H_    0.325644 0.881580 0.670355 0.229668
C20   C     C_3   0.726151 0.047042 0.385546 -0.846704
H16   H     H_    0.791295 0.961337 0.338871 0.222358
H17   H     H_    0.674366 0.118422 0.329645 0.229668
H18   H     H_    0.837721 0.122298 0.418604 0.263757

loop_
_geom_bond_atom_site_label_1
_geom_bond_atom_site_label_2
_ccdc_geom_bond_type
C19   H13   S    
C8    C13   A    
C1    C15   S    
C8    C18   S    
C18   H12   S    
C2    C16   S    
C20   H16   S    
C2    O4    A    
C3    C6    S    
C6    C9    A    
C1    O3    A    
Cu1   Cu2   S    
C15   C19   S    
C5    C10   A    
C20   H17   S    
Cu2   O3    S    
C13   C14   A    
C3    O5    A    
Cu1   O4    S    
C11   C13   A    
C4    O6    A    
Cu2   N1    S    
Cu1   N2    S    
C12   H1    S    
C8    C10   A    
C19   H15   S    
H6    N2    S    
C20   H18   S    
H5    N1    S    
C10   H3    S    
Cu1   O5    S    
Cu2   O7    S    
C4    O8    A    
C11   H2    S    
Cu2   O6    S    
Cu1   O8    S    
C3    O7    A    
C15   C16   D    
Cu1   O1    S    
C7    C9    A    
C6    C11   A    
C17   H9    S    
Cu2   O2    S    
C16   C20   S    
C5    C12   A    
C18   H11   S    
C9    H4    S    
C18   H10   S    
C1    O1    A    
C2    O2    A    
C17   H8    S    
N1    N2    D    
C7    C17   S    
C19   H14   S    
C7    C14   A    
C17   H7    S    
C12   C14   A    
C4    C5    S    
