data_mof_unit_15661.cif
_audit_creation_date              2013-03-05T16:11:19-0500
_audit_creation_method            fapswitch 2.2
_symmetry_space_group_name_H-M    P1
_symmetry_Int_Tables_number       1
_space_group_crystal_system       triclinic
_cell_length_a                    15.844765
_cell_length_b                    10.827444
_cell_length_c                    9.504562
_cell_angle_alpha                 89.555058
_cell_angle_beta                  89.507493
_cell_angle_gamma                 89.726694
_cell_volume                      1630.45911091

loop_
_atom_site_label
_atom_site_type_symbol
_atom_site_description
_atom_site_fract_x
_atom_site_fract_y
_atom_site_fract_z
_atom_type_partial_charge
O1    O     O_R   0.500050 0.317570 0.620260 -0.571123
O2    O     O_R   0.499980 0.317810 0.379740 -0.599371
C1    C     C_R   0.501847 0.260183 0.500140 0.812315
O3    O     O_R   0.379110 0.499870 0.620240 -0.537532
O4    O     O_R   0.379040 0.500110 0.379720 -0.527506
C2    C     C_R   0.340128 0.499815 0.500495 0.886771
Cu1   Cu    Cu3+1 0.500040 0.499860 0.642410 1.018519
Cu2   Cu    Cu3+1 0.499960 0.500140 0.357590 1.015897
O5    O     O_R   0.500020 0.682190 0.620260 -0.550421
O6    O     O_R   0.499950 0.682430 0.379740 -0.554301
O7    O     O_R   0.620960 0.499890 0.620280 -0.586688
O8    O     O_R   0.620890 0.500130 0.379760 -0.593745
C3    C     C_R   0.502133 0.739874 0.498814 0.910302
C4    C     C_R   0.659904 0.499970 0.499484 0.835711
C5    C     C_3   0.970706 0.444223 0.615055 -0.168385
C6    C     C_3   0.027394 0.385869 0.500215 -0.002548
H1    H     H_    0.945924 0.396259 0.710349 0.179206
H2    H     H_    0.948908 0.393991 0.288376 0.180884
C7    C     C_1   0.250570 0.500401 0.501511 -0.005465
C8    C     C_1   0.749522 0.500522 0.498338 -0.069258
C9    C     C_3   0.027519 0.561117 0.613517 -0.212504
C10   C     C_3   0.083404 0.501177 0.498802 0.032698
C11   C     C_3   0.972250 0.618470 0.496308 -0.054781
C12   C     C_3   0.916699 0.502735 0.497766 0.089414
C13   C     C_3   0.028713 0.559044 0.382758 -0.073026
C14   C     C_3   0.972179 0.442687 0.382729 -0.243236
C15   C     C_1   0.175065 0.500883 0.501047 0.117996
C16   C     C_1   0.825059 0.501347 0.497867 0.073670
H3    H     H_    0.050868 0.609927 0.707728 0.193243
C17   C     C_3   0.596328 0.070694 0.522253 -0.266610
H4    H     H_    0.630586 0.088302 0.420975 0.137362
C18   C     C_3   0.593302 0.926845 0.540828 0.087796
H5    H     H_    0.642277 0.889923 0.468924 0.169017
H6    H     H_    0.468730 0.091042 0.719383 0.289803
H7    H     H_    0.441885 0.887799 0.705179 0.265277
C19   C     C_3   0.444360 0.070051 0.613410 -0.310024
C20   C     C_3   0.472772 0.074608 0.355393 -0.417769
C21   C     C_3   0.504798 0.122123 0.499597 -0.115509
H8    H     H_    0.405135 0.100918 0.346725 0.242397
H9    H     H_    0.506197 0.122475 0.267700 0.218302
C22   C     C_3   0.503814 0.878104 0.494162 -0.157218
C23   C     C_3   0.436199 0.929784 0.599332 -0.373136
C24   C     C_3   0.482409 0.932186 0.339983 0.493879
H10   H     H_    0.380782 0.113360 0.603587 0.211250
H11   H     H_    0.371225 0.908428 0.565551 0.230873
C25   C     C_3   0.462012 0.614024 0.087328 -0.188108
H12   H     H_    0.499316 0.695148 0.119355 0.220025
H13   H     H_    0.400984 0.630296 0.141199 0.253656
C26   C     C_3   0.458243 0.616258 0.920989 -0.111152
H14   H     H_    0.495598 0.698594 0.888043 0.171826
H15   H     H_    0.625513 0.579521 0.122307 0.234932
H16   H     H_    0.621833 0.591098 0.878360 0.233351
C27   C     C_3   0.589075 0.499916 0.081827 -0.303882
C28   C     C_3   0.459249 0.388914 0.084625 0.255888
N1    N     N_3   0.501840 0.500250 0.143650 -0.228659
H17   H     H_    0.496410 0.306690 0.119270 0.083432
N2    N     N_3   0.501160 0.503300 0.856280 -0.234383
C29   C     C_3   0.588722 0.506016 0.914562 -0.305945
C30   C     C_3   0.463334 0.386905 0.918545 0.229116
H18   H     H_    0.508352 0.310579 0.892935 0.113803
H19   H     H_    0.623775 0.415609 0.116632 0.164236
H20   H     H_    0.626709 0.427584 0.872915 0.171426
C31   C     C_2   0.056379 0.253911 0.502632 0.904053
O9    O     O_2   0.004152 0.171214 0.503999 -0.527098
O10   O     O_R   0.142539 0.225884 0.503216 -0.733763
H21   H     H_    0.153943 0.133664 0.504824 0.363417
N3    N     N_R   0.618205 0.882583 0.681882 0.141931
O11   O     O_R   0.578145 0.915812 0.795489 -0.291991
O12   O     O_R   0.682786 0.808637 0.693962 -0.338268
N4    N     N_R   0.549968 0.907582 0.233677 0.084233
O13   O     O_R   0.545238 0.959232 0.109716 -0.282282
O14   O     O_R   0.607481 0.822813 0.251181 -0.401450
N5    N     N_R   0.401954 0.884735 0.282515 0.108287
O15   O     O_R   0.376239 0.924392 0.160398 -0.272998
O16   O     O_R   0.354749 0.805515 0.349878 -0.388080
C32   C     C_2   0.369117 0.650690 0.871672 0.982706
O17   O     O_2   0.308555 0.642583 0.951774 -0.522806
O18   O     O_R   0.356308 0.706086 0.740869 -0.768045
H22   H     H_    0.294999 0.728128 0.723171 0.330501
N6    N     N_R   0.373250 0.369802 0.140795 0.180817
O19   O     O_R   0.352066 0.261180 0.187759 -0.325184
O20   O     O_R   0.314243 0.452762 0.128247 -0.257695
N7    N     N_R   0.383205 0.346666 0.855787 0.163834
O21   O     O_R   0.371341 0.228811 0.841621 -0.349222
O22   O     O_R   0.316407 0.416288 0.854390 -0.282807
C33   C     C_2   0.059399 0.623017 0.251604 0.903380
O23   O     O_2   0.008261 0.663627 0.167356 -0.559143
O24   O     O_R   0.145892 0.635901 0.226143 -0.689629
H23   H     H_    0.158471 0.680706 0.134337 0.384011
C34   C     C_2   0.942672 0.750277 0.495078 0.912367
O25   O     O_2   0.994507 0.833480 0.495679 -0.533849
O26   O     O_R   0.856401 0.777471 0.493280 -0.720821
H24   H     H_    0.844543 0.869579 0.492759 0.369000
C35   C     C_2   0.647861 0.137052 0.632611 0.935397
O27   O     O_2   0.717351 0.177830 0.600624 -0.601611
O28   O     O_R   0.616480 0.153846 0.768970 -0.706194
H25   H     H_    0.657448 0.199094 0.831394 0.327013

loop_
_geom_bond_atom_site_label_1
_geom_bond_atom_site_label_2
_geom_bond_distance
_ccdc_geom_bond_type
C29   H20   1.111926 S    
C31   O10   1.397135 S    
C24   N5    1.486609 S    
N5    O16   1.301717 A    
N5    O15   1.302400 A    
C19   C23   1.531837 S    
H2    C14   1.110429 S    
C3    C22   1.497344 S    
C34   O25   1.222049 D    
Cu1   Cu2   2.707078 S    
Cu1   O7    1.925662 S    
C2    C7    1.418958 S    
C25   C26   1.582614 S    
C30   N7    1.476446 S    
C20   H9    1.110014 S    
O1    C1    1.304081 A    
C17   H4    1.116578 S    
O7    C4    1.298745 A    
C33   O24   1.397061 S    
N2    C30   1.512351 S    
C5    C6    1.544597 S    
C26   N2    1.527440 S    
C17   C21   1.567010 S    
Cu1   O5    1.983735 S    
C22   C23   1.563533 S    
H7    C23   1.104957 S    
O5    C3    1.308408 A    
C13   C33   1.499832 S    
C25   H12   1.107145 S    
C27   H19   1.112942 S    
C1    C21   1.495396 S    
C10   C13   1.536398 S    
C25   N1    1.480035 S    
C11   C12   1.534692 S    
N4    O13   1.302838 A    
C6    C31   1.498757 S    
C7    C15   1.196385 T    
C30   H18   1.116034 S    
C9    C10   1.543696 S    
C22   C24   1.612033 S    
O3    Cu1   1.929459 S    
Cu2   N1    2.033359 S    
C28   N6    1.474138 S    
C28   C30   1.579607 S    
C27   N1    1.497274 S    
C6    C14   1.546531 S    
C20   H8    1.111172 S    
C28   H17   1.114229 S    
C26   C32   1.535126 S    
N3    O11   1.300135 A    
C4    C8    1.419959 S    
C32   O17   1.222850 D    
O3    C2    1.299589 A    
C33   O23   1.222028 D    
C8    C16   1.196919 T    
C13   C14   1.549317 S    
C9    H3    1.110352 S    
N3    O12   1.301571 A    
C23   H11   1.107022 S    
C20   C24   1.556798 S    
C20   C21   1.557594 S    
C34   O26   1.397150 S    
N7    O21   1.298925 A    
Cu2   O8    1.929459 S    
O28   H25   1.013697 S    
C11   C34   1.499981 S    
C35   O28   1.397033 S    
H16   C29   1.113052 S    
C18   N3    1.476496 S    
N6    O20   1.299016 A    
C5    C12   1.541633 S    
N7    O22   1.296584 A    
O8    C4    1.299638 A    
C26   H14   1.113850 S    
C24   N4    1.490173 S    
C10   C15   1.452677 S    
C9    C11   1.547376 S    
C19   H10   1.113483 S    
C18   C22   1.583451 S    
C5    H1    1.110302 S    
C28   N1    1.499368 S    
C6    C10   1.535119 S    
O1    Cu1   1.986554 S    
O2    Cu2   1.983733 S    
C12   C16   1.452154 S    
C32   O18   1.392167 S    
N6    O19   1.299284 A    
O6    C3    1.296418 A    
O4    Cu2   1.925663 S    
C27   C29   1.590701 S    
C18   H5    1.105078 S    
C19   C21   1.543689 S    
O2    C1    1.299633 A    
C17   C35   1.521569 S    
C17   C18   1.567048 S    
O18   H22   1.014344 S    
C12   C14   1.542730 S    
N2    C29   1.498812 S    
O4    C2    1.298327 A    
O26   H24   1.013940 S    
H6    C19   1.107399 S    
C11   C13   1.538778 S    
C35   O27   1.223320 D    
C31   O9    1.222054 D    
C25   H13   1.104301 S    
C5    C9    1.556539 S    
O24   H23   1.013813 S    
Cu2   O6    1.986556 S    
O10   H21   1.013891 S    
N4    O14   1.301066 A    
H15   C27   1.112641 S    
Cu1   N2    2.033603 S    
