data_mof_unit_62446.cif
_audit_creation_date              2012-12-10T16:54:34-0500
_audit_creation_method            fapswitch 2.2
_symmetry_space_group_name_H-M    P1
_symmetry_Int_Tables_number       1
_space_group_crystal_system       triclinic
_cell_length_a                    18.881565
_cell_length_b                    18.604513
_cell_length_c                    18.905027
_cell_angle_alpha                 109.154886
_cell_angle_beta                  110.116651
_cell_angle_gamma                 109.102973
_cell_volume                      5114.3323526

loop_
_atom_site_label
_atom_site_type_symbol
_atom_type_description
_atom_site_fract_x
_atom_site_fract_y
_atom_site_fract_z
_atom_type_partial_charge
C1    C     C_R   0.383302 0.380265 0.501848 0.930260
C2    C     C_2   0.182735 0.511570 0.191135 -0.386030
C3    C     C_2   0.253072 0.519729 0.329227 -0.170269
C4    C     C_R   0.617125 0.497144 0.619994 0.839036
C5    C     C_2   0.302534 0.487531 0.311407 -0.383947
C6    C     C_2   0.741408 0.747410 0.422431 -0.154952
C7    C     C_2   0.818203 0.806650 0.494618 -0.338857
C8    C     C_2   0.679974 0.675147 0.422538 -0.156326
C9    C     C_2   0.675995 0.688497 0.494651 -0.344085
C10   C     C_R   0.992565 0.380346 0.873771 0.953239
C11   C     C_R   0.874368 0.498908 0.872767 0.848260
C12   C     C_3   0.806730 0.498212 0.805272 0.154852
C13   C     C_R   0.996328 0.619788 0.114659 0.928235
C14   C     C_R   0.114650 0.502937 0.117514 0.926736
C15   C     C_R   0.001699 0.121961 0.617811 0.920020
C16   C     C_R   0.616907 0.619762 0.498406 0.942882
C17   C     C_R   0.118523 0.121156 0.501657 0.925825
C18   C     C_R   0.999077 0.879027 0.381981 0.933039
C19   C     C_R   0.881434 0.878818 0.498294 0.935584
C20   C     C_2   0.005436 0.263640 0.676903 0.128361
C21   C     C_2   0.010130 0.195548 0.684790 -0.384459
C22   C     C_2   0.015726 0.333177 0.752006 -0.175682
C23   C     C_3   0.761473 0.539237 0.845527 -0.418954
C24   C     C_2   0.982056 0.312990 0.799201 -0.390851
C25   C     C_2   0.010150 0.747757 0.324751 -0.155008
C26   C     C_2   0.991396 0.807893 0.313650 -0.336115
C27   C     C_2   0.996507 0.675234 0.250280 -0.161231
C28   C     C_R   0.377364 0.497697 0.379242 0.953282
C29   C     C_2   0.007990 0.688359 0.188629 -0.338724
C30   C     C_3   0.772203 0.550705 0.696304 -0.470826
C31   C     C_3   0.844876 0.551237 0.765991 -0.387321
C32   C     C_3   0.691570 0.541806 0.776663 -0.378036
C33   C     C_3   0.668264 0.400388 0.659325 -0.038225
C34   C     C_3   0.739082 0.402120 0.732439 -0.420750
C35   C     C_3   0.683946 0.496237 0.686757 0.167485
C36   C     C_3   0.094231 0.493224 0.264008 -0.354117
C37   C     C_3   0.101561 0.500808 0.349980 -0.385285
C38   C     C_3   0.015854 0.482758 0.348120 -0.882247
C39   C     C_3   0.994691 0.270936 0.596135 -0.348710
C40   C     C_3   0.005066 0.359060 0.603779 -0.392069
C41   C     C_3   0.991337 0.359434 0.519477 -0.875741
C42   C     C_3   0.575350 0.325805 0.622849 -0.436606
C43   C     C_3   0.536273 0.338453 0.681992 -0.337971
C44   C     C_3   0.460806 0.251661 0.653918 -0.868055
C45   C     C_2   0.256963 0.254345 0.577796 -0.167286
C46   C     C_2   0.181571 0.193031 0.504883 -0.339159
C47   C     C_2   0.318078 0.326395 0.577188 -0.156098
C48   C     C_2   0.324510 0.311733 0.506118 -0.343850
C49   C     C_2   0.176010 0.506806 0.258562 0.131446
H1    H     H_    0.786217 0.619250 0.714867 0.174088
H2    H     H_    0.268481 0.553995 0.395863 0.167039
H3    H     H_    0.770863 0.522856 0.633644 0.175094
H4    H     H_    0.284427 0.447561 0.244716 0.159833
H5    H     H_    0.725098 0.749952 0.362628 0.165159
H6    H     H_    0.838401 0.798326 0.551236 0.155080
H7    H     H_    0.636224 0.612363 0.362961 0.164502
H8    H     H_    0.712549 0.753734 0.550995 0.156048
H9    H     H_    0.028773 0.197321 0.746799 0.148693
H10   H     H_    0.050256 0.400971 0.768444 0.166250
H11   H     H_    0.941862 0.245195 0.779948 0.160391
H12   H     H_    0.710038 0.363827 0.759221 0.194606
H13   H     H_    0.030848 0.749155 0.386611 0.164171
H14   H     H_    0.877641 0.522174 0.736710 0.168605
H15   H     H_    0.961004 0.800392 0.249388 0.155975
H16   H     H_    0.979532 0.612223 0.247368 0.157168
H17   H     H_    0.035012 0.753690 0.196624 0.155211
H18   H     H_    0.894182 0.620310 0.817621 0.187904
H19   H     H_    0.710314 0.611676 0.796900 0.183181
H20   H     H_    0.809830 0.606947 0.900893 0.160002
H21   H     H_    0.679754 0.380294 0.603693 0.145562
H22   H     H_    0.771728 0.370176 0.705909 0.135268
H23   H     H_    0.629209 0.512616 0.774746 0.155318
H24   H     H_    0.997250 0.530913 0.338070 0.256197
H25   H     H_    0.963483 0.415442 0.295189 0.261615
H26   H     H_    0.023088 0.488564 0.410892 0.252153
H27   H     H_    0.119217 0.452775 0.361928 0.231379
H28   H     H_    0.152501 0.568080 0.404316 0.221531
H29   H     H_    0.077522 0.542619 0.254407 0.193115
H30   H     H_    0.040204 0.426773 0.210653 0.221069
H31   H     H_    0.039628 0.348471 0.503526 0.265764
H32   H     H_    0.924775 0.307406 0.465226 0.259753
H33   H     H_    0.999530 0.423862 0.526947 0.247711
H34   H     H_    0.731112 0.500481 0.871340 0.174838
H35   H     H_    0.956764 0.371540 0.618629 0.225098
H36   H     H_    0.071584 0.412801 0.656727 0.221654
H37   H     H_    0.043777 0.260482 0.581211 0.198999
H38   H     H_    0.928829 0.218306 0.540863 0.220167
H39   H     H_    0.410584 0.221130 0.584921 0.276302
H40   H     H_    0.484336 0.205834 0.661951 0.255856
H41   H     H_    0.430912 0.263392 0.694775 0.247102
H42   H     H_    0.585630 0.365841 0.750460 0.226625
H43   H     H_    0.510807 0.383726 0.677487 0.209538
H44   H     H_    0.529929 0.315588 0.559788 0.211711
H45   H     H_    0.272223 0.253580 0.638351 0.163726
H46   H     H_    0.578127 0.264043 0.607755 0.210081
H47   H     H_    0.162020 0.199571 0.447148 0.157526
H48   H     H_    0.359840 0.390113 0.635809 0.162316
H49   H     H_    0.289998 0.245849 0.451212 0.156408
H50   H     H_    0.244953 0.531424 0.193802 0.149517
O1    O     O_R   0.410160 0.358490 0.449530 -0.630813
O2    O     O_R   0.947260 0.090430 0.537750 -0.626027
O3    O     O_R   0.142120 0.090460 0.551650 -0.613928
O4    O     O_R   0.408940 0.460590 0.550490 -0.621482
O5    O     O_R   0.038780 0.090460 0.448320 -0.630264
O6    O     O_R   0.052740 0.909570 0.462250 -0.615010
O7    O     O_R   0.949410 0.909570 0.358910 -0.627706
O8    O     O_R   0.961220 0.909540 0.551680 -0.626812
O9    O     O_R   0.857880 0.909540 0.448350 -0.614804
O10   O     O_R   0.592130 0.448950 0.541040 -0.642122
O11   O     O_R   0.590910 0.551050 0.642000 -0.636041
O12   O     O_R   0.046300 0.460610 0.904690 -0.621580
O13   O     O_R   0.591060 0.539410 0.449510 -0.615349
O14   O     O_R   0.589840 0.641510 0.550470 -0.622013
O15   O     O_R   0.409090 0.448950 0.358000 -0.624995
O16   O     O_R   0.407870 0.551050 0.458960 -0.619655
O17   O     O_R   0.944170 0.358540 0.904780 -0.622412
O18   O     O_R   0.851630 0.449030 0.902680 -0.632646
O19   O     O_R   0.953760 0.551100 0.902590 -0.636243
O20   O     O_R   0.942140 0.539520 0.083620 -0.619834
O21   O     O_R   0.044270 0.641590 0.083530 -0.622660
O22   O     O_R   0.034680 0.449030 0.085720 -0.628955
O23   O     O_R   0.136800 0.551100 0.085630 -0.616328
O24   O     O_R   0.050590 0.090430 0.641090 -0.621275
Zn1   Zn    Zn3+2 0.500810 0.431830 0.432590 0.932034
Zn2   Zn    Zn3+2 0.499190 0.568170 0.567410 0.933477
Zn3   Zn    Zn3+2 0.926030 0.431910 0.994210 0.930557
Zn4   Zn    Zn3+2 0.062410 0.568220 0.994100 0.937557
Zn5   Zn    Zn3+2 0.069000 0.000000 0.569000 0.945708
Zn6   Zn    Zn3+2 0.931000 0.000000 0.431000 0.936024

loop_
_geom_bond_atom_site_label_1
_geom_bond_atom_site_label_2
_ccdc_geom_bond_type
O7    Zn6   S    
C4    O10   A    
C14   O23   A    
C27   C29   D    
C42   H44   S    
C23   H20   S    
C18   C26   S    
C7    H6    S    
C43   C44   S    
C16   O14   A    
C8    H7    S    
C41   H31   S    
C3    C49   S    
O21   Zn4   S    
C44   H41   S    
C32   H23   S    
C45   C46   D    
C31   H18   S    
C12   C23   S    
C15   O24   A    
C30   C35   S    
C33   C42   S    
C5    H4    S    
C36   C37   S    
C28   O16   A    
C9    C16   S    
O8    Zn5   S    
O13   Zn1   S    
O3    Zn5   S    
C30   C31   S    
O14   Zn2   S    
O23   Zn4   S    
C40   H35   S    
C4    O11   A    
C8    C9    D    
C39   H38   S    
O18   Zn3   S    
C1    O4    A    
C32   H19   S    
O15   Zn1   S    
C19   O9    A    
C30   H1    S    
C4    C35   S    
C14   O22   A    
O17   Zn3   S    
C6    H5    S    
O4    Zn2   S    
C45   H45   S    
C1    O1    A    
C13   O20   A    
C38   H26   S    
C45   C47   S    
C42   H46   S    
C32   C35   S    
C31   H14   S    
C17   C46   S    
C22   H10   S    
C20   C39   S    
C3    H2    S    
C6    C8    S    
C10   C24   S    
C25   C26   D    
C37   H28   S    
C34   H12   S    
C43   H42   S    
O1    Zn1   S    
C40   H36   S    
C17   O3    A    
C18   O7    A    
C37   C38   S    
C27   H16   S    
C2    C49   D    
C5    C28   S    
C47   C48   D    
C15   C21   S    
C24   H11   S    
C41   H32   S    
C33   C34   S    
C10   O12   A    
O10   Zn1   S    
C15   O2    A    
O9    Zn6   S    
C23   H34   S    
C33   H21   S    
C40   C41   S    
C37   H27   S    
C20   C22   S    
C2    H50   S    
C7    C19   S    
O5    Zn6   S    
C12   C31   S    
O12   Zn4   S    
C22   C24   D    
O19   Zn4   S    
C12   C34   S    
C11   O18   A    
C39   C40   S    
C13   O21   A    
C10   O17   A    
C16   O13   A    
C38   H25   S    
C13   C29   S    
C30   H3    S    
O6    Zn5   S    
C17   O5    A    
C3    C5    D    
C36   H30   S    
C47   H48   S    
C11   C12   S    
C1    C48   S    
C6    C7    D    
C26   H15   S    
C25   C27   S    
C48   H49   S    
C43   H43   S    
O16   Zn2   S    
C23   C32   S    
C18   O6    A    
O22   Zn3   S    
C36   H29   S    
O24   Zn5   S    
C41   H33   S    
C28   O15   A    
C33   C35   S    
C9    H8    S    
C25   H13   S    
C2    C14   S    
C44   H40   S    
O11   Zn2   S    
C29   H17   S    
O20   Zn3   S    
C21   H9    S    
C46   H47   S    
C20   C21   D    
C42   C43   S    
C39   H37   S    
C44   H39   S    
C11   O19   A    
C34   H22   S    
C36   C49   S    
O2    Zn6   S    
C38   H24   S    
C19   O8    A    
