data_mof_unit_17774.cif
_audit_creation_date              2012-12-10T18:14:42-0500
_audit_creation_method            fapswitch 2.2
_symmetry_space_group_name_H-M    P1
_symmetry_Int_Tables_number       1
_space_group_crystal_system       triclinic
_cell_length_a                    10.7826
_cell_length_b                    9.424713
_cell_length_c                    27.838379
_cell_angle_alpha                 89.397389
_cell_angle_beta                  89.299796
_cell_angle_gamma                 90.054428
_cell_volume                      2828.64773752

loop_
_atom_site_label
_atom_site_type_symbol
_atom_type_description
_atom_site_fract_x
_atom_site_fract_y
_atom_site_fract_z
_atom_type_partial_charge
C1    C     C_R   0.259916 0.499747 0.503849 0.873827
C2    C     C_R   0.478127 0.380883 0.278644 -0.103646
C3    C     C_R   0.492257 0.509980 0.253812 0.362637
C4    C     C_R   0.488375 0.528184 0.102271 -0.048630
C5    C     C_R   0.377405 0.507276 0.128614 -0.020058
C6    C     C_R   0.265620 0.495107 0.104245 -0.141924
C7    C     C_R   0.600683 0.541316 0.127153 -0.020964
C8    C     C_R   0.497545 0.503292 0.354577 -0.030418
C9    C     C_R   0.504044 0.505506 0.646233 -0.134947
C10   C     C_R   0.373153 0.520068 0.975488 0.062270
C11   C     C_R   0.598020 0.570479 0.974342 -0.045840
C12   C     C_R   0.499422 0.500761 0.407492 0.775247
C13   C     C_R   0.485492 0.546891 0.949645 0.071267
C14   C     C_R   0.264429 0.493497 0.949005 -0.194824
C15   C     C_R   0.265807 0.494385 0.899126 -0.107119
C16   C     C_R   0.375385 0.521541 0.873448 -0.005072
C17   C     C_R   0.485503 0.549069 0.898486 -0.119388
C18   C     C_R   0.595724 0.577532 0.872252 -0.162982
C19   C     C_R   0.593658 0.574150 0.821711 0.599877
C20   C     C_R   0.377837 0.518900 0.823019 0.566710
C21   C     C_R   0.436414 0.633400 0.717848 -0.063011
C22   C     C_R   0.444746 0.622187 0.668082 -0.136011
C23   C     C_R   0.739978 0.499858 0.499343 0.827989
C24   C     C_R   0.563332 0.404332 0.676349 0.305559
C25   C     C_R   0.552054 0.415714 0.726305 -0.170225
C26   C     C_R   0.489268 0.529504 0.747090 0.268619
C27   C     C_R   0.373299 0.518981 0.026630 0.042021
C28   C     C_R   0.487109 0.535727 0.051192 0.071345
C29   C     C_R   0.599777 0.559489 0.025318 0.079533
C30   C     C_R   0.263263 0.501169 0.054379 -0.202934
C31   C     C_R   0.711235 0.560821 0.101364 -0.148471
C32   C     C_R   0.705488 0.604773 0.946972 -0.283471
C33   C     C_R   0.704750 0.607705 0.897105 0.672994
C34   C     C_R   0.504829 0.500077 0.592734 0.951911
C35   C     C_R   0.711154 0.569221 0.051554 -0.199090
C36   C     C_3   0.063257 0.617036 0.539151 0.288563
C37   C     C_3   0.067250 0.346715 0.518115 0.255429
C38   C     C_3   0.921232 0.596536 0.541924 -0.368213
C39   C     C_3   0.926178 0.346118 0.510071 -0.355739
C40   C     C_3   0.077236 0.536382 0.453898 -0.536045
C41   C     C_3   0.121436 0.498994 0.505915 -0.096343
C42   C     C_3   0.877549 0.499069 0.500868 -0.027231
C43   C     C_3   0.934322 0.552213 0.452676 -0.419332
C44   C     C_3   0.626094 0.082838 0.509031 0.619185
C45   C     C_3   0.625786 0.915624 0.509877 0.594384
C46   C     C_3   0.414915 0.081913 0.538144 -0.159131
C47   C     C_3   0.415714 0.914867 0.538497 -0.188933
C48   C     C_3   0.458497 0.085033 0.454389 -0.387622
C49   C     C_3   0.458678 0.917626 0.454398 -0.378459
C50   C     C_R   0.380766 0.500293 0.179027 0.535038
C51   C     C_R   0.599940 0.533782 0.177550 0.535494
C52   C     C_R   0.508906 0.635590 0.279299 -0.106205
C53   C     C_R   0.511224 0.632499 0.329338 -0.222505
C54   C     C_R   0.481063 0.377347 0.328765 -0.227294
Cu1   Cu    Cu3+1 0.499860 0.642410 0.500020 0.978209
Cu2   Cu    Cu3+1 0.499860 0.357590 0.500020 1.009871
H1    H     H_    0.469811 0.276386 0.347234 0.146073
H2    H     H_    0.519885 0.735659 0.260241 0.136490
H3    H     H_    0.799088 0.569243 0.119614 0.188268
H4    H     H_    0.792563 0.631982 0.962966 0.168839
H5    H     H_    0.595875 0.338394 0.749596 0.187586
H6    H     H_    0.801108 0.580642 0.034794 0.141510
H7    H     H_    0.079549 0.720373 0.520290 0.124658
H8    H     H_    0.108026 0.270629 0.491988 0.094820
H9    H     H_    0.890897 0.547864 0.576565 0.251191
H10   H     H_    0.876385 0.296677 0.541015 0.286101
H11   H     H_    0.465448 0.283382 0.259059 0.137584
H12   H     H_    0.876745 0.702809 0.539596 0.214592
H13   H     H_    0.905043 0.278626 0.478577 0.140662
H14   H     H_    0.120519 0.636987 0.440656 0.192135
H15   H     H_    0.106646 0.451895 0.428530 0.189173
H16   H     H_    0.909372 0.665506 0.446576 0.186836
H17   H     H_    0.896807 0.490392 0.422252 0.179906
H18   H     H_    0.689887 0.119147 0.479659 -0.019889
H19   H     H_    0.691200 0.878711 0.481443 -0.004560
H20   H     H_    0.439060 0.120828 0.574233 0.246348
H21   H     H_    0.442632 0.876293 0.574718 0.218422
H22   H     H_    0.364059 0.125038 0.445988 0.194778
H23   H     H_    0.364283 0.877786 0.446036 0.197854
H24   H     H_    0.520616 0.122733 0.424750 0.164025
H25   H     H_    0.521013 0.881481 0.424895 0.159718
H26   H     H_    0.318895 0.117539 0.530928 0.205921
H27   H     H_    0.320084 0.875836 0.532446 0.208299
H28   H     H_    0.178739 0.480847 0.123678 0.188354
H29   H     H_    0.403869 0.705770 0.646579 0.187919
H30   H     H_    0.390092 0.723777 0.733681 0.165362
H31   H     H_    0.180074 0.472273 0.880712 0.207460
H32   H     H_    0.176298 0.468569 0.965560 0.144822
H33   H     H_    0.172668 0.493097 0.038866 0.140050
H34   H     H_    0.524191 0.731217 0.348176 0.145168
N1    N     N_R   0.490972 0.513837 0.202331 -0.469779
N2    N     N_R   0.486247 0.543123 0.798372 -0.473443
N3    N     N_3   0.500250 0.143650 0.501060 -0.209917
N4    N     N_3   0.500250 0.856350 0.501060 -0.204805
O1    O     O_R   0.317570 0.620260 0.500030 -0.595251
O2    O     O_R   0.317570 0.379740 0.500030 -0.588788
O3    O     O_R   0.499900 0.620250 0.430280 -0.605178
O4    O     O_R   0.499900 0.379750 0.430280 -0.608549
O5    O     O_R   0.682190 0.620260 0.500010 -0.571054
O6    O     O_R   0.682190 0.379740 0.500010 -0.557388
O7    O     O_R   0.499860 0.620280 0.569750 -0.558403
O8    O     O_R   0.499860 0.379720 0.569750 -0.502055
O9    O     O_2   0.274775 0.481254 0.204581 -0.534478
O10   O     O_2   0.273263 0.490017 0.798807 -0.481784
O11   O     O_2   0.707247 0.545882 0.201645 -0.534673
O12   O     O_2   0.697998 0.600829 0.795902 -0.418522
S1    S     S_3+6 0.666202 0.274501 0.654688 0.096722
O13   O     O_2   0.593578 0.144917 0.641590 -0.188842
O14   O     O_2   0.735625 0.331191 0.611591 -0.263883
O15   O     O_3   0.768839 0.228780 0.697154 -0.459242
H35   H     H_    0.820483 0.314573 0.701530 0.379925
F1    F     F_    0.812389 0.639877 0.873556 -0.598730
S2    S     S_3+6 0.127896 0.647037 0.597878 0.039474
O16   O     O_2   0.033909 0.620887 0.637338 -0.198478
O17   O     O_2   0.237892 0.554280 0.606211 -0.283712
O18   O     O_3   0.173156 0.817242 0.600775 -0.566706
H36   H     H_    0.198551 0.830784 0.634490 0.374157
S3    S     S_3+6 0.099475 0.270508 0.576652 0.041703
O19   O     O_2   0.233301 0.284166 0.589889 -0.266889
O20   O     O_2   0.020082 0.337783 0.614799 -0.196063
O21   O     O_3   0.063734 0.097035 0.574352 -0.517089
H37   H     H_    0.044768 0.068639 0.608005 0.418104
F2    F     F_    0.674337 0.132521 0.551193 -0.551784
F3    F     F_    0.670007 0.865199 0.553425 -0.596975

loop_
_geom_bond_atom_site_label_1
_geom_bond_atom_site_label_2
_ccdc_geom_bond_type
C10   C27   A    
C43   H17   S    
C23   O5    A    
C21   C26   A    
C43   H16   S    
C40   H15   S    
Cu2   O4    S    
Cu1   Cu2   S    
C46   H20   S    
C52   C53   A    
C20   N2    A    
C34   O8    A    
C23   C42   S    
C40   H14   S    
C28   C29   A    
C38   C42   S    
Cu1   N4    S    
C5    C6    A    
C9    C22   A    
C36   S2    S    
C49   H25   S    
C15   C16   A    
O18   H36   S    
C3    N1    S    
C18   C19   A    
C22   H29   S    
C48   H22   S    
S3    O19   D    
C19   N2    A    
C51   N1    A    
C46   H26   S    
C40   C43   S    
C37   S3    S    
C16   C17   A    
S1    O13   D    
C44   N3    S    
C47   H27   S    
C49   N4    S    
C36   H7    S    
C12   O4    A    
C1    O1    A    
S2    O18   S    
C23   O6    A    
C50   O9    S    
C21   C22   A    
C27   C30   A    
S1    O14   D    
C36   C41   S    
C4    C7    A    
C45   N4    S    
C4    C28   A    
C39   C42   S    
C45   F3    S    
C39   H13   S    
Cu2   N3    S    
C34   O7    A    
C6    H28   S    
C48   N3    S    
C7    C31   A    
C24   C25   A    
Cu1   O1    S    
C2    H11   S    
C10   C14   A    
C8    C54   A    
C33   F1    S    
C25   C26   A    
O15   H35   S    
Cu2   O8    S    
S3    O21   S    
C38   H9    S    
C16   C20   A    
Cu1   O3    S    
C17   C18   A    
C12   O3    A    
C24   S1    S    
C25   H5    S    
C44   H18   S    
C32   H4    S    
O21   H37   S    
C52   H2    S    
C1    C41   S    
C48   C49   S    
C6    C30   A    
C38   H12   S    
C11   C32   A    
C2    C54   A    
C9    C34   S    
C39   H10   S    
C31   C35   A    
C5    C50   A    
C42   C43   S    
Cu2   O6    S    
C53   H34   S    
C37   H8    S    
C44   C45   S    
C15   H31   S    
S2    O16   D    
C31   H3    S    
Cu2   O2    S    
Cu1   O7    S    
C46   C47   S    
C40   C41   S    
C4    C5    A    
C10   C13   A    
C8    C53   A    
C21   H30   S    
C3    C52   A    
C9    C24   A    
C20   O10   S    
C29   C35   A    
C44   F2    S    
C13   C17   A    
C45   H19   S    
C32   C33   A    
C48   H24   S    
C30   H33   S    
C2    C3    A    
C14   H32   S    
C37   C39   S    
C11   C13   A    
C46   N3    S    
C1    O2    A    
C36   C38   S    
S1    O15   S    
C47   N4    S    
C35   H6    S    
C37   C41   S    
C18   C33   A    
S3    O20   D    
C51   O11   S    
C7    C51   A    
C19   O12   S    
C49   H23   S    
C50   N1    A    
C11   C29   A    
Cu1   O5    S    
C27   C28   A    
C47   H21   S    
C14   C15   A    
C26   N2    S    
C8    C12   S    
S2    O17   D    
C54   H1    S    
