data_mof_unit_7290.cif
_audit_creation_date              2012-12-10T16:37:40-0500
_audit_creation_method            fapswitch 2.2
_symmetry_space_group_name_H-M    P1
_symmetry_Int_Tables_number       1
_space_group_crystal_system       triclinic
_cell_length_a                    10.869085
_cell_length_b                    10.858111
_cell_length_c                    15.480676
_cell_angle_alpha                 96.422168
_cell_angle_beta                  74.439699
_cell_angle_gamma                 98.313946
_cell_volume                      1736.41210993

loop_
_atom_site_label
_atom_site_type_symbol
_atom_type_description
_atom_site_fract_x
_atom_site_fract_y
_atom_site_fract_z
_atom_type_partial_charge
C1    C     C_R   0.158921 0.479335 0.519677 0.553483
C2    C     C_R   0.495459 0.450458 0.117969 -0.129346
C3    C     C_R   0.712642 0.415715 0.112961 -0.125096
C4    C     C_R   0.842284 0.522639 0.480937 0.518648
C5    C     C_R   0.408107 0.559821 0.840718 -0.025928
C6    C     C_2   0.979091 0.538889 0.479075 0.239422
C7    C     C_2   0.022732 0.468654 0.528572 0.269980
C8    C     C_2   0.537383 0.967670 0.475265 -0.089579
C9    C     C_2   0.451605 0.036416 0.531799 0.265230
C10   C     C_R   0.470021 0.168109 0.519622 0.481685
C11   C     C_R   0.528769 0.833785 0.480534 0.515972
C12   C     C_R   0.230148 0.537057 0.973956 0.254731
C13   C     C_R   0.556902 0.444853 0.258625 0.502507
C14   C     C_R   0.445834 0.554049 0.741881 0.479529
C15   C     C_R   0.751690 0.434955 0.022118 -0.140567
C16   C     C_R   0.585757 0.427118 0.161308 0.030232
C17   C     C_R   0.277809 0.564220 0.884418 -0.122339
C18   C     C_3   0.941363 0.385283 0.666143 0.010089
C19   C     C_3   0.021113 0.293529 0.688186 -0.268913
C20   C     C_3   0.009381 0.300301 0.789028 -0.487841
C21   C     C_3   0.293997 0.061846 0.669332 0.010829
C22   C     C_3   0.376945 0.078907 0.737043 -0.260423
C23   C     C_R   0.312447 0.503065 0.020259 -0.105502
C24   C     C_3   0.326825 0.171770 0.815902 -0.468616
C25   C     C_3   0.063168 0.639835 0.059237 -0.009479
C26   C     C_3   0.037046 0.630031 0.160691 -0.249127
C27   C     C_3   0.975823 0.742241 0.214332 -0.452961
C28   C     C_3   0.047891 0.746192 0.465714 -0.007980
C29   C     C_3   0.157982 0.837945 0.416800 -0.247964
C30   C     C_3   0.139679 0.972506 0.453107 -0.450921
C31   C     C_R   0.445988 0.504280 0.979983 -0.017479
C32   C     C_R   0.494221 0.536042 0.889416 0.016025
C33   C     C_R   0.532919 0.472206 0.025896 0.032017
C34   C     C_R   0.664578 0.468167 0.979207 0.046008
C35   C     C_R   0.710157 0.504115 0.891764 -0.149199
C36   C     C_R   0.627351 0.541656 0.848670 -0.110935
H1    H     H_    0.783141 0.398917 0.146871 0.121291
H2    H     H_    0.972814 0.482651 0.690271 0.101521
H3    H     H_    0.987294 0.196953 0.665273 0.170069
H4    H     H_    0.123950 0.315314 0.652396 0.152901
H5    H     H_    0.045942 0.395239 0.813009 0.159863
H6    H     H_    0.066887 0.232000 0.802988 0.142291
H7    H     H_    0.907437 0.277368 0.826515 0.151103
H8    H     H_    0.196908 0.017443 0.703261 0.138660
H9    H     H_    0.277780 0.152769 0.650273 0.116534
H10   H     H_    0.376447 0.987301 0.762877 0.167396
H11   H     H_    0.478040 0.113127 0.703899 0.187256
H12   H     H_    0.617084 0.011750 0.425118 0.053631
H13   H     H_    0.325608 0.263894 0.791480 0.164924
H14   H     H_    0.390619 0.184403 0.862305 0.158347
H15   H     H_    0.228179 0.136463 0.853629 0.140429
H16   H     H_    0.972755 0.656161 0.044120 0.152641
H17   H     H_    0.134413 0.723106 0.038327 0.119306
H18   H     H_    0.971288 0.543675 0.180159 0.186574
H19   H     H_    0.128774 0.624668 0.178061 0.162586
H20   H     H_    0.040886 0.829776 0.197446 0.132465
H21   H     H_    0.958033 0.732008 0.287332 0.191760
H22   H     H_    0.882372 0.748167 0.199604 0.159741
H23   H     H_    0.811421 0.506965 0.857389 0.092062
H24   H     H_    0.049528 0.752811 0.537903 0.129954
H25   H     H_    0.955182 0.773265 0.460865 0.145733
H26   H     H_    0.250510 0.815792 0.425431 0.192530
H27   H     H_    0.162755 0.828387 0.343767 0.164172
H28   H     H_    0.050112 0.998044 0.441911 0.145875
H29   H     H_    0.222371 0.036366 0.417502 0.182040
H30   H     H_    0.134062 0.984590 0.526191 0.174291
H31   H     H_    0.851673 0.430453 0.986557 0.148568
H32   H     H_    0.400524 0.462793 0.159637 0.103785
H33   H     H_    0.210647 0.579912 0.847326 0.132422
H34   H     H_    0.267985 0.472869 0.086600 0.118676
H35   H     H_    0.669573 0.575783 0.782897 0.130137
H36   H     H_    0.839545 0.363348 0.704294 0.167238
O1    O     O_3   0.500000 0.500000 0.500000 -0.441530
O2    O     O_R   0.463530 0.379110 0.309170 -0.536700
O3    O     O_R   0.388210 0.611730 0.699360 -0.549674
O4    O     O_R   0.624720 0.532760 0.292120 -0.543991
O5    O     O_R   0.523540 0.476390 0.699360 -0.550434
O6    O     O_3   0.944690 0.370210 0.573467 -0.575588
O7    O     O_3   0.344939 0.980575 0.593928 -0.562273
O8    O     O_3   0.099063 0.525771 0.012115 -0.591138
O9    O     O_3   0.064171 0.624453 0.425005 -0.604727
O10   O     O_R   0.537910 0.240570 0.564270 -0.554460
O11   O     O_R   0.438950 0.782540 0.540270 -0.476812
O12   O     O_R   0.222350 0.398740 0.468260 -0.529885
O13   O     O_R   0.800790 0.578160 0.427210 -0.552711
O14   O     O_R   0.212140 0.566330 0.564260 -0.567449
O15   O     O_R   0.764730 0.456770 0.540270 -0.514056
O16   O     O_R   0.412790 0.208310 0.468260 -0.562594
O17   O     O_R   0.610350 0.768590 0.427210 -0.558588
Zn1   Zn    Zn3+2 0.580150 0.419820 0.574680 0.921395
Zn2   Zn    Zn3+2 0.401380 0.373730 0.437510 0.931576
Zn3   Zn    Zn3+2 0.631680 0.593260 0.413140 0.915447
Zn4   Zn    Zn3+2 0.386790 0.613180 0.574670 0.939230

loop_
_geom_bond_atom_site_label_1
_geom_bond_atom_site_label_2
_ccdc_geom_bond_type
C29   H27   S    
C17   H33   S    
C30   H28   S    
C25   O8    S    
C35   C36   A    
O1    Zn4   S    
C26   H19   S    
C20   H5    S    
C4    O15   A    
C1    O12   A    
C12   C23   A    
C10   O16   A    
C26   C27   S    
C32   C36   A    
C28   C29   S    
C25   H17   S    
O1    Zn1   S    
C18   C19   S    
C2    H32   S    
C5    C17   A    
O11   Zn4   S    
C24   H13   S    
C35   H23   S    
C34   C35   A    
C9    O7    S    
C14   O5    A    
C19   C20   S    
C8    C9    D    
C12   C17   A    
C31   C33   A    
O12   Zn2   S    
C2    C16   A    
C9    C10   S    
C15   C34   A    
C36   H35   S    
C5    C32   A    
C28   H25   S    
C24   H15   S    
C22   H11   S    
C6    O9    S    
C21   C22   S    
C18   H36   S    
C23   H34   S    
C26   H18   S    
O13   Zn3   S    
C21   H9    S    
C28   H24   S    
C24   H14   S    
O5    Zn1   S    
O1    Zn2   S    
C4    C6    S    
C27   H21   S    
C27   H20   S    
C4    O13   A    
C11   O11   A    
C25   C26   S    
C10   O10   A    
C23   C31   A    
O2    Zn2   S    
C8    H12   S    
C29   C30   S    
O14   Zn4   S    
C21   H8    S    
C11   O17   A    
C13   O4    A    
C31   C32   A    
O16   Zn2   S    
C18   O6    S    
C15   H31   S    
C21   O7    S    
C33   C34   A    
O17   Zn3   S    
C5    C14   S    
C30   H30   S    
C19   H3    S    
O4    Zn3   S    
C7    O6    S    
C2    C33   A    
C22   H10   S    
C22   C24   S    
O15   Zn1   S    
C20   H7    S    
C3    C15   A    
O3    Zn4   S    
C1    O14   A    
C29   H26   S    
C28   O9    S    
C1    C7    S    
O1    Zn3   S    
C27   H22   S    
C20   H6    S    
C6    C7    D    
O10   Zn1   S    
C14   O3    A    
C18   H2    S    
C25   H16   S    
C8    C11   S    
C12   O8    S    
C30   H29   S    
C19   H4    S    
C13   O2    A    
C3    H1    S    
C13   C16   S    
C3    C16   A    
