data_mof_unit_11993.cif
_audit_creation_date              2012-12-11T17:08:35-0500
_audit_creation_method            fapswitch 2.2
_symmetry_space_group_name_H-M    P1
_symmetry_Int_Tables_number       1
_space_group_crystal_system       triclinic
_cell_length_a                    6.998368
_cell_length_b                    14.463872
_cell_length_c                    16.1463
_cell_angle_alpha                 89.951794
_cell_angle_beta                  90.477593
_cell_angle_gamma                 90.035155
_cell_volume                      1634.32732253

loop_
_atom_site_label
_atom_site_type_symbol
_atom_type_description
_atom_site_fract_x
_atom_site_fract_y
_atom_site_fract_z
_atom_type_partial_charge
O1    O     O_R   0.505700 0.583890 0.413310 -0.545617
O2    O     O_R   0.175960 0.594920 0.586080 -0.519769
O3    O     O_R   0.005660 0.416110 0.586690 -0.545368
C1    C     C_R   0.344643 0.616162 0.615236 0.684143
O4    O     O_R   0.175980 0.594920 0.413930 -0.537464
O5    O     O_R   0.005680 0.416110 0.413310 -0.525439
C2    C     C_R   0.344519 0.615545 0.384272 0.710819
O6    O     O_R   0.505680 0.583890 0.586690 -0.545921
O7    O     O_3   0.339200 0.441330 0.500000 -0.350635
V1    V     V_3+5 0.064350 0.510880 0.500000 1.541070
O8    O     O_R   0.675960 0.405080 0.413920 -0.534013
C3    C     C_R   0.844665 0.382029 0.386109 0.782865
O9    O     O_R   0.675940 0.405080 0.586070 -0.522379
C4    C     C_R   0.844923 0.382890 0.614344 0.695053
V2    V     V_3+5 0.564340 0.489120 0.500000 1.548782
O10   O     O_3   0.839360 0.558670 0.500000 -0.372840
C5    C     C_R   0.914088 0.226837 0.674964 -0.071001
C6    C     C_R   0.851268 0.317908 0.685406 -0.211852
C7    C     C_R   0.776425 0.341119 0.765080 0.362812
C8    C     C_R   0.787096 0.275738 0.831416 -0.075392
C9    C     C_R   0.873555 0.187944 0.820085 -0.231502
C10   C     C_R   0.926428 0.165042 0.739925 0.088555
C11   C     C_3   0.090203 0.113335 0.703971 0.221873
C12   C     C_3   0.071448 0.179220 0.628659 0.187292
C13   C     C_R   0.726887 0.248760 0.188234 -0.016466
C14   C     C_R   0.879325 0.185754 0.182550 -0.153012
C15   C     C_R   0.010014 0.182320 0.249040 -0.205422
H1    H     H_    0.117118 0.128435 0.250321 0.187472
C16   C     C_R   0.992073 0.242204 0.318147 0.283157
C17   C     C_R   0.856239 0.313831 0.317269 -0.171927
C18   C     C_R   0.715398 0.310947 0.255255 0.019138
C19   C     C_3   0.509138 0.289995 0.269915 0.206865
C20   C     C_3   0.516601 0.226526 0.194340 0.543283
C21   C     C_R   0.427437 0.771884 0.673165 -0.021984
C22   C     C_R   0.350341 0.683410 0.684875 -0.178101
C23   C     C_R   0.262618 0.666052 0.763035 0.399936
C24   C     C_R   0.274889 0.733228 0.826832 -0.105718
H2    H     H_    0.213272 0.717698 0.886584 0.161138
C25   C     C_R   0.373708 0.817364 0.815831 -0.147849
C26   C     C_R   0.435475 0.838087 0.735603 -0.011590
C27   C     C_3   0.614663 0.880691 0.701549 -0.207918
C28   C     C_3   0.605829 0.805392 0.633053 -0.195525
C29   C     C_R   0.504030 0.745547 0.309192 0.034641
C30   C     C_R   0.354326 0.680924 0.313170 -0.202657
C31   C     C_R   0.233303 0.672518 0.242489 0.317559
C32   C     C_R   0.238615 0.740097 0.178941 -0.092240
C33   C     C_R   0.378071 0.811243 0.180263 -0.208879
C34   C     C_R   0.513990 0.810482 0.244328 0.074921
C35   C     C_3   0.723235 0.795864 0.232357 -0.294467
C36   C     C_3   0.712504 0.722329 0.300038 -0.193712
H3    H     H_    0.756356 0.768886 0.169696 0.151158
O11   O     O_R   0.229000 0.916070 0.913330 -0.521561
O12   O     O_R   0.558770 0.905070 0.086080 -0.543131
O13   O     O_R   0.729000 0.083900 0.086690 -0.539172
C37   C     C_R   0.390008 0.881744 0.113504 0.729953
O14   O     O_R   0.558720 0.905070 0.913930 -0.539225
O15   O     O_R   0.728960 0.083900 0.913310 -0.530687
C38   C     C_R   0.389218 0.884715 0.884367 0.724791
O16   O     O_R   0.229050 0.916070 0.086710 -0.539261
O17   O     O_3   0.395460 0.058650 0.000020 -0.371396
V3    V     V_3+5 0.670340 0.989120 0.000000 1.523107
O18   O     O_R   0.058670 0.094960 0.913900 -0.536925
C39   C     C_R   0.888812 0.118286 0.886877 0.737897
O19   O     O_R   0.058720 0.094960 0.086050 -0.528222
C40   C     C_R   0.889876 0.117131 0.114467 0.752490
V4    V     V_3+5 0.170330 0.010930 0.999970 1.548530
O20   O     O_3   0.895340 0.941350 0.999980 -0.367848
O21   O     O_3   0.699458 0.427136 0.782124 -0.622280
H4    H     H_    0.716906 0.469191 0.734502 0.295094
C41   C     C_1   0.485115 0.243576 0.351010 0.300692
N1    N     N_1   0.476113 0.207379 0.414834 -0.289156
O22   O     O_3   0.411858 0.261088 0.126662 -0.593353
H5    H     H_    0.437941 0.219188 0.079548 0.329056
O23   O     O_3   0.472848 0.132790 0.210278 -0.657499
H6    H     H_    0.568147 0.107430 0.250091 0.269612
O24   O     O_3   0.171918 0.583890 0.781872 -0.616486
H7    H     H_    0.188057 0.539264 0.736131 0.290773
C42   C     C_1   0.777750 0.874855 0.759821 0.388510
N2    N     N_1   0.905377 0.869972 0.805539 -0.304678
C43   C     C_1   0.588399 0.975784 0.670631 0.386883
N3    N     N_1   0.570870 0.049805 0.644437 -0.291429
C44   C     C_1   0.758634 0.736249 0.637883 0.352629
N4    N     N_1   0.877319 0.681453 0.644298 -0.300115
C45   C     C_1   0.566692 0.837089 0.547717 0.353609
N5    N     N_1   0.534294 0.862719 0.481163 -0.320414
O25   O     O_3   0.125944 0.594034 0.228127 -0.625596
H8    H     H_    0.169144 0.543406 0.264989 0.309901
C46   C     C_1   0.720652 0.302430 0.912428 0.408211
N6    N     N_1   0.668062 0.324162 0.977291 -0.304536
C47   C     C_1   0.116394 0.727992 0.107001 0.380265
N7    N     N_1   0.019051 0.718175 0.049371 -0.331775
C48   C     C_1   0.832322 0.880318 0.252609 0.374157
N8    N     N_1   0.918162 0.946468 0.268449 -0.364913
C49   C     C_1   0.825714 0.740081 0.375793 0.374855
N9    N     N_1   0.915375 0.754675 0.434902 -0.322681
C50   C     C_1   0.736996 0.627271 0.268495 0.382978
N10   N     N_1   0.749646 0.552403 0.243856 -0.277002
O26   O     O_3   0.042152 0.021239 0.686684 -0.616507
H9    H     H_    0.146238 0.996207 0.651854 0.321875
C51   C     C_1   0.263572 0.122282 0.756446 0.237916
N11   N     N_1   0.398080 0.129915 0.798028 -0.324040
O27   O     O_3   0.003886 0.133953 0.557260 -0.589958
H10   H     H_    0.928231 0.179843 0.525123 0.327522
C52   C     C_1   0.240780 0.236431 0.612381 0.325370
N12   N     N_1   0.375618 0.280257 0.600238 -0.273493
O28   O     O_3   0.090142 0.225408 0.390593 -0.635392
H11   H     H_    0.133638 0.160149 0.389719 0.329817
O29   O     O_3   0.397298 0.369832 0.260249 -0.606394
H12   H     H_    0.263632 0.348952 0.252384 0.322763

loop_
_geom_bond_atom_site_label_1
_geom_bond_atom_site_label_2
_ccdc_geom_bond_type
C13   C18   A    
C37   O16   A    
C15   C16   A    
C27   C28   S    
C4    C6    S    
C7    C8    A    
C21   C28   S    
C1    O6    A    
C27   C43   S    
O13   C40   A    
C31   C32   A    
C14   C15   A    
C16   C17   A    
C21   C26   A    
C23   C24   A    
C21   C22   A    
O16   V4    S    
O5    C3    A    
C17   C18   A    
C43   N3    T    
O28   H11   S    
V2    O10   S    
O26   H9    S    
O29   H12   S    
C6    C7    A    
C51   N11   T    
C23   O24   S    
C20   O22   S    
O8    V2    S    
C33   C34   A    
O21   H4    S    
C35   H3    S    
C28   C44   S    
C11   C12   S    
C41   N1    T    
O1    V2    S    
C29   C34   A    
C46   N6    T    
C11   C51   S    
C1    C22   S    
O17   V4    S    
O9    C4    A    
C49   N9    T    
O12   V3    S    
C52   N12   T    
O15   C39   A    
O12   C37   A    
C5    C12   S    
O23   H6    S    
O18   V4    S    
C28   C45   S    
O24   H7    S    
C25   C26   A    
O4    C2    A    
O25   H8    S    
C36   C49   S    
C19   C41   S    
C13   C14   A    
C25   C38   S    
O17   V3    S    
C12   C52   S    
C22   C23   A    
O19   V4    S    
O2    C1    A    
C29   C30   A    
C24   H2    S    
V3    O20   S    
C18   C19   S    
C50   N10   T    
O18   C39   A    
C5    C6    A    
C7    O21   S    
O14   V3    S    
C2    C30   S    
C45   N5    T    
O3    C4    A    
O11   C38   A    
C34   C35   S    
C44   N4    T    
O6    V2    S    
O9    V2    S    
C16   O28   S    
C35   C48   S    
O2    V1    S    
C27   C42   S    
O11   V4    S    
C30   C31   A    
C33   C37   S    
O7    V1    S    
C32   C33   A    
C26   C27   S    
C3    C17   S    
O1    C2    A    
C14   C40   S    
O22   H5    S    
O5    V1    S    
O8    C3    A    
C29   C36   S    
O15   V3    S    
C32   C47   S    
O13   V3    S    
C5    C10   A    
O19   C40   A    
C31   O25   S    
O7    V2    S    
O4    V1    S    
C24   C25   A    
O3    V1    S    
V1    O10   S    
C19   C20   S    
C42   N2    T    
C36   C50   S    
C47   N7    T    
C8    C46   S    
C48   N8    T    
O14   C38   A    
V4    O20   S    
C12   O27   S    
O27   H10   S    
C9    C39   S    
C20   O23   S    
C11   O26   S    
C8    C9    A    
C35   C36   S    
C19   O29   S    
C15   H1    S    
C10   C11   S    
C9    C10   A    
C13   C20   S    
