data_mof_unit_65456.cif
_audit_creation_date              2013-03-05T16:45:04-0500
_audit_creation_method            fapswitch 2.2
_symmetry_space_group_name_H-M    P1
_symmetry_Int_Tables_number       1
_space_group_crystal_system       triclinic
_cell_length_a                    19.19425
_cell_length_b                    19.19276
_cell_length_c                    19.475469
_cell_angle_alpha                 90.103143
_cell_angle_beta                  94.778022
_cell_angle_gamma                 85.436697
_cell_volume                      7126.89963032

loop_
_atom_site_label
_atom_site_type_symbol
_atom_site_description
_atom_site_fract_x
_atom_site_fract_y
_atom_site_fract_z
_atom_type_partial_charge
Zn1   Zn    Zn3+2 0.558280 0.441710 0.441700 0.988062
Zn2   Zn    Zn3+2 0.558950 0.553420 0.562770 1.047827
Zn3   Zn    Zn3+2 0.446190 0.441460 0.553820 1.021817
Zn4   Zn    Zn3+2 0.436580 0.563410 0.441710 0.972077
O1    O     O_3   0.500000 0.500000 0.500000 -0.499731
O2    O     O_R   0.451210 0.659450 0.463610 -0.649601
O3    O     O_R   0.545190 0.344140 0.454780 -0.651300
O4    O     O_R   0.656710 0.532590 0.548340 -0.590387
O5    O     O_R   0.346890 0.463830 0.533270 -0.648088
O6    O     O_R   0.546320 0.532340 0.658770 -0.644508
O7    O     O_R   0.450550 0.549430 0.344370 -0.645691
O8    O     O_R   0.467400 0.453980 0.652500 -0.603265
O9    O     O_R   0.535730 0.464240 0.344360 -0.645443
O10   O     O_R   0.656240 0.454400 0.463600 -0.647727
O11   O     O_R   0.340160 0.549180 0.454800 -0.646594
O12   O     O_R   0.536860 0.652450 0.548350 -0.621125
O13   O     O_R   0.466740 0.343960 0.533260 -0.623542
C1    C     C_R   0.492767 0.689158 0.507537 0.804586
C2    C     C_R   0.506962 0.310854 0.492570 0.814351
C3    C     C_R   0.689755 0.492964 0.506721 0.878694
C4    C     C_R   0.310135 0.507735 0.492692 0.790227
C5    C     C_R   0.509282 0.490854 0.688168 0.860895
C6    C     C_R   0.491468 0.508046 0.311691 0.797446
C7    C     C_R   0.487217 0.509327 0.236510 0.000009
C8    C     C_R   0.512300 0.450133 0.201234 -0.197714
C9    C     C_R   0.510384 0.450799 0.129916 -0.141451
C10   C     C_R   0.484978 0.511548 0.092672 0.196141
C11   C     C_R   0.457752 0.570021 0.127856 -0.167850
C12   C     C_R   0.458667 0.568928 0.199499 -0.186172
C13   C     C_R   0.524755 0.540677 0.873712 -0.147011
C14   C     C_R   0.520810 0.544607 0.802458 -0.243242
C15   C     C_R   0.518859 0.417798 0.795334 0.269383
C16   C     C_R   0.523873 0.413935 0.867771 -0.099563
C17   C     C_R   0.525600 0.475841 0.906733 0.091473
C18   C     C_2   0.485562 0.515262 0.017264 -0.225439
C19   C     C_2   0.528807 0.473080 0.982178 -0.196889
C20   C     C_R   0.516626 0.483945 0.763009 -0.120591
H1    H     H_    0.532888 0.402944 0.228792 0.161015
H2    H     H_    0.519584 0.595377 0.777928 0.170203
H3    H     H_    0.565533 0.433899 0.008037 0.155219
H4    H     H_    0.436921 0.616932 0.099966 0.135462
H5    H     H_    0.527542 0.588407 0.903248 0.155324
H6    H     H_    0.438572 0.614996 0.225956 0.159893
H7    H     H_    0.449851 0.554447 0.989654 0.158188
H8    H     H_    0.528303 0.403310 0.104658 0.135177
C21   C     C_R   0.507055 0.234467 0.487910 -0.011524
C22   C     C_R   0.477015 0.197271 0.538297 -0.181634
C23   C     C_R   0.474581 0.125219 0.533203 -0.161041
C24   C     C_R   0.502189 0.088893 0.477255 0.317035
C25   C     C_R   0.531382 0.126168 0.426622 -0.180702
C26   C     C_R   0.534523 0.198396 0.432125 -0.212808
C27   C     C_R   0.465346 0.879881 0.458409 -0.159820
C28   C     C_R   0.463707 0.807398 0.455003 -0.212788
C29   C     C_R   0.493411 0.911313 0.518963 0.319084
N1    N     N_2   0.500318 0.015487 0.469828 -0.192196
N2    N     N_2   0.496129 0.984536 0.525398 -0.192522
C30   C     C_R   0.490734 0.765587 0.511541 0.002340
H9    H     H_    0.442601 0.784018 0.407881 0.165661
H10   H     H_    0.444477 0.911216 0.414113 0.154385
H11   H     H_    0.552250 0.099015 0.383078 0.151216
H12   H     H_    0.557334 0.226090 0.392235 0.168043
C31   C     C_R   0.517548 0.797235 0.572095 -0.179731
C32   C     C_R   0.517949 0.869598 0.575907 -0.171817
H13   H     H_    0.538013 0.766033 0.616648 0.172409
H14   H     H_    0.450433 0.098164 0.572611 0.162474
H15   H     H_    0.538693 0.893294 0.623008 0.156233
H16   H     H_    0.455223 0.223864 0.581704 0.196499
C33   C     C_R   0.233225 0.509817 0.489959 -0.004610
C34   C     C_R   0.201456 0.461104 0.528200 -0.213806
C35   C     C_R   0.128844 0.462657 0.526744 -0.156899
C36   C     C_R   0.086246 0.513338 0.486777 0.340334
C37   C     C_R   0.118011 0.561733 0.448505 -0.167535
C38   C     C_R   0.190953 0.560039 0.449823 -0.210036
C39   C     C_R   0.877548 0.543573 0.534672 0.223651
C40   C     C_R   0.803574 0.549342 0.529792 0.183998
C41   C     C_R   0.913777 0.479697 0.517220 0.181544
N3    N     N_2   0.011881 0.518578 0.485024 -0.137355
N4    N     N_2   0.987653 0.471771 0.518055 -0.161902
C42   C     C_R   0.766682 0.490687 0.509277 -0.164093
H17   H     H_    0.086016 0.601118 0.417782 0.161228
H18   H     H_    0.214163 0.598238 0.419881 0.173517
C43   C     C_R   0.803864 0.427695 0.493520 -0.241253
C44   C     C_R   0.876658 0.422176 0.498222 -0.220912
H19   H     H_    0.776485 0.382098 0.478527 0.189751
H20   H     H_    0.106440 0.424472 0.557358 0.162819
H21   H     H_    0.904467 0.373067 0.485713 0.174313
H22   H     H_    0.232686 0.421673 0.559540 0.179173
C45   C     C_1   0.527624 0.346608 0.901945 0.257714
N5    N     N_1   0.530636 0.292853 0.929326 -0.167782
N6    N     N_R   0.766438 0.614547 0.545498 0.249421
O14   O     O_R   0.722094 0.646067 0.499272 -0.368698
O15   O     O_R   0.778705 0.643804 0.605136 -0.310350
N7    N     N_R   0.915651 0.602046 0.557416 0.240177
O16   O     O_R   0.967055 0.593849 0.605387 -0.346233
O17   O     O_R   0.899950 0.663415 0.529455 -0.314618
N8    N     N_R   0.518626 0.354926 0.755006 0.212292
O18   O     O_R   0.474209 0.308834 0.764776 -0.374131
O19   O     O_R   0.563740 0.342991 0.709225 -0.399062

loop_
_geom_bond_atom_site_label_1
_geom_bond_atom_site_label_2
_geom_bond_distance
_ccdc_geom_bond_type
N1    N2    1.246997 D    
N7    O16   1.301298 A    
C18   C19   1.340491 D    
C26   H12   1.083033 S    
C2    C21   1.468576 S    
C30   C31   1.403807 A    
N3    N4    1.247201 D    
O6    C5    1.275419 A    
C9    C10   1.406065 A    
O4    C3    1.282328 A    
C39   C41   1.415720 A    
Zn1   O1    1.949362 S    
C11   C12   1.394095 A    
C16   C45   1.448508 S    
C41   N4    1.412784 S    
C13   C14   1.385309 A    
C29   C32   1.396042 A    
O8    C5    1.274901 A    
C11   H4    1.083446 S    
O9    C6    1.277367 A    
C38   H18   1.082946 S    
C7    C12   1.402074 A    
C31   H13   1.083265 S    
Zn3   O8    1.949491 S    
C40   N6    1.435548 S    
C33   C34   1.403380 A    
C9    H8    1.080595 S    
N8    O19   1.301382 A    
C6    C7    1.459795 S    
C35   C36   1.410923 A    
C23   H14   1.082812 S    
Zn2   O12   1.930029 S    
C34   H22   1.083109 S    
C32   H15   1.083203 S    
N7    O17   1.301205 A    
C12   H6    1.083158 S    
C39   N7    1.437161 S    
C41   C44   1.393949 A    
C22   H16   1.083294 S    
C27   C29   1.410048 A    
C16   C17   1.409748 A    
O2    C1    1.284599 A    
C29   N2    1.415401 S    
C39   C40   1.410629 A    
C13   C17   1.400099 A    
O10   C3    1.284695 A    
C19   H3    1.083474 S    
C7    C8    1.399909 A    
Zn4   O2    1.928212 S    
C28   C30   1.402602 A    
C37   C38   1.395961 A    
C10   C18   1.471479 S    
C33   C38   1.403946 A    
C24   N1    1.419001 S    
C5    C20   1.457901 S    
C21   C26   1.404352 A    
C14   C20   1.397710 A    
C31   C32   1.391291 A    
Zn3   O5    1.928894 S    
C27   H10   1.082752 S    
C8    H1    1.083510 S    
C1    C30   1.466395 S    
N6    O15   1.301115 A    
C22   C23   1.390461 A    
N8    O18   1.301273 A    
C25   C26   1.395883 A    
C15   C20   1.414079 A    
Zn4   O7    1.951701 S    
C18   H7    1.087472 S    
C23   C24   1.410265 A    
C15   N8    1.438688 S    
C43   C44   1.388168 A    
C43   H19   1.083496 S    
C4    C33   1.470119 S    
Zn2   O1    1.943085 S    
Zn1   O9    1.950548 S    
Zn2   O6    1.952398 S    
C36   N3    1.420475 S    
C27   C28   1.395327 A    
C21   C22   1.402631 A    
C3    C42   1.470404 S    
Zn1   O3    1.929259 S    
Zn2   O4    1.930770 S    
Zn4   O1    1.946972 S    
Zn3   O1    1.948595 S    
C42   C43   1.401080 A    
C28   H9    1.083146 S    
O3    C2    1.286251 A    
C25   H11   1.083048 S    
C15   C16   1.407699 A    
Zn4   O11   1.929760 S    
C8    C9    1.386420 A    
C36   C37   1.399398 A    
C37   H17   1.083101 S    
O5    C4    1.283452 A    
N6    O14   1.301269 A    
O7    C6    1.278663 A    
O13   C2    1.284447 A    
C14   H2    1.083716 S    
Zn3   O13   1.929721 S    
C17   C19   1.466355 S    
C34   C35   1.389601 A    
O11   C4    1.286599 A    
C44   H21   1.083250 S    
C45   N5    1.157363 T    
O12   C1    1.280428 A    
C24   C25   1.398785 A    
C10   C11   1.402018 A    
C13   H5    1.083384 S    
Zn1   O10   1.927573 S    
C35   H20   1.082570 S    
C40   C42   1.416499 A    
