data_mof_unit_11873.cif
_audit_creation_date              2012-12-11T16:33:23-0500
_audit_creation_method            fapswitch 2.2
_symmetry_space_group_name_H-M    P1
_symmetry_Int_Tables_number       1
_space_group_crystal_system       triclinic
_cell_length_a                    6.948104
_cell_length_b                    18.223018
_cell_length_c                    20.182891
_cell_angle_alpha                 68.46334
_cell_angle_beta                  90.639768
_cell_angle_gamma                 90.766998
_cell_volume                      2376.78339237

loop_
_atom_site_label
_atom_site_type_symbol
_atom_type_description
_atom_site_fract_x
_atom_site_fract_y
_atom_site_fract_z
_atom_type_partial_charge
O1    O     O_R   0.488960 0.443750 0.941980 -0.535190
O2    O     O_R   0.823890 0.406510 0.087590 -0.539985
O3    O     O_R   0.999680 0.556250 0.058020 -0.534191
C1    C     C_R   0.655177 0.383119 0.114636 0.690331
O4    O     O_R   0.818360 0.434410 0.944340 -0.542795
O5    O     O_R   0.994110 0.584350 0.913750 -0.535177
C2    C     C_R   0.648745 0.420113 0.923991 0.720418
O6    O     O_R   0.494530 0.415650 0.086250 -0.537552
O7    O     O_3   0.662590 0.549160 0.990130 -0.363405
V1    V     V_3+5 0.935320 0.490880 0.001830 1.434690
O8    O     O_R   0.324180 0.593490 0.912410 -0.538121
C3    C     C_R   0.155292 0.616311 0.884788 0.688257
O9    O     O_R   0.329720 0.565590 0.055660 -0.536737
C4    C     C_R   0.162190 0.579891 0.076023 0.720257
V2    V     V_3+5 0.435990 0.509120 0.998170 1.445742
O10   O     O_3   0.158850 0.450840 0.009870 -0.369238
C5    C     C_3   0.008746 0.715331 0.302354 -0.141357
C6    C     C_3   0.192316 0.676571 0.287250 -0.195643
H1    H     H_    0.240069 0.615486 0.318005 0.122855
H2    H     H_    0.904918 0.686673 0.345888 0.118888
H3    H     H_    0.454524 0.755220 0.300915 0.139922
C7    C     C_1   0.156216 0.625972 0.121307 -0.167690
C8    C     C_1   0.110331 0.874332 0.378310 -0.117574
C9    C     C_3   0.959302 0.748000 0.221627 -0.161073
C10   C     C_3   0.142656 0.709747 0.207091 0.101960
C11   C     C_3   0.076239 0.824372 0.212205 -0.119224
C12   C     C_3   0.126021 0.790985 0.292312 0.111570
C13   C     C_3   0.258626 0.785138 0.197741 0.308996
C14   C     C_3   0.309651 0.752816 0.277965 -0.157040
C15   C     C_1   0.150600 0.663960 0.159719 0.009002
C16   C     C_1   0.116975 0.836565 0.339760 0.001572
H4    H     H_    0.029003 0.885493 0.181284 0.150473
H5    H     H_    0.814852 0.745504 0.198497 0.175141
H6    H     H_    0.001888 0.526853 0.689500 0.108168
C17   C     C_R   0.225367 0.774098 0.879476 -0.135406
C18   C     C_R   0.251612 0.848883 0.881631 0.199982
C19   C     C_R   0.225402 0.914811 0.819748 -0.152998
C20   C     C_R   0.174984 0.907225 0.755336 0.196099
C21   C     C_R   0.156572 0.830535 0.750795 0.016705
C22   C     C_R   0.177002 0.763092 0.815487 -0.009171
C23   C     C_R   0.116603 0.818156 0.685785 -0.165646
C24   C     C_R   0.086944 0.740240 0.687088 0.056179
C25   C     C_R   0.098863 0.674337 0.752395 0.074741
C26   C     C_R   0.145174 0.685632 0.816410 -0.150595
C27   C     C_R   0.046080 0.726295 0.623677 -0.137430
C28   C     C_R   0.015372 0.650103 0.624900 -0.115474
C29   C     C_R   0.025535 0.585978 0.688813 -0.120815
C30   C     C_R   0.067428 0.597574 0.751909 -0.143699
H7    H     H_    0.242932 0.724642 0.929193 0.124442
H8    H     H_    0.240290 0.973139 0.821969 0.142017
H9    H     H_    0.037375 0.773869 0.572331 0.084117
H10   H     H_    0.983843 0.640806 0.575895 0.109271
H11   H     H_    0.075927 0.545593 0.800107 0.102768
H12   H     H_    0.501097 0.373393 0.417029 0.112842
C31   C     C_R   0.669590 0.093712 0.247631 0.208731
C32   C     C_R   0.722945 0.085300 0.184260 -0.090700
C33   C     C_R   0.754041 0.150442 0.122939 -0.167028
C34   C     C_R   0.728079 0.225482 0.123217 -0.142385
C35   C     C_R   0.677630 0.237523 0.186188 0.049536
C36   C     C_R   0.655021 0.170977 0.251303 -0.002089
C37   C     C_R   0.645145 0.314971 0.183662 -0.152589
C38   C     C_R   0.600195 0.327975 0.246533 0.030531
C39   C     C_R   0.592224 0.263645 0.313542 0.061203
C40   C     C_R   0.618171 0.184517 0.315804 -0.187236
C41   C     C_R   0.567936 0.405785 0.243495 -0.145062
C42   C     C_R   0.529695 0.421140 0.304273 -0.160615
C43   C     C_R   0.526939 0.360115 0.369796 -0.154256
C44   C     C_R   0.559667 0.282220 0.375773 0.192822
H13   H     H_    0.736104 0.027145 0.181869 0.162563
H14   H     H_    0.793202 0.142679 0.074161 0.134397
H15   H     H_    0.747741 0.273964 0.072989 0.108997
H16   H     H_    0.573228 0.456289 0.194064 0.116865
H17   H     H_    0.505202 0.481069 0.300635 0.123359
O11   O     O_R   0.770540 0.084530 0.414050 -0.531846
O12   O     O_R   0.445710 0.065660 0.555720 -0.521610
O13   O     O_R   0.270420 0.915650 0.586190 -0.533488
C45   C     C_R   0.614851 0.077928 0.577923 0.788683
O14   O     O_R   0.441140 0.093540 0.412470 -0.525453
O15   O     O_R   0.265820 0.943740 0.441930 -0.521692
C46   C     C_R   0.609731 0.116755 0.384973 0.858412
O16   O     O_R   0.775150 0.056440 0.558310 -0.519780
O17   O     O_3   0.602370 0.950960 0.510050 -0.365762
V3    V     V_3+5 0.329450 0.009140 0.498150 1.541107
O18   O     O_R   0.935790 0.934280 0.444060 -0.528218
C47   C     C_R   0.103564 0.920142 0.423761 0.736439
O19   O     O_R   0.940370 0.906390 0.587310 -0.537893
C48   C     C_R   0.108848 0.884896 0.615926 0.764782
V4    V     V_3+5 0.828810 0.990710 0.501460 1.535765
O20   O     O_3   0.105780 0.049100 0.489960 -0.359966
C49   C     C_3   0.760379 0.307111 0.728086 -0.145204
C50   C     C_3   0.583947 0.295153 0.685270 -0.144738
H18   H     H_    0.545081 0.333845 0.630086 0.107513
H19   H     H_    0.866935 0.356189 0.708765 0.104816
H20   H     H_    0.310236 0.302415 0.751898 0.109410
C51   C     C_1   0.624458 0.123154 0.623874 -0.123707
C52   C     C_1   0.638571 0.373847 0.878915 -0.189964
C53   C     C_3   0.807122 0.218123 0.751932 -0.129320
C54   C     C_3   0.630736 0.206794 0.709741 0.162287
C55   C     C_3   0.678578 0.200703 0.818415 -0.136040
C56   C     C_3   0.631786 0.289084 0.793931 0.164138
C57   C     C_3   0.502130 0.188732 0.775578 -0.122603
C58   C     C_3   0.455397 0.277729 0.751736 -0.137486
C59   C     C_1   0.628684 0.160853 0.662531 -0.025955
C60   C     C_1   0.634029 0.335484 0.840796 -0.060459
H21   H     H_    0.395606 0.139629 0.794852 0.122285
H22   H     H_    0.717448 0.161984 0.873589 0.121509
H23   H     H_    0.952224 0.193392 0.751742 0.127535
Br1   Br    Br    0.118164 0.007309 0.681621 -0.587521
Br2   Br    Br    0.600934 0.993985 0.320097 -0.572754
N1    N     N_3   0.564218 0.223790 0.446059 -0.696944
H24   H     H_    0.672641 0.239491 0.474863 0.209491
H25   H     H_    0.432541 0.224767 0.470331 0.227251
Br3   Br    Br    0.441341 0.836496 0.122846 -0.587978
N2    N     N_3   0.302069 0.856713 0.947893 -0.605460
H26   H     H_    0.320713 0.916168 0.940773 0.246839
H27   H     H_    0.185637 0.835656 0.982349 0.252353

loop_
_geom_bond_atom_site_label_1
_geom_bond_atom_site_label_2
_ccdc_geom_bond_type
C31   C32   A    
C11   H4    S    
C57   C58   S    
C12   C14   S    
C23   C24   A    
C17   C18   A    
O15   C47   A    
C1    O6    A    
C18   N2    S    
C53   C54   S    
C49   C50   S    
C21   C23   A    
C27   C28   A    
C10   C13   S    
C2    C52   S    
C32   H13   S    
C11   C12   S    
C19   C20   A    
C13   C14   S    
C9    C11   S    
O5    C3    A    
C20   C21   A    
O19   V4    S    
C34   H15   S    
C27   H9    S    
V2    O10   S    
C28   H10   S    
C56   C60   S    
C5    H2    S    
C32   C33   A    
C6    H1    S    
N1    H24   S    
C28   C29   A    
O8    V2    S    
O14   V3    S    
C29   C30   A    
C17   H7    S    
O1    V2    S    
C33   H14   S    
C25   C30   A    
C49   C53   S    
C42   C43   A    
C35   C36   A    
O11   C46   A    
O9    C4    A    
C31   Br2   S    
C40   C46   S    
C6    C10   S    
V3    O20   S    
O13   V3    S    
C49   C56   S    
C53   C55   S    
C51   C59   T    
N2    H26   S    
C57   H21   S    
C30   H11   S    
C23   C48   S    
C35   C37   A    
C5    C9    S    
C12   C16   S    
C43   C44   A    
C5    C12   S    
C9    C10   S    
C21   C22   A    
O4    C2    A    
O19   C48   A    
H12   C43   S    
C34   C35   A    
C42   H17   S    
H3    C14   S    
C1    C37   S    
C45   C51   S    
C24   C27   A    
C8    C16   T    
O2    C1    A    
C25   C26   A    
C38   C39   A    
C55   C56   S    
C45   O16   A    
C56   C58   S    
C5    C6    S    
C6    C14   S    
C44   N1    S    
O18   C47   A    
O12   C45   A    
O13   C48   A    
O3    C4    A    
C55   C57   S    
C41   C42   A    
O6    V2    S    
C52   C60   T    
C24   C25   A    
C50   C58   S    
O2    V1    S    
C50   H18   S    
C49   H19   S    
O7    V1    S    
C10   C15   S    
C55   H22   S    
C39   C44   A    
C18   C19   A    
C7    C15   T    
C38   C41   A    
O1    C2    A    
O18   V4    S    
O5    V1    S    
N2    H27   S    
O8    C3    A    
C41   H16   S    
C11   C13   S    
C9    H5    S    
C54   C57   S    
C36   C40   A    
C4    C7    S    
O9    V2    S    
C17   C22   A    
O7    V2    S    
O4    V1    S    
C3    C26   S    
O3    V1    S    
V1    O10   S    
O15   V3    S    
C19   H8    S    
O12   V3    S    
C33   C34   A    
O17   V4    S    
O14   C46   A    
C50   C54   S    
C20   Br1   S    
C37   C38   A    
N1    H25   S    
O16   V4    S    
C13   Br3   S    
C39   C40   A    
C53   H23   S    
C22   C26   A    
V4    O20   S    
H20   C58   S    
O17   V3    S    
C8    C47   S    
H6    C29   S    
O11   V4    S    
C31   C36   A    
C54   C59   S    
