data_mof_unit_11190.cif
_audit_creation_date              2012-10-26T19:15:04-0400
_audit_creation_method            fapswitch 2.2
_symmetry_space_group_name_H-M    P1
_symmetry_Int_Tables_number       1
_space_group_crystal_system       triclinic
_cell_length_a                    10.845817
_cell_length_b                    10.856974
_cell_length_c                    9.566707
_cell_angle_alpha                 91.135964
_cell_angle_beta                  90.24437
_cell_angle_gamma                 90.288802
_cell_volume                      1126.2596486

loop_
_atom_site_label
_atom_site_type_symbol
_atom_type_description
_atom_site_fract_x
_atom_site_fract_y
_atom_site_fract_z
_atom_type_partial_charge
C1    C     C_R   0.498358 0.262725 0.498499 0.547174
C2    C     C_R   0.435086 0.939888 0.603744 0.021507
C3    C     C_3   0.452777 0.944763 0.758736 -0.282601
C4    C     C_R   0.262859 0.498364 0.499648 0.552212
C5    C     C_3   0.443897 0.083347 0.753690 -0.268680
C6    C     C_R   0.582751 0.570693 0.075855 0.160538
C7    C     C_R   0.425662 0.422529 0.072247 -0.017288
C8    C     C_R   0.425655 0.422527 0.923516 -0.018534
C9    C     C_R   0.581942 0.571108 0.928107 0.153476
C10   C     C_3   0.583729 0.707179 0.927689 -0.287052
C11   C     C_3   0.589977 0.707337 0.084701 -0.282642
C12   C     C_R   0.939552 0.538809 0.613403 0.011127
C13   C     C_R   0.500594 0.737958 0.501006 0.545674
C14   C     C_R   0.737270 0.500786 0.500037 0.540152
C15   C     C_R   0.063514 0.531468 0.614809 0.004994
C16   C     C_R   0.130328 0.494775 0.498421 0.011913
C17   C     C_R   0.063839 0.456569 0.378075 -0.161735
C18   C     C_R   0.934345 0.457790 0.378590 -0.163076
C19   C     C_R   0.870061 0.499441 0.498535 -0.004583
C20   C     C_R   0.894151 0.731500 0.764430 0.036248
C21   C     C_R   0.912149 0.797436 0.890994 -0.117574
C22   C     C_R   0.874782 0.920146 0.904641 -0.125433
C23   C     C_3   0.935124 0.598018 0.756421 -0.126487
C24   C     C_R   0.819327 0.978594 0.792062 -0.116438
C25   C     C_R   0.801372 0.914529 0.665581 -0.125359
C26   C     C_R   0.838210 0.791669 0.651363 -0.071568
C27   C     C_3   0.077231 0.587291 0.757159 -0.256256
C28   C     C_R   0.431195 0.066958 0.599688 0.019987
C29   C     C_R   0.489782 0.130049 0.493337 0.009137
C30   C     C_R   0.538706 0.062963 0.379945 -0.167479
C31   C     C_R   0.542870 0.934752 0.383885 -0.172634
C32   C     C_R   0.496775 0.871980 0.500040 0.006006
Cu1   Cu    Cu3+1 0.499990 0.499980 0.640670 0.931655
Cu2   Cu    Cu3+1 0.500010 0.500020 0.359330 0.928522
H1    H     H_    0.111249 0.425563 0.284465 0.125172
H2    H     H_    0.885169 0.426407 0.285645 0.132601
H3    H     H_    0.888982 0.538431 0.833904 0.123285
H4    H     H_    0.128126 0.676496 0.755176 0.146072
H5    H     H_    0.112725 0.520206 0.833643 0.121356
H6    H     H_    0.580743 0.109405 0.292858 0.130290
H7    H     H_    0.588519 0.885763 0.299855 0.119094
H8    H     H_    0.374520 0.902262 0.815268 0.131368
H9    H     H_    0.680085 0.740333 0.127192 0.117872
H10   H     H_    0.954422 0.753242 0.979562 0.104339
H11   H     H_    0.888452 0.969772 0.002761 0.105562
H12   H     H_    0.546856 0.916151 0.789390 0.144199
H13   H     H_    0.790063 0.073463 0.802842 0.110505
H14   H     H_    0.758584 0.960153 0.578474 0.118133
H15   H     H_    0.822662 0.745009 0.552104 0.108371
H16   H     H_    0.358473 0.120285 0.802303 0.128191
H17   H     H_    0.530737 0.131050 0.786060 0.147817
H18   H     H_    0.363672 0.361506 0.126272 0.110771
H19   H     H_    0.363574 0.361572 0.866223 0.111460
H20   H     H_    0.666465 0.745131 0.877234 0.153693
H21   H     H_    0.493925 0.740834 0.889695 0.147644
H22   H     H_    0.506825 0.749739 0.132442 0.158251
N1    N     N_R   0.500790 0.500930 0.147930 -0.230961
N2    N     N_R   0.500790 0.500890 0.852020 -0.233313
O1    O     O_R   0.500000 0.319640 0.618810 -0.508566
O2    O     O_R   0.500010 0.319680 0.381230 -0.510563
O3    O     O_R   0.319650 0.499970 0.618810 -0.504819
O4    O     O_R   0.319660 0.500010 0.381230 -0.508242
O5    O     O_R   0.499990 0.680320 0.618770 -0.501891
O6    O     O_R   0.500000 0.680360 0.381190 -0.509184
O7    O     O_R   0.680340 0.499990 0.618770 -0.496204
O8    O     O_R   0.680350 0.500030 0.381190 -0.507208

loop_
_geom_bond_atom_site_label_1
_geom_bond_atom_site_label_2
_ccdc_geom_bond_type
C8    H19   S    
C4    C16   S    
Cu2   N1    S    
C20   C23   S    
C3    H8    S    
C11   H9    S    
Cu1   N2    S    
C23   C27   S    
C21   H10   S    
C17   H1    S    
C9    C10   S    
C13   C32   S    
C15   C27   S    
C31   C32   A    
C25   H14   S    
C12   C15   A    
Cu1   O5    S    
Cu2   O8    S    
C6    C9    A    
C1    C29   S    
C17   C18   A    
C14   O8    A    
Cu1   O7    S    
C7    C8    A    
Cu1   O1    S    
C21   C22   A    
C24   C25   A    
Cu2   O2    S    
C10   H21   S    
C12   C23   S    
C29   C30   A    
C13   O6    A    
C20   C26   A    
Cu1   O3    S    
C4    O3    A    
C12   C19   A    
Cu2   O6    S    
C28   C29   A    
C14   O7    A    
C3    H12   S    
C7    H18   S    
Cu1   Cu2   S    
C2    C3    S    
C1    O1    A    
C30   C31   A    
C10   H20   S    
C22   C24   A    
C5    H16   S    
C1    O2    A    
C6    N1    A    
C10   C11   S    
C27   H4    S    
C30   H6    S    
C15   C16   A    
C5    C28   S    
C4    O4    A    
Cu2   O4    S    
C22   H11   S    
C20   C21   A    
C2    C32   A    
C18   C19   A    
C26   H15   S    
C6    C11   S    
C9    N2    A    
C2    C28   A    
C31   H7    S    
C8    N2    A    
C25   C26   A    
C23   H3    S    
C24   H13   S    
C18   H2    S    
C14   C19   S    
C7    N1    A    
C5    H17   S    
C11   H22   S    
C27   H5    S    
C16   C17   A    
C3    C5    S    
C13   O5    A    
