data_mof_unit_16805.cif
_audit_creation_date              2012-10-26T18:40:20-0400
_audit_creation_method            fapswitch 2.2
_symmetry_space_group_name_H-M    P1
_symmetry_Int_Tables_number       1
_space_group_crystal_system       triclinic
_cell_length_a                    8.709079
_cell_length_b                    15.113404
_cell_length_c                    14.013386
_cell_angle_alpha                 89.317846
_cell_angle_beta                  98.010375
_cell_angle_gamma                 92.836164
_cell_volume                      1824.2378339

loop_
_atom_site_label
_atom_site_type_symbol
_atom_type_description
_atom_site_fract_x
_atom_site_fract_y
_atom_site_fract_z
_atom_type_partial_charge
C1    C     C_R   0.500568 0.330624 0.500642 0.563646
C2    C     C_R   0.552995 0.577561 0.896066 -0.021922
C3    C     C_R   0.489237 0.501697 0.053229 -0.067236
C4    C     C_R   0.491295 0.503957 0.944428 -0.053325
C5    C     C_R   0.203976 0.498607 0.475313 0.551010
C6    C     C_R   0.796040 0.500539 0.524836 0.598886
C7    C     C_2   0.037732 0.495057 0.462373 -0.102074
C8    C     C_2   0.962371 0.501974 0.538451 -0.077558
C9    C     C_R   0.641040 0.098720 0.541294 0.026778
C10   C     C_R   0.478670 0.909528 0.406081 0.016648
C11   C     C_R   0.639697 0.192264 0.543443 0.036711
C12   C     C_R   0.491680 0.670114 0.498168 0.562352
C13   C     C_R   0.464038 0.815865 0.404583 0.038597
C14   C     C_R   0.505008 0.234791 0.502705 0.012283
C15   C     C_R   0.478390 0.767592 0.493422 -0.001417
C16   C     C_R   0.371232 0.185924 0.464630 -0.131053
C17   C     C_R   0.485042 0.813832 0.580032 -0.125666
C18   C     C_R   0.369498 0.094418 0.465649 -0.106227
C19   C     C_R   0.492682 0.905458 0.581177 -0.091037
C20   C     C_R   0.503185 0.050435 0.501805 0.055302
C21   C     C_R   0.494430 0.953491 0.495738 0.063070
C22   C     C_2   0.788048 0.053721 0.575210 0.259141
C23   C     C_R   0.619869 0.533324 0.114984 -0.130902
C24   C     C_2   0.474979 0.960559 0.313974 0.282583
C25   C     C_2   0.780275 0.246179 0.583262 0.553157
C26   C     C_2   0.429598 0.770274 0.310119 0.585896
C27   C     C_2   0.754519 0.589852 0.268047 0.602306
C28   C     C_2   0.350500 0.354066 0.735969 0.615147
C29   C     C_2   0.255046 0.406877 0.242479 0.361103
C30   C     C_2   0.677395 0.633796 0.755879 0.367835
C31   C     C_2   0.217156 0.436884 0.033796 0.266784
C32   C     C_2   0.590123 0.662926 0.948834 0.200884
C33   C     C_R   0.438882 0.429284 0.888638 -0.133664
C34   C     C_R   0.620372 0.538705 0.215277 0.182733
C35   C     C_R   0.431857 0.430672 0.787755 0.190958
C36   C     C_R   0.375689 0.459518 0.199676 0.152921
C37   C     C_R   0.571482 0.569528 0.796631 0.145148
C38   C     C_R   0.362772 0.465637 0.096633 -0.004829
Cu1   Cu    Cu3+1 0.500000 0.499990 0.596430 1.066535
Cu2   Cu    Cu3+1 0.500000 0.500010 0.403570 1.071368
H1    H     H_    0.977007 0.485605 0.390025 0.187441
H2    H     H_    0.406167 0.935496 0.248536 0.143587
H3    H     H_    0.930934 0.282385 0.700327 0.370186
H4    H     H_    0.496264 0.746844 0.180966 0.336467
H5    H     H_    0.983924 0.622959 0.279333 0.365928
H6    H     H_    0.336847 0.221599 0.717845 0.341167
H7    H     H_    0.286139 0.351512 0.289614 0.114226
H8    H     H_    0.648275 0.702317 0.746672 0.114288
H9    H     H_    0.174936 0.477048 0.971831 0.126404
H10   H     H_    0.525667 0.678879 0.006773 0.124100
H11   H     H_    0.022956 0.509544 0.611360 0.171597
H12   H     H_    0.267415 0.218883 0.434729 0.138804
H13   H     H_    0.484394 0.779297 0.647754 0.127226
H14   H     H_    0.264145 0.057357 0.436207 0.142819
H15   H     H_    0.499167 0.939407 0.649426 0.140165
H16   H     H_    0.720893 0.558306 0.084080 0.185896
H17   H     H_    0.397297 0.370051 0.923171 0.164389
H18   H     H_    0.880335 0.087231 0.623284 0.151788
N1    N     N_R   0.500000 0.500020 0.258690 -0.283389
N2    N     N_R   0.500000 0.499980 0.741310 -0.272649
O1    O     O_R   0.500010 0.371450 0.581430 -0.470138
O2    O     O_2   0.551831 0.029902 0.309516 -0.448933
O3    O     O_2   0.847185 0.294260 0.529891 -0.506808
O4    O     O_R   0.834932 0.242246 0.681752 -0.673745
O5    O     O_2   0.310114 0.724021 0.291519 -0.500810
O6    O     O_R   0.532386 0.781463 0.242191 -0.649689
O7    O     O_2   0.736167 0.643547 0.329185 -0.451559
O8    O     O_R   0.902092 0.582464 0.241045 -0.672600
O9    O     O_2   0.234407 0.364139 0.677904 -0.512240
O10   O     O_R   0.402187 0.269066 0.757503 -0.670061
O11   O     O_2   0.119026 0.425613 0.226141 -0.437300
O12   O     O_R   0.499990 0.628550 0.418570 -0.428120
O13   O     O_2   0.804970 0.612363 0.740830 -0.472882
O14   O     O_2   0.148226 0.366486 0.047108 -0.439093
O15   O     O_2   0.693719 0.715094 0.930683 -0.477901
O16   O     O_R   0.500010 0.371460 0.418560 -0.528779
O17   O     O_R   0.499990 0.628540 0.581440 -0.546184
O18   O     O_R   0.274840 0.499990 0.562640 -0.480978
O19   O     O_R   0.725160 0.500010 0.437360 -0.489345
O20   O     O_R   0.274840 0.500000 0.399770 -0.496898
O21   O     O_R   0.725160 0.500000 0.600230 -0.448627
O22   O     O_2   0.810805 0.979786 0.547698 -0.470624

loop_
_geom_bond_atom_site_label_1
_geom_bond_atom_site_label_2
_ccdc_geom_bond_type
C24   H2    S    
C3    C23   A    
C28   O9    D    
C36   N1    A    
C32   O15   D    
C7    C8    D    
C29   C36   S    
C29   H7    S    
C22   O22   D    
C30   H8    S    
C19   C21   A    
C11   C14   A    
C9    C22   S    
C11   C25   S    
C2    C32   S    
C25   O3    D    
C27   O8    S    
C17   C19   A    
H4    O6    S    
C3    C38   A    
C24   O2    D    
Cu2   O20   S    
C12   O12   A    
C10   C21   A    
C6    O21   A    
C1    O16   A    
C31   H9    S    
H3    O4    S    
C27   C34   S    
Cu1   O1    S    
C26   O6    S    
Cu1   O18   S    
C23   H16   S    
Cu1   O21   S    
Cu1   Cu2   S    
C5    C7    S    
C30   O13   D    
C31   O14   D    
C6    C8    S    
C10   C24   S    
Cu2   O16   S    
C30   C37   S    
C35   N2    A    
C25   O4    S    
C2    C4    A    
C9    C20   A    
C12   C15   S    
C23   C34   A    
C12   O17   A    
H5    O8    S    
Cu2   O19   S    
C5    O20   A    
C9    C11   A    
C8    H11   S    
C32   H10   S    
C16   C18   A    
C13   C15   A    
C34   N1    A    
C14   C16   A    
C13   C26   S    
C3    C4    S    
C17   H13   S    
C19   H15   S    
C15   C17   A    
C4    C33   A    
C33   H17   S    
Cu2   O12   S    
C26   O5    D    
C28   O10   S    
C16   H12   S    
C10   C13   A    
C1    O1    A    
C22   H18   S    
C31   C38   S    
C36   C38   A    
C2    C37   A    
C6    O19   A    
Cu1   N2    S    
C33   C35   A    
C18   C20   A    
C7    H1    S    
H6    O10   S    
C37   N2    A    
C27   O7    D    
C18   H14   S    
C20   C21   S    
Cu1   O17   S    
Cu2   N1    S    
C1    C14   S    
C5    O18   A    
C28   C35   S    
C29   O11   D    
