data_mof_unit_39007.cif
_audit_creation_date              2012-12-10T22:17:03-0500
_audit_creation_method            fapswitch 2.2
_symmetry_space_group_name_H-M    P1
_symmetry_Int_Tables_number       1
_space_group_crystal_system       triclinic
_cell_length_a                    32.738713
_cell_length_b                    32.63953
_cell_length_c                    32.536476
_cell_angle_alpha                 89.95279
_cell_angle_beta                  90.019526
_cell_angle_gamma                 89.938316
_cell_volume                      34767.6700717

loop_
_atom_site_label
_atom_site_type_symbol
_atom_type_description
_atom_site_fract_x
_atom_site_fract_y
_atom_site_fract_z
_atom_type_partial_charge
C1    C     C_R   0.362579 0.416964 0.862761 -0.024381
C2    C     C_R   0.136400 0.583724 0.361924 -0.024171
C3    C     C_R   0.637189 0.418096 0.137128 -0.031204
C4    C     C_R   0.862086 0.579962 0.637109 -0.030806
C5    C     C_R   0.361615 0.583167 0.136866 -0.026634
C6    C     C_R   0.138268 0.416021 0.637705 -0.031450
C7    C     C_R   0.631417 0.578342 0.869317 -0.037163
C8    C     C_R   0.863747 0.417726 0.363466 -0.023757
C9    C     C_R   0.585400 0.860957 0.639738 -0.025795
C10   C     C_R   0.421059 0.367290 0.867645 -0.035658
C11   C     C_R   0.587493 0.141365 0.359376 -0.022673
C12   C     C_R   0.417555 0.635929 0.134884 -0.032372
C13   C     C_R   0.417959 0.137022 0.636078 -0.031169
C14   C     C_R   0.579065 0.632970 0.868952 -0.037747
C15   C     C_R   0.419762 0.866788 0.365819 -0.031462
C16   C     C_R   0.580286 0.366317 0.134217 -0.036498
C17   C     C_R   0.131399 0.632516 0.420518 -0.036040
C18   C     C_R   0.639638 0.860733 0.586322 -0.024088
C19   C     C_R   0.868314 0.367577 0.422076 -0.033324
C20   C     C_R   0.367004 0.133603 0.577936 -0.035485
C21   C     C_R   0.869141 0.628183 0.576663 -0.036065
C22   C     C_R   0.367393 0.869040 0.420845 -0.037099
C23   C     C_R   0.128641 0.371508 0.574408 -0.024093
C24   C     C_R   0.638686 0.138718 0.417415 -0.028253
C25   C     C_R   0.865871 0.920183 0.864788 -0.032937
C26   C     C_R   0.133178 0.076385 0.868475 -0.032504
C27   C     C_R   0.136132 0.918111 0.136034 -0.022053
C28   C     C_R   0.861913 0.084039 0.137327 -0.029016
C29   C     C_R   0.080525 0.864630 0.134523 -0.032274
C30   C     C_R   0.922013 0.867617 0.867163 -0.036228
C31   C     C_R   0.081277 0.133488 0.866371 -0.022865
C32   C     C_R   0.919378 0.132993 0.131475 -0.037382
C33   C     C_R   0.131718 0.129280 0.924588 -0.033054
C34   C     C_R   0.134492 0.865477 0.079374 -0.035250
C35   C     C_R   0.865819 0.865962 0.920202 -0.022138
C36   C     C_R   0.862708 0.136444 0.080214 -0.031019
C37   C     C_R   0.366126 0.922088 0.365910 -0.032519
C38   C     C_R   0.641470 0.086540 0.359163 -0.025027
C39   C     C_R   0.630702 0.923680 0.631195 -0.021246
C40   C     C_R   0.365169 0.080853 0.634816 -0.021411
C41   C     C_R   0.085241 0.360907 0.638645 -0.026935
C42   C     C_R   0.916747 0.361456 0.361507 -0.024610
C43   C     C_R   0.077533 0.634702 0.365088 -0.021932
C44   C     C_R   0.921427 0.628771 0.631455 -0.040162
C45   C     C_R   0.627773 0.627397 0.928849 -0.031941
C46   C     C_R   0.635336 0.365196 0.080338 -0.021373
C47   C     C_R   0.361636 0.361231 0.917033 -0.023374
C48   C     C_R   0.367937 0.631732 0.075509 -0.022076
C49   C     C_R   0.459066 0.144722 0.958999 0.911476
C50   C     C_R   0.040949 0.855249 0.458977 0.910237
C51   C     C_R   0.541000 0.144832 0.041070 0.916159
C52   C     C_R   0.959029 0.855213 0.541033 0.913522
C53   C     C_R   0.459026 0.855206 0.041038 0.915704
C54   C     C_R   0.040996 0.144827 0.541066 0.917092
C55   C     C_R   0.540965 0.855222 0.958961 0.913127
C56   C     C_R   0.959064 0.144723 0.458998 0.911870
C57   C     C_R   0.855226 0.958986 0.541047 0.915407
C58   C     C_R   0.144730 0.459005 0.958967 0.918310
C59   C     C_R   0.855286 0.040979 0.458983 0.913201
C60   C     C_R   0.144768 0.541016 0.041052 0.919008
C61   C     C_R   0.144760 0.041012 0.541047 0.917577
C62   C     C_R   0.855306 0.540965 0.958995 0.908627
C63   C     C_R   0.144683 0.959034 0.458994 0.910249
C64   C     C_R   0.855215 0.458981 0.041056 0.916830
C65   C     C_R   0.041032 0.541066 0.144924 0.919164
C66   C     C_R   0.541033 0.958932 0.855075 0.914451
C67   C     C_R   0.958982 0.458954 0.144902 0.919113
C68   C     C_R   0.458993 0.041037 0.855117 0.916978
C69   C     C_R   0.959018 0.541013 0.855162 0.909434
C70   C     C_R   0.458999 0.958971 0.144870 0.910573
C71   C     C_R   0.041039 0.458927 0.855067 0.916104
C72   C     C_R   0.541037 0.041072 0.144932 0.915027
C73   C     C_R   0.959054 0.644741 0.958991 0.917372
C74   C     C_R   0.040966 0.355221 0.958960 0.917474
C75   C     C_R   0.040970 0.644780 0.041039 0.908893
C76   C     C_R   0.959048 0.355247 0.041015 0.909960
C77   C     C_R   0.355221 0.958984 0.041050 0.916804
C78   C     C_R   0.644717 0.959013 0.958975 0.915886
C79   C     C_R   0.355333 0.040951 0.959011 0.906848
C80   C     C_R   0.644754 0.041011 0.041046 0.911169
C81   C     C_R   0.041031 0.041067 0.644923 0.918421
C82   C     C_R   0.041034 0.958931 0.355072 0.915366
C83   C     C_R   0.959018 0.958990 0.644836 0.908987
C84   C     C_R   0.958991 0.041037 0.355119 0.910618
C85   C     C_R   0.459053 0.644741 0.458987 0.910629
C86   C     C_R   0.540971 0.355213 0.458957 0.915998
C87   C     C_R   0.541007 0.644844 0.541076 0.915316
C88   C     C_R   0.459051 0.355251 0.541013 0.908254
C89   C     C_R   0.355234 0.458992 0.541045 0.910987
C90   C     C_R   0.644728 0.459006 0.458969 0.916289
C91   C     C_R   0.355277 0.540984 0.458978 0.913179
C92   C     C_R   0.644749 0.541008 0.541041 0.910523
C93   C     C_R   0.541009 0.541045 0.644882 0.911324
C94   C     C_R   0.541012 0.458954 0.355115 0.909317
C95   C     C_R   0.458982 0.458955 0.644900 0.915909
C96   C     C_R   0.458996 0.541033 0.355126 0.914071
C97   C     C_R   0.459793 0.254922 0.959334 0.905698
C98   C     C_R   0.040840 0.745408 0.459587 0.907748
C99   C     C_R   0.538030 0.257818 0.038368 0.905132
C100  C     C_R   0.960838 0.742927 0.539291 0.901509
C101  C     C_R   0.461929 0.742538 0.038701 0.904174
C102  C     C_R   0.038016 0.257772 0.538555 0.904860
C103  C     C_R   0.538567 0.742973 0.961237 0.903733
C104  C     C_R   0.959602 0.255007 0.459678 0.907784
C105  C     C_R   0.743077 0.960825 0.538711 0.908922
C106  C     C_R   0.258175 0.462052 0.962085 0.900191
C107  C     C_R   0.744501 0.040152 0.459775 0.910562
C108  C     C_R   0.257971 0.537687 0.038053 0.904827
C109  C     C_R   0.258047 0.038053 0.537930 0.908910
C110  C     C_R   0.745326 0.540500 0.959360 0.901067
C111  C     C_R   0.253333 0.958493 0.458459 0.899232
C112  C     C_R   0.741869 0.462351 0.038027 0.906735
C113  C     C_R   0.037972 0.537781 0.258019 0.902368
C114  C     C_R   0.538302 0.961059 0.742776 0.898876
C115  C     C_R   0.962357 0.462232 0.258449 0.897269
C116  C     C_R   0.462110 0.038329 0.742031 0.900088
C117  C     C_R   0.958693 0.541551 0.746360 0.896150
C118  C     C_R   0.459737 0.959825 0.255073 0.908193
C119  C     C_R   0.038705 0.461132 0.742738 0.909066
C120  C     C_R   0.538596 0.038662 0.257906 0.896175
C121  C     C_R   0.962091 0.757954 0.961814 0.911610
C122  C     C_R   0.038151 0.242025 0.962044 0.909765
C123  C     C_R   0.041897 0.752860 0.041805 0.896667
C124  C     C_R   0.958614 0.246669 0.041647 0.898164
C125  C     C_R   0.241999 0.961844 0.038020 0.908709
C126  C     C_R   0.757872 0.961996 0.961549 0.905294
C127  C     C_R   0.247766 0.041995 0.958020 0.897980
C128  C     C_R   0.755506 0.039938 0.039937 0.909236
C129  C     C_R   0.037838 0.037662 0.758256 0.909861
C130  C     C_R   0.038020 0.961701 0.242012 0.899722
C131  C     C_R   0.958340 0.958057 0.752726 0.896607
C132  C     C_R   0.960782 0.039215 0.243173 0.894135
C133  C     C_R   0.460929 0.756943 0.460924 0.895307
C134  C     C_R   0.538428 0.242106 0.461573 0.906279
C135  C     C_R   0.538079 0.758307 0.537988 0.895931
C136  C     C_R   0.458201 0.247078 0.541698 0.898995
C137  C     C_R   0.244324 0.460449 0.540391 0.898489
C138  C     C_R   0.757900 0.461758 0.461896 0.905584
C139  C     C_R   0.242370 0.538608 0.461470 0.900791
C140  C     C_R   0.755316 0.540203 0.540214 0.903941
C141  C     C_R   0.541264 0.541342 0.754123 0.893968
C142  C     C_R   0.541418 0.458294 0.246858 0.902725
C143  C     C_R   0.461763 0.461634 0.757691 0.906429
C144  C     C_R   0.460298 0.539797 0.243858 0.912102
C145  C     C_R   0.402169 0.402772 0.850246 0.014112
C146  C     C_R   0.149140 0.597329 0.401825 0.008200
C147  C     C_R   0.601298 0.399074 0.154532 0.022896
C148  C     C_R   0.848401 0.595681 0.597718 0.023252
C149  C     C_R   0.398735 0.600337 0.152892 0.028843
C150  C     C_R   0.149675 0.403432 0.597048 0.022527
C151  C     C_R   0.597896 0.598223 0.850286 0.013241
C152  C     C_R   0.850930 0.403210 0.403251 0.017334
C153  C     C_R   0.601370 0.846120 0.601628 0.007615
C154  C     C_R   0.601945 0.154777 0.399128 0.014428
C155  C     C_R   0.399177 0.154325 0.599697 0.022006
C156  C     C_R   0.403863 0.852460 0.403820 0.007573
C157  C     C_R   0.900905 0.900374 0.846666 0.016185
C158  C     C_R   0.151754 0.096679 0.902841 0.015151
C159  C     C_R   0.097574 0.902082 0.150201 0.015463
C160  C     C_R   0.845595 0.100968 0.099848 0.028327
C161  C     C_R   0.901165 0.097797 0.149465 0.004592
C162  C     C_R   0.150063 0.902742 0.096987 0.013596
C163  C     C_R   0.096484 0.094511 0.852558 0.014698
C164  C     C_R   0.850590 0.903823 0.902676 0.016535
C165  C     C_R   0.100780 0.845916 0.099793 0.018164
C166  C     C_R   0.096003 0.146786 0.905851 0.019849
C167  C     C_R   0.898872 0.153324 0.098721 0.012991
C168  C     C_R   0.904394 0.852010 0.904321 0.016201
C169  C     C_R   0.901208 0.400429 0.347889 0.009154
C170  C     C_R   0.647356 0.594455 0.907138 0.020924
C171  C     C_R   0.101348 0.398597 0.654165 0.025951
C172  C     C_R   0.349729 0.596700 0.096219 0.017355
C173  C     C_R   0.899473 0.597486 0.652817 0.018453
C174  C     C_R   0.650814 0.402570 0.098182 0.015459
C175  C     C_R   0.097041 0.598451 0.348345 0.018732
C176  C     C_R   0.347285 0.399871 0.900561 0.010736
C177  C     C_R   0.597092 0.350955 0.096658 0.013474
C178  C     C_R   0.401763 0.903100 0.348709 0.026942
C179  C     C_R   0.593280 0.645483 0.908720 0.015844
C180  C     C_R   0.402429 0.098469 0.650162 0.013475
C181  C     C_R   0.403321 0.648818 0.095475 0.015257
C182  C     C_R   0.602983 0.102696 0.344900 0.003559
C183  C     C_R   0.399821 0.346524 0.900232 0.027712
C184  C     C_R   0.597289 0.901929 0.650847 0.020240
C185  C     C_R   0.657039 0.103396 0.397270 0.033152
C186  C     C_R   0.096031 0.351014 0.596575 0.015327
C187  C     C_R   0.348046 0.902545 0.400722 0.011400
C188  C     C_R   0.905309 0.644769 0.593926 0.010766
C189  C     C_R   0.351321 0.096394 0.595801 0.015903
C190  C     C_R   0.900696 0.346883 0.400144 0.028675
C191  C     C_R   0.651040 0.901771 0.598523 0.023825
C192  C     C_R   0.097024 0.651523 0.401109 0.025915
C193  C     C_1   0.292949 0.442951 0.943276 -0.214750
C194  C     C_1   0.056940 0.555921 0.292724 -0.220610
C195  C     C_1   0.706859 0.444681 0.057333 -0.222585
C196  C     C_1   0.936268 0.564687 0.716866 -0.208695
C197  C     C_1   0.292997 0.555071 0.056915 -0.220660
C198  C     C_1   0.058801 0.440408 0.709216 -0.238526
C199  C     C_1   0.712989 0.560472 0.938966 -0.196446
C200  C     C_1   0.943939 0.443379 0.293618 -0.213912
C201  C     C_1   0.555780 0.940653 0.708451 -0.218702
C202  C     C_1   0.438877 0.285754 0.936681 -0.220963
C203  C     C_1   0.558411 0.058796 0.291989 -0.209753
C204  C     C_1   0.444777 0.707514 0.058332 -0.212884
C205  C     C_1   0.444416 0.057961 0.706949 -0.213758
C206  C     C_1   0.555672 0.707400 0.943577 -0.194919
C207  C     C_1   0.438704 0.939313 0.286884 -0.208906
C208  C     C_1   0.555796 0.293080 0.057329 -0.211876
C209  C     C_1   0.063338 0.714329 0.439122 -0.219132
C210  C     C_1   0.709192 0.940230 0.557145 -0.230069
C211  C     C_1   0.937745 0.286043 0.438434 -0.222169
C212  C     C_1   0.293487 0.056355 0.555566 -0.218731
C213  C     C_1   0.942429 0.707686 0.557859 -0.198808
C214  C     C_1   0.282927 0.935731 0.435647 -0.201103
C215  C     C_1   0.055004 0.293026 0.557954 -0.219410
C216  C     C_1   0.714093 0.062234 0.437536 -0.238504
C217  C     C_1   0.792782 0.944609 0.942138 -0.216429
C218  C     C_1   0.055980 0.054934 0.794184 -0.218499
C219  C     C_1   0.206947 0.943152 0.055991 -0.215938
C220  C     C_1   0.941149 0.058564 0.208910 -0.186678
C221  C     C_1   0.786962 0.061263 0.061051 -0.215252
C222  C     C_1   0.056038 0.942511 0.207029 -0.212665
C223  C     C_1   0.218624 0.065246 0.935023 -0.213249
C224  C     C_1   0.935459 0.933976 0.781416 -0.214164
C225  C     C_1   0.944639 0.793551 0.943407 -0.215288
C226  C     C_1   0.935728 0.217429 0.065217 -0.205626
C227  C     C_1   0.056537 0.206206 0.944788 -0.225057
C228  C     C_1   0.066016 0.781419 0.065002 -0.217774
C229  C     C_1   0.793141 0.443103 0.443886 -0.218810
C230  C     C_1   0.563532 0.563867 0.784668 -0.204770
C231  C     C_1   0.211285 0.442350 0.562088 -0.221298
C232  C     C_1   0.439338 0.560948 0.211665 -0.236303
C233  C     C_1   0.787195 0.560322 0.560390 -0.201435
C234  C     C_1   0.564496 0.434060 0.218133 -0.226778
C235  C     C_1   0.207401 0.557548 0.442873 -0.203873
C236  C     C_1   0.443303 0.442862 0.792718 -0.212286
C237  C     C_1   0.441943 0.791785 0.442252 -0.188134
C238  C     C_1   0.434100 0.218396 0.564589 -0.225224
C239  C     C_1   0.558226 0.208264 0.441953 -0.223386
C240  C     C_1   0.557734 0.793062 0.557080 -0.216829
C241  C     C_R   0.615171 0.063623 0.063686 -0.059559
C242  C     C_R   0.936378 0.936337 0.615352 -0.057149
C243  C     C_R   0.384980 0.063533 0.936442 -0.058297
C244  C     C_R   0.063708 0.936280 0.384582 -0.061155
C245  C     C_R   0.615085 0.936426 0.936410 -0.062764
C246  C     C_R   0.936360 0.063670 0.384650 -0.059645
C247  C     C_R   0.384841 0.936373 0.063677 -0.062381
C248  C     C_R   0.063713 0.063718 0.615441 -0.060320
C249  C     C_R   0.063629 0.615246 0.063694 -0.057446
C250  C     C_R   0.063598 0.384805 0.936374 -0.060797
C251  C     C_R   0.936439 0.384804 0.063654 -0.057400
C252  C     C_R   0.936491 0.615113 0.936434 -0.063417
C253  C     C_R   0.115169 0.563614 0.063681 -0.063404
C254  C     C_R   0.936346 0.436309 0.115399 -0.061820
C255  C     C_R   0.884964 0.563545 0.936436 -0.059989
C256  C     C_R   0.063727 0.436261 0.884563 -0.058926
C257  C     C_R   0.115104 0.436413 0.936394 -0.062929
C258  C     C_R   0.936390 0.563641 0.884689 -0.056802
C259  C     C_R   0.884833 0.436370 0.063687 -0.062604
C260  C     C_R   0.063716 0.563714 0.115442 -0.061279
C261  C     C_R   0.436376 0.063659 0.884663 -0.062386
C262  C     C_R   0.563655 0.115285 0.063723 -0.060538
C263  C     C_R   0.436359 0.936317 0.115380 -0.057815
C264  C     C_R   0.563594 0.884806 0.936376 -0.060160
C265  C     C_R   0.563713 0.936271 0.884576 -0.059445
C266  C     C_R   0.436425 0.884781 0.063666 -0.061640
C267  C     C_R   0.563728 0.063733 0.115459 -0.061131
C268  C     C_R   0.436495 0.115109 0.936434 -0.059764
C269  C     C_R   0.936431 0.884790 0.563657 -0.061304
C270  C     C_R   0.884938 0.063563 0.436410 -0.060794
C271  C     C_R   0.063645 0.115274 0.563712 -0.060921
C272  C     C_R   0.115067 0.936442 0.436423 -0.059991
C273  C     C_R   0.063575 0.884831 0.436394 -0.059360
C274  C     C_R   0.115159 0.063611 0.563673 -0.062547
C275  C     C_R   0.936484 0.115116 0.436426 -0.059829
C276  C     C_R   0.884846 0.936376 0.563672 -0.062435
C277  C     C_R   0.615165 0.563620 0.563676 -0.060829
C278  C     C_R   0.436345 0.436307 0.615402 -0.060981
C279  C     C_R   0.384937 0.563565 0.436410 -0.061896
C280  C     C_R   0.563705 0.436283 0.384595 -0.056004
C281  C     C_R   0.615103 0.436413 0.436400 -0.062550
C282  C     C_R   0.436363 0.563670 0.384654 -0.058257
C283  C     C_R   0.384846 0.436379 0.563680 -0.061572
C284  C     C_R   0.563703 0.563709 0.615422 -0.057251
C285  C     C_R   0.563661 0.615295 0.563724 -0.062701
C286  C     C_R   0.563602 0.384799 0.436375 -0.062222
C287  C     C_R   0.436443 0.384807 0.563653 -0.057810
C288  C     C_R   0.436474 0.615130 0.436416 -0.060627
C289  C     C_R   0.598963 0.046925 0.099152 -0.230876
C290  C     C_R   0.901081 0.953081 0.599092 -0.229118
C291  C     C_R   0.401147 0.046889 0.900966 -0.229499
C292  C     C_R   0.098911 0.953072 0.400900 -0.229655
C293  C     C_R   0.598916 0.953065 0.900898 -0.233063
C294  C     C_R   0.901107 0.046920 0.400930 -0.235015
C295  C     C_R   0.401067 0.953069 0.099109 -0.233614
C296  C     C_R   0.098943 0.046906 0.599130 -0.232673
C297  C     C_R   0.953090 0.098928 0.400970 -0.234774
C298  C     C_R   0.047016 0.599053 0.099160 -0.231336
C299  C     C_R   0.953115 0.901038 0.599056 -0.231511
C300  C     C_R   0.047033 0.400952 0.900853 -0.235326
C301  C     C_R   0.047011 0.900974 0.400874 -0.234581
C302  C     C_R   0.953102 0.401027 0.099076 -0.231614
C303  C     C_R   0.047030 0.099076 0.599178 -0.236250
C304  C     C_R   0.953110 0.598912 0.900994 -0.231608
C305  C     C_R   0.901187 0.401113 0.046810 -0.228432
C306  C     C_R   0.401338 0.098739 0.953356 -0.227715
C307  C     C_R   0.098827 0.598906 0.046811 -0.227752
C308  C     C_R   0.598715 0.901196 0.953343 -0.230216
C309  C     C_R   0.098725 0.401190 0.953335 -0.230868
C310  C     C_R   0.598846 0.098930 0.046830 -0.232149
C311  C     C_R   0.901324 0.598750 0.953350 -0.228449
C312  C     C_R   0.401182 0.901103 0.046812 -0.231748
C313  C     C_R   0.098960 0.546914 0.099145 -0.232931
C314  C     C_R   0.901047 0.453055 0.099132 -0.233782
C315  C     C_R   0.901145 0.546888 0.900970 -0.231232
C316  C     C_R   0.098943 0.453043 0.900871 -0.231248
C317  C     C_R   0.453098 0.098926 0.900972 -0.232542
C318  C     C_R   0.547042 0.099087 0.099191 -0.236466
C319  C     C_R   0.453096 0.901015 0.099082 -0.233311
C320  C     C_R   0.547030 0.900952 0.900854 -0.237928
C321  C     C_R   0.901179 0.901101 0.546811 -0.232467
C322  C     C_R   0.901311 0.098760 0.453335 -0.225704
C323  C     C_R   0.098831 0.098916 0.546816 -0.231179
C324  C     C_R   0.098696 0.901217 0.453359 -0.224893
C325  C     C_R   0.598937 0.546903 0.599120 -0.231053
C326  C     C_R   0.401050 0.453056 0.599131 -0.235191
C327  C     C_R   0.401115 0.546915 0.400940 -0.233608
C328  C     C_R   0.598925 0.453059 0.400895 -0.230556
C329  C     C_R   0.453082 0.598940 0.400961 -0.234011
C330  C     C_R   0.547033 0.599079 0.599175 -0.232180
C331  C     C_R   0.453099 0.401022 0.599082 -0.232104
C332  C     C_R   0.547021 0.400965 0.400872 -0.231722
C333  C     C_R   0.401201 0.401126 0.546800 -0.226923
C334  C     C_R   0.401304 0.598769 0.453329 -0.232353
C335  C     C_R   0.598855 0.598942 0.546834 -0.229418
C336  C     C_R   0.598736 0.401177 0.453329 -0.231193
C337  C     C_1   0.319613 0.424563 0.925120 -0.034434
C338  C     C_1   0.074549 0.573944 0.319801 -0.042216
C339  C     C_1   0.679526 0.427059 0.075037 -0.047341
C340  C     C_1   0.918196 0.581295 0.689535 -0.042765
C341  C     C_1   0.320686 0.572611 0.074085 -0.038872
C342  C     C_1   0.077448 0.422125 0.683196 -0.050497
C343  C     C_1   0.683457 0.576598 0.923671 -0.058748
C344  C     C_1   0.925887 0.425142 0.320492 -0.034954
C345  C     C_1   0.573099 0.923204 0.680773 -0.041785
C346  C     C_1   0.420710 0.312650 0.919006 -0.055014
C347  C     C_1   0.577274 0.077685 0.318287 -0.030268
C348  C     C_1   0.427505 0.679404 0.074639 -0.045309
C349  C     C_1   0.426888 0.075609 0.679421 -0.043294
C350  C     C_1   0.571372 0.677937 0.928513 -0.044225
C351  C     C_1   0.421500 0.922500 0.314779 -0.061154
C352  C     C_1   0.573220 0.321131 0.074185 -0.041988
C353  C     C_1   0.079930 0.686612 0.421282 -0.053726
C354  C     C_1   0.681707 0.922766 0.574736 -0.041860
C355  C     C_1   0.920078 0.313169 0.420481 -0.055214
C356  C     C_1   0.321701 0.073388 0.572521 -0.039972
C357  C     C_1   0.926350 0.678104 0.573465 -0.042061
C358  C     C_1   0.310760 0.918869 0.418150 -0.043395
C359  C     C_1   0.071707 0.321064 0.575332 -0.037513
C360  C     C_1   0.688295 0.081337 0.418832 -0.051831
C361  C     C_1   0.820649 0.927349 0.924844 -0.046519
C362  C     C_1   0.073062 0.071596 0.822554 -0.041675
C363  C     C_1   0.179158 0.925851 0.073301 -0.043243
C364  C     C_1   0.923797 0.075448 0.180777 -0.041386
C365  C     C_1   0.813635 0.079237 0.079037 -0.059625
C366  C     C_1   0.073742 0.925099 0.179421 -0.046180
C367  C     C_1   0.190195 0.081574 0.918355 -0.045995
C368  C     C_1   0.918146 0.916386 0.809147 -0.042195
C369  C     C_1   0.927697 0.821849 0.926828 -0.041897
C370  C     C_1   0.917536 0.190155 0.082243 -0.042152
C371  C     C_1   0.073523 0.177615 0.928411 -0.046675
C372  C     C_1   0.083970 0.808725 0.082379 -0.041412
C373  C     C_1   0.821070 0.426136 0.426556 -0.044669
C374  C     C_1   0.580562 0.581128 0.812860 -0.042967
C375  C     C_1   0.182727 0.425339 0.578063 -0.051875
C376  C     C_1   0.420813 0.579038 0.184756 -0.050003
C377  C     C_1   0.815224 0.576647 0.577900 -0.062439
C378  C     C_1   0.582656 0.416242 0.191119 -0.041721
C379  C     C_1   0.179269 0.574480 0.425232 -0.037955
C380  C     C_1   0.425641 0.425928 0.820553 -0.041333
C381  C     C_1   0.425308 0.820504 0.425919 -0.041350
C382  C     C_1   0.416076 0.191118 0.581919 -0.044754
C383  C     C_1   0.576963 0.182045 0.423366 -0.045792
C384  C     C_1   0.576357 0.819453 0.575952 -0.034151
H1    H     H_    0.611524 0.018856 0.111780 0.176717
H2    H     H_    0.888499 0.981113 0.611724 0.178179
H3    H     H_    0.388561 0.018895 0.888296 0.178307
H4    H     H_    0.111482 0.981090 0.388225 0.177975
H5    H     H_    0.611479 0.981090 0.888229 0.177214
H6    H     H_    0.888509 0.018938 0.388245 0.176773
H7    H     H_    0.388482 0.981099 0.111742 0.176530
H8    H     H_    0.111498 0.018832 0.611753 0.176649
H9    H     H_    0.981060 0.111498 0.388349 0.177161
H10   H     H_    0.019046 0.611653 0.111772 0.178043
H11   H     H_    0.981139 0.888488 0.611634 0.178230
H12   H     H_    0.019105 0.388351 0.888186 0.176530
H13   H     H_    0.019084 0.888371 0.388206 0.177375
H14   H     H_    0.981125 0.388476 0.111654 0.177798
H15   H     H_    0.019071 0.111688 0.611804 0.176368
H16   H     H_    0.981078 0.611482 0.888369 0.178185
H17   H     H_    0.888700 0.388605 0.018622 0.177863
H18   H     H_    0.388901 0.111209 0.981591 0.178381
H19   H     H_    0.111283 0.611416 0.018594 0.178383
H20   H     H_    0.611129 0.888744 0.981623 0.177427
H21   H     H_    0.111136 0.388741 0.981618 0.176803
H22   H     H_    0.611304 0.111441 0.018615 0.176784
H23   H     H_    0.888880 0.611229 0.981577 0.178381
H24   H     H_    0.388690 0.888593 0.018628 0.177201
H25   H     H_    0.111528 0.518851 0.111781 0.176354
H26   H     H_    0.888449 0.481073 0.111778 0.176433
H27   H     H_    0.888557 0.518896 0.888296 0.177143
H28   H     H_    0.111519 0.481056 0.888189 0.176573
H29   H     H_    0.481057 0.111509 0.888339 0.178010
H30   H     H_    0.519079 0.111694 0.111811 0.176219
H31   H     H_    0.481110 0.888455 0.111669 0.177708
H32   H     H_    0.519109 0.888341 0.888178 0.176354
H33   H     H_    0.888676 0.888579 0.518636 0.176873
H34   H     H_    0.888874 0.111231 0.481569 0.178495
H35   H     H_    0.111290 0.111427 0.518601 0.177227
H36   H     H_    0.111107 0.888768 0.481642 0.179259
H37   H     H_    0.611483 0.518820 0.611733 0.177661
H38   H     H_    0.388451 0.481074 0.611778 0.176612
H39   H     H_    0.388526 0.518924 0.388263 0.176381
H40   H     H_    0.611491 0.481081 0.388222 0.176919
H41   H     H_    0.481045 0.611517 0.388332 0.176885
H42   H     H_    0.519069 0.611685 0.611796 0.177610
H43   H     H_    0.481117 0.388464 0.611666 0.177237
H44   H     H_    0.519087 0.388370 0.388211 0.177776
H45   H     H_    0.388723 0.388627 0.518605 0.179055
H46   H     H_    0.388864 0.611244 0.481560 0.176943
H47   H     H_    0.611326 0.611467 0.518630 0.177611
H48   H     H_    0.611160 0.388714 0.481601 0.176699
O1    O     O_R   0.493560 0.156220 0.946130 -0.627856
O2    O     O_R   0.053870 0.843780 0.493560 -0.628703
O3    O     O_R   0.506440 0.156220 0.053870 -0.628876
O4    O     O_R   0.946130 0.843780 0.506440 -0.629427
O5    O     O_R   0.493560 0.843780 0.053870 -0.628414
O6    O     O_R   0.053870 0.156220 0.506440 -0.627583
O7    O     O_R   0.506440 0.843780 0.946130 -0.629225
O8    O     O_R   0.946130 0.156220 0.493560 -0.627898
O9    O     O_R   0.843780 0.946130 0.506440 -0.630129
O10   O     O_R   0.156220 0.493560 0.946130 -0.627933
O11   O     O_R   0.843780 0.053870 0.493560 -0.628039
O12   O     O_R   0.156220 0.506440 0.053870 -0.629614
O13   O     O_R   0.156220 0.053870 0.506440 -0.628779
O14   O     O_R   0.843780 0.506440 0.946130 -0.630785
O15   O     O_R   0.156220 0.946130 0.493560 -0.628880
O16   O     O_R   0.843780 0.493560 0.053870 -0.628742
O17   O     O_R   0.053870 0.506440 0.156220 -0.629163
O18   O     O_R   0.506440 0.946130 0.843780 -0.629494
O19   O     O_R   0.946130 0.493560 0.156220 -0.628592
O20   O     O_R   0.493560 0.053870 0.843780 -0.627819
O21   O     O_R   0.946130 0.506440 0.843780 -0.630675
O22   O     O_R   0.493560 0.946130 0.156220 -0.628480
O23   O     O_R   0.053870 0.493560 0.843780 -0.628303
O24   O     O_R   0.506440 0.053870 0.156220 -0.629191
O25   O     O_R   0.993560 0.656220 0.946130 -0.628103
O26   O     O_R   0.053870 0.343780 0.993560 -0.628942
O27   O     O_R   0.006440 0.656220 0.053870 -0.629868
O28   O     O_R   0.946130 0.343780 0.006440 -0.630023
O29   O     O_R   0.993560 0.343780 0.053870 -0.629327
O30   O     O_R   0.053870 0.656220 0.006440 -0.629855
O31   O     O_R   0.006440 0.343780 0.946130 -0.628402
O32   O     O_R   0.946130 0.656220 0.993560 -0.628316
O33   O     O_R   0.343780 0.946130 0.006440 -0.628593
O34   O     O_R   0.656220 0.993560 0.946130 -0.628426
O35   O     O_R   0.343780 0.053870 0.993560 -0.629960
O36   O     O_R   0.656220 0.006440 0.053870 -0.628878
O37   O     O_R   0.656220 0.053870 0.006440 -0.630813
O38   O     O_R   0.343780 0.006440 0.946130 -0.629493
O39   O     O_R   0.656220 0.946130 0.993560 -0.628417
O40   O     O_R   0.343780 0.993560 0.053870 -0.628843
O41   O     O_R   0.053870 0.006440 0.656220 -0.628689
O42   O     O_R   0.006440 0.946130 0.343780 -0.628645
O43   O     O_R   0.946130 0.993560 0.656220 -0.630067
O44   O     O_R   0.993560 0.053870 0.343780 -0.629125
O45   O     O_R   0.946130 0.006440 0.343780 -0.629191
O46   O     O_R   0.993560 0.946130 0.656220 -0.629445
O47   O     O_R   0.053870 0.993560 0.343780 -0.628675
O48   O     O_R   0.006440 0.053870 0.656220 -0.628379
O49   O     O_R   0.993560 0.156220 0.446130 -0.630498
O50   O     O_R   0.553870 0.843780 0.993560 -0.629428
O51   O     O_R   0.006440 0.156220 0.553870 -0.629065
O52   O     O_R   0.446130 0.843780 0.006440 -0.628344
O53   O     O_R   0.993560 0.843780 0.553870 -0.628613
O54   O     O_R   0.553870 0.156220 0.006440 -0.629039
O55   O     O_R   0.006440 0.843780 0.446130 -0.630230
O56   O     O_R   0.446130 0.156220 0.993560 -0.630564
O57   O     O_R   0.843780 0.446130 0.006440 -0.628348
O58   O     O_R   0.156220 0.993560 0.446130 -0.629148
O59   O     O_R   0.843780 0.553870 0.993560 -0.628368
O60   O     O_R   0.156220 0.006440 0.553870 -0.628557
O61   O     O_R   0.156220 0.553870 0.006440 -0.626871
O62   O     O_R   0.843780 0.006440 0.446130 -0.630233
O63   O     O_R   0.156220 0.446130 0.993560 -0.629297
O64   O     O_R   0.843780 0.993560 0.553870 -0.626753
O65   O     O_R   0.553870 0.006440 0.156220 -0.629305
O66   O     O_R   0.006440 0.446130 0.843780 -0.629094
O67   O     O_R   0.446130 0.993560 0.156220 -0.631046
O68   O     O_R   0.993560 0.553870 0.843780 -0.628515
O69   O     O_R   0.446130 0.006440 0.843780 -0.627734
O70   O     O_R   0.993560 0.446130 0.156220 -0.628481
O71   O     O_R   0.553870 0.993560 0.843780 -0.627419
O72   O     O_R   0.006440 0.553870 0.156220 -0.627344
O73   O     O_R   0.493560 0.656220 0.446130 -0.629423
O74   O     O_R   0.553870 0.343780 0.493560 -0.629249
O75   O     O_R   0.506440 0.656220 0.553870 -0.628232
O76   O     O_R   0.446130 0.343780 0.506440 -0.629139
O77   O     O_R   0.493560 0.343780 0.553870 -0.631031
O78   O     O_R   0.553870 0.656220 0.506440 -0.629299
O79   O     O_R   0.506440 0.343780 0.446130 -0.627985
O80   O     O_R   0.446130 0.656220 0.493560 -0.629501
O81   O     O_R   0.343780 0.446130 0.506440 -0.626869
O82   O     O_R   0.656220 0.493560 0.446130 -0.628582
O83   O     O_R   0.343780 0.553870 0.493560 -0.629255
O84   O     O_R   0.656220 0.506440 0.553870 -0.630129
O85   O     O_R   0.656220 0.553870 0.506440 -0.628274
O86   O     O_R   0.343780 0.506440 0.446130 -0.628928
O87   O     O_R   0.656220 0.446130 0.493560 -0.629237
O88   O     O_R   0.343780 0.493560 0.553870 -0.630490
O89   O     O_R   0.553870 0.506440 0.656220 -0.629160
O90   O     O_R   0.506440 0.446130 0.343780 -0.629054
O91   O     O_R   0.446130 0.493560 0.656220 -0.629399
O92   O     O_R   0.493560 0.553870 0.343780 -0.628344
O93   O     O_R   0.446130 0.506440 0.343780 -0.629942
O94   O     O_R   0.493560 0.446130 0.656220 -0.628741
O95   O     O_R   0.553870 0.493560 0.343780 -0.630659
O96   O     O_R   0.506440 0.553870 0.656220 -0.628800
O97   O     O_R   0.445670 0.241870 0.993700 -0.628269
O98   O     O_R   0.006300 0.758130 0.445670 -0.633024
O99   O     O_R   0.554330 0.241870 0.006300 -0.632373
O100  O     O_R   0.993700 0.758130 0.554330 -0.620399
O101  O     O_R   0.445670 0.758130 0.006300 -0.635874
O102  O     O_R   0.006300 0.241870 0.554330 -0.622701
O103  O     O_R   0.554330 0.758130 0.993700 -0.631864
O104  O     O_R   0.993700 0.241870 0.445670 -0.629139
O105  O     O_R   0.758130 0.993700 0.554330 -0.634154
O106  O     O_R   0.241870 0.445670 0.993700 -0.626629
O107  O     O_R   0.758130 0.006300 0.445670 -0.624526
O108  O     O_R   0.241870 0.554330 0.006300 -0.634678
O109  O     O_R   0.241870 0.006300 0.554330 -0.629484
O110  O     O_R   0.758130 0.554330 0.993700 -0.624924
O111  O     O_R   0.241870 0.993700 0.445670 -0.627335
O112  O     O_R   0.758130 0.445670 0.006300 -0.628081
O113  O     O_R   0.006300 0.554330 0.241870 -0.633284
O114  O     O_R   0.554330 0.993700 0.758130 -0.636714
O115  O     O_R   0.993700 0.445670 0.241870 -0.626158
O116  O     O_R   0.445670 0.006300 0.758130 -0.629722
O117  O     O_R   0.993700 0.554330 0.758130 -0.617899
O118  O     O_R   0.445670 0.993700 0.241870 -0.620977
O119  O     O_R   0.006300 0.445670 0.758130 -0.618870
O120  O     O_R   0.554330 0.006300 0.241870 -0.624082
O121  O     O_R   0.945670 0.741870 0.993700 -0.628470
O122  O     O_R   0.006300 0.258130 0.945670 -0.627098
O123  O     O_R   0.054330 0.741870 0.006300 -0.624886
O124  O     O_R   0.993700 0.258130 0.054330 -0.620394
O125  O     O_R   0.945670 0.258130 0.006300 -0.631111
O126  O     O_R   0.006300 0.741870 0.054330 -0.629292
O127  O     O_R   0.054330 0.258130 0.993700 -0.625848
O128  O     O_R   0.993700 0.741870 0.945670 -0.623044
O129  O     O_R   0.258130 0.993700 0.054330 -0.628062
O130  O     O_R   0.741870 0.945670 0.993700 -0.630956
O131  O     O_R   0.258130 0.006300 0.945670 -0.627783
O132  O     O_R   0.741870 0.054330 0.006300 -0.621236
O133  O     O_R   0.741870 0.006300 0.054330 -0.631863
O134  O     O_R   0.258130 0.054330 0.993700 -0.626389
O135  O     O_R   0.741870 0.993700 0.945670 -0.617672
O136  O     O_R   0.258130 0.945670 0.006300 -0.621601
O137  O     O_R   0.006300 0.054330 0.741870 -0.627095
O138  O     O_R   0.054330 0.993700 0.258130 -0.627395
O139  O     O_R   0.993700 0.945670 0.741870 -0.624376
O140  O     O_R   0.945670 0.006300 0.258130 -0.617747
O141  O     O_R   0.993700 0.054330 0.258130 -0.621274
O142  O     O_R   0.945670 0.993700 0.741870 -0.630556
O143  O     O_R   0.006300 0.945670 0.258130 -0.619425
O144  O     O_R   0.054330 0.006300 0.741870 -0.626626
O145  O     O_R   0.945670 0.241870 0.493700 -0.625545
O146  O     O_R   0.506300 0.758130 0.945670 -0.620969
O147  O     O_R   0.054330 0.241870 0.506300 -0.632071
O148  O     O_R   0.493700 0.758130 0.054330 -0.617259
O149  O     O_R   0.945670 0.758130 0.506300 -0.618851
O150  O     O_R   0.506300 0.241870 0.054330 -0.618825
O151  O     O_R   0.054330 0.758130 0.493700 -0.619980
O152  O     O_R   0.493700 0.241870 0.945670 -0.623532
O153  O     O_R   0.758130 0.493700 0.054330 -0.623810
O154  O     O_R   0.241870 0.945670 0.493700 -0.622287
O155  O     O_R   0.758130 0.506300 0.945670 -0.620604
O156  O     O_R   0.241870 0.054330 0.506300 -0.626502
O157  O     O_R   0.241870 0.506300 0.054330 -0.625320
O158  O     O_R   0.758130 0.054330 0.493700 -0.631883
O159  O     O_R   0.241870 0.493700 0.945670 -0.630039
O160  O     O_R   0.758130 0.945670 0.506300 -0.619852
O161  O     O_R   0.506300 0.054330 0.241870 -0.618901
O162  O     O_R   0.054330 0.493700 0.758130 -0.631592
O163  O     O_R   0.493700 0.945670 0.241870 -0.629430
O164  O     O_R   0.945670 0.506300 0.758130 -0.630346
O165  O     O_R   0.493700 0.054330 0.758130 -0.621641
O166  O     O_R   0.945670 0.493700 0.241870 -0.628667
O167  O     O_R   0.506300 0.945670 0.758130 -0.618893
O168  O     O_R   0.054330 0.506300 0.241870 -0.626348
O169  O     O_R   0.445670 0.741870 0.493700 -0.620630
O170  O     O_R   0.506300 0.258130 0.445670 -0.624254
O171  O     O_R   0.554330 0.741870 0.506300 -0.620259
O172  O     O_R   0.493700 0.258130 0.554330 -0.630163
O173  O     O_R   0.445670 0.258130 0.506300 -0.622838
O174  O     O_R   0.506300 0.741870 0.554330 -0.622988
O175  O     O_R   0.554330 0.258130 0.493700 -0.619688
O176  O     O_R   0.493700 0.741870 0.445670 -0.620119
O177  O     O_R   0.258130 0.493700 0.554330 -0.614382
O178  O     O_R   0.741870 0.445670 0.493700 -0.621451
O179  O     O_R   0.258130 0.506300 0.445670 -0.626963
O180  O     O_R   0.741870 0.554330 0.506300 -0.623852
O181  O     O_R   0.741870 0.506300 0.554330 -0.620427
O182  O     O_R   0.258130 0.554330 0.493700 -0.617479
O183  O     O_R   0.741870 0.493700 0.445670 -0.630556
O184  O     O_R   0.258130 0.445670 0.506300 -0.633205
O185  O     O_R   0.506300 0.554330 0.741870 -0.623573
O186  O     O_R   0.554330 0.493700 0.258130 -0.630778
O187  O     O_R   0.493700 0.445670 0.741870 -0.624053
O188  O     O_R   0.445670 0.506300 0.258130 -0.623918
O189  O     O_R   0.493700 0.554330 0.258130 -0.626903
O190  O     O_R   0.445670 0.493700 0.741870 -0.627595
O191  O     O_R   0.506300 0.445670 0.258130 -0.622365
O192  O     O_R   0.554330 0.506300 0.741870 -0.620190
Zn1   Zn    Zn3+2 0.531990 0.199940 0.968010 0.929811
Zn2   Zn    Zn3+2 0.031990 0.800060 0.531990 0.941522
Zn3   Zn    Zn3+2 0.468010 0.199940 0.031990 0.935091
Zn4   Zn    Zn3+2 0.968010 0.800060 0.468010 0.932170
Zn5   Zn    Zn3+2 0.531990 0.800060 0.031990 0.937806
Zn6   Zn    Zn3+2 0.031990 0.199940 0.468010 0.924365
Zn7   Zn    Zn3+2 0.468010 0.800060 0.968010 0.931952
Zn8   Zn    Zn3+2 0.968010 0.199940 0.531990 0.934874
Zn9   Zn    Zn3+2 0.800060 0.968010 0.468010 0.935621
Zn10  Zn    Zn3+2 0.199940 0.531990 0.968010 0.926896
Zn11  Zn    Zn3+2 0.800060 0.031990 0.531990 0.926995
Zn12  Zn    Zn3+2 0.199940 0.468010 0.031990 0.930789
Zn13  Zn    Zn3+2 0.199940 0.031990 0.468010 0.929980
Zn14  Zn    Zn3+2 0.800060 0.468010 0.968010 0.935428
Zn15  Zn    Zn3+2 0.199940 0.968010 0.531990 0.932167
Zn16  Zn    Zn3+2 0.800060 0.531990 0.031990 0.938801
Zn17  Zn    Zn3+2 0.031990 0.468010 0.199940 0.932219
Zn18  Zn    Zn3+2 0.468010 0.968010 0.800060 0.936406
Zn19  Zn    Zn3+2 0.968010 0.531990 0.199940 0.925733
Zn20  Zn    Zn3+2 0.531990 0.031990 0.800060 0.932255
Zn21  Zn    Zn3+2 0.968010 0.468010 0.800060 0.932749
Zn22  Zn    Zn3+2 0.531990 0.968010 0.199940 0.930966
Zn23  Zn    Zn3+2 0.031990 0.531990 0.800060 0.933682
Zn24  Zn    Zn3+2 0.468010 0.031990 0.199940 0.938104
Zn25  Zn    Zn3+2 0.031990 0.699940 0.968010 0.933860
Zn26  Zn    Zn3+2 0.031990 0.300060 0.031990 0.934336
Zn27  Zn    Zn3+2 0.968010 0.699940 0.031990 0.927433
Zn28  Zn    Zn3+2 0.968010 0.300060 0.968010 0.926858
Zn29  Zn    Zn3+2 0.300060 0.968010 0.968010 0.934163
Zn30  Zn    Zn3+2 0.699940 0.031990 0.968010 0.944131
Zn31  Zn    Zn3+2 0.300060 0.031990 0.031990 0.928306
Zn32  Zn    Zn3+2 0.699940 0.968010 0.031990 0.929371
Zn33  Zn    Zn3+2 0.031990 0.968010 0.699940 0.930760
Zn34  Zn    Zn3+2 0.968010 0.968010 0.300060 0.946223
Zn35  Zn    Zn3+2 0.968010 0.031990 0.699940 0.926467
Zn36  Zn    Zn3+2 0.031990 0.031990 0.300060 0.936784
Zn37  Zn    Zn3+2 0.531990 0.699940 0.468010 0.942661
Zn38  Zn    Zn3+2 0.531990 0.300060 0.531990 0.931979
Zn39  Zn    Zn3+2 0.468010 0.699940 0.531990 0.942605
Zn40  Zn    Zn3+2 0.468010 0.300060 0.468010 0.936321
Zn41  Zn    Zn3+2 0.300060 0.468010 0.468010 0.933443
Zn42  Zn    Zn3+2 0.699940 0.531990 0.468010 0.932038
Zn43  Zn    Zn3+2 0.300060 0.531990 0.531990 0.946051
Zn44  Zn    Zn3+2 0.699940 0.468010 0.531990 0.941693
Zn45  Zn    Zn3+2 0.531990 0.468010 0.699940 0.934860
Zn46  Zn    Zn3+2 0.468010 0.468010 0.300060 0.931740
Zn47  Zn    Zn3+2 0.468010 0.531990 0.699940 0.931586
Zn48  Zn    Zn3+2 0.531990 0.531990 0.300060 0.926811
C385  C     C_R   0.339660 0.452033 0.839018 0.113564
C386  C     C_R   0.302664 0.470427 0.852572 -0.120525
C387  C     C_R   0.289883 0.508947 0.838549 -0.132613
C388  C     C_R   0.310231 0.527645 0.806146 -0.148861
C389  C     C_R   0.340001 0.505569 0.785297 -0.131076
C390  C     C_R   0.352367 0.467101 0.800091 -0.122118
H49   H     H_    0.280729 0.454251 0.870555 0.136024
H50   H     H_    0.263110 0.523332 0.851679 0.134634
H51   H     H_    0.300421 0.557278 0.794987 0.120998
H52   H     H_    0.352522 0.517448 0.756899 0.136028
H53   H     H_    0.369299 0.448508 0.778909 0.131322
C391  C     C_R   0.162715 0.552043 0.336895 0.115014
C392  C     C_R   0.150454 0.534456 0.298811 -0.122977
C393  C     C_R   0.169787 0.500062 0.282067 -0.132474
C394  C     C_R   0.205049 0.484685 0.300056 -0.130390
C395  C     C_R   0.222709 0.506173 0.332300 -0.128800
C396  C     C_R   0.203083 0.540729 0.348464 -0.126566
H54   H     H_    0.129142 0.548723 0.278684 0.139092
H55   H     H_    0.158392 0.486472 0.253986 0.132645
H56   H     H_    0.220440 0.458414 0.286857 0.118643
H57   H     H_    0.252439 0.497044 0.343697 0.134003
H58   H     H_    0.221755 0.559760 0.367573 0.129404
C397  C     C_R   0.661627 0.452178 0.160480 0.120369
C398  C     C_R   0.704499 0.458146 0.155204 -0.123165
C399  C     C_R   0.726609 0.486914 0.178304 -0.135721
C400  C     C_R   0.708547 0.505411 0.212303 -0.126527
C401  C     C_R   0.667160 0.500451 0.218757 -0.138640
C402  C     C_R   0.643595 0.478607 0.190271 -0.128948
H59   H     H_    0.722533 0.440764 0.133923 0.134362
H60   H     H_    0.758066 0.493625 0.170953 0.131368
H61   H     H_    0.726632 0.524294 0.232729 0.124821
H62   H     H_    0.652729 0.514942 0.244995 0.136757
H63   H     H_    0.611544 0.484461 0.191400 0.149084
C403  C     C_R   0.836587 0.546810 0.661795 0.118965
C404  C     C_R   0.855314 0.518961 0.690142 -0.124312
C405  C     C_R   0.832399 0.497632 0.720152 -0.136884
C406  C     C_R   0.789897 0.496549 0.717394 -0.122359
C407  C     C_R   0.770669 0.516645 0.684975 -0.131183
C408  C     C_R   0.793151 0.543130 0.659291 -0.125155
H64   H     H_    0.887627 0.512058 0.689142 0.145084
H65   H     H_    0.847807 0.481171 0.744758 0.134951
H66   H     H_    0.772268 0.478539 0.739932 0.119178
H67   H     H_    0.738012 0.512356 0.680791 0.132188
H68   H     H_    0.774815 0.560721 0.638452 0.137064
C409  C     C_R   0.336715 0.548926 0.161048 0.113674
C410  C     C_R   0.297100 0.535596 0.148931 -0.120265
C411  C     C_R   0.279474 0.499312 0.163763 -0.122478
C412  C     C_R   0.298079 0.477734 0.195396 -0.131052
C413  C     C_R   0.332259 0.494424 0.214125 -0.138808
C414  C     C_R   0.349515 0.530448 0.198690 -0.122496
H69   H     H_    0.277297 0.554403 0.130749 0.132930
H70   H     H_    0.250355 0.488968 0.152036 0.134487
H71   H     H_    0.283999 0.450385 0.207955 0.117625
H72   H     H_    0.343983 0.480752 0.242094 0.131806
H73   H     H_    0.368513 0.545199 0.220431 0.144699
C415  C     C_R   0.165872 0.444630 0.664527 0.126574
C416  C     C_R   0.150767 0.470389 0.696505 -0.138379
C417  C     C_R   0.176484 0.489034 0.725372 -0.148013
C418  C     C_R   0.218069 0.489563 0.719257 -0.117927
C419  C     C_R   0.234394 0.469357 0.685271 -0.134458
C420  C     C_R   0.209169 0.444672 0.660602 -0.123846
H74   H     H_    0.119745 0.479179 0.699649 0.154858
H75   H     H_    0.163493 0.504477 0.751912 0.133940
H76   H     H_    0.237928 0.506056 0.740105 0.131265
H77   H     H_    0.266708 0.471679 0.679045 0.129668
H78   H     H_    0.225064 0.425496 0.639071 0.133461
C421  C     C_R   0.649460 0.539373 0.850257 0.130413
C422  C     C_R   0.692127 0.534402 0.844915 -0.124784
C423  C     C_R   0.708367 0.497690 0.829700 -0.132300
C424  C     C_R   0.682479 0.467035 0.815384 -0.133352
C425  C     C_R   0.640219 0.472079 0.818016 -0.121504
C426  C     C_R   0.623925 0.506869 0.837165 -0.124135
H79   H     H_    0.713175 0.558579 0.853076 0.133131
H80   H     H_    0.741004 0.493185 0.828743 0.127868
H81   H     H_    0.695023 0.439125 0.802308 0.118096
H82   H     H_    0.620138 0.448773 0.805669 0.134651
H83   H     H_    0.591244 0.508228 0.841119 0.134365
C427  C     C_R   0.840624 0.453057 0.339966 0.111722
C428  C     C_R   0.853431 0.468894 0.301297 -0.119975
C429  C     C_R   0.839959 0.506798 0.286379 -0.127835
C430  C     C_R   0.808812 0.527563 0.306509 -0.143762
C431  C     C_R   0.788826 0.508209 0.338735 -0.132439
C432  C     C_R   0.802994 0.470386 0.353231 -0.121132
H84   H     H_    0.870780 0.451038 0.279985 0.133393
H85   H     H_    0.852396 0.519121 0.258162 0.134914
H86   H     H_    0.797725 0.556578 0.294754 0.118162
H87   H     H_    0.761193 0.521496 0.351193 0.134602
H88   H     H_    0.781512 0.453489 0.371125 0.136858
C433  C     C_R   0.556491 0.833711 0.667130 0.119800
C434  C     C_R   0.547615 0.843478 0.708944 -0.121086
C435  C     C_R   0.519643 0.821096 0.732673 -0.136977
C436  C     C_R   0.502051 0.785619 0.717152 -0.118681
C437  C     C_R   0.513238 0.772184 0.678514 -0.134390
C438  C     C_R   0.540702 0.794860 0.654761 -0.129963
H89   H     H_    0.564153 0.866186 0.725754 0.132242
H90   H     H_    0.512968 0.830279 0.763837 0.127985
H91   H     H_    0.481930 0.767303 0.736074 0.121724
H92   H     H_    0.502044 0.742985 0.667392 0.134019
H93   H     H_    0.551005 0.778112 0.629013 0.139147
C439  C     C_R   0.462865 0.351861 0.850998 0.125129
C440  C     C_R   0.494422 0.336947 0.877204 -0.116295
C441  C     C_R   0.530688 0.320435 0.861351 -0.128064
C442  C     C_R   0.539712 0.324691 0.819944 -0.140956
C443  C     C_R   0.511114 0.342302 0.793671 -0.127616
C444  C     C_R   0.472089 0.352411 0.808349 -0.125680
H94   H     H_    0.491753 0.337825 0.910309 0.140152
H95   H     H_    0.552199 0.305204 0.881555 0.135352
H96   H     H_    0.569068 0.314560 0.808102 0.119465
H97   H     H_    0.518985 0.347504 0.761729 0.131930
H98   H     H_    0.449819 0.361792 0.785764 0.130835
C445  C     C_R   0.554911 0.165752 0.333789 0.117718
C446  C     C_R   0.543175 0.154025 0.293380 -0.125401
C447  C     C_R   0.508308 0.169981 0.274128 -0.127435
C448  C     C_R   0.486858 0.201955 0.292202 -0.127400
C449  C     C_R   0.502419 0.219897 0.327555 -0.131673
C450  C     C_R   0.537072 0.203359 0.346678 -0.126936
H99   H     H_    0.561662 0.134464 0.274548 0.128108
H100  H     H_    0.498753 0.158417 0.244463 0.132208
H101  H     H_    0.460233 0.214798 0.277181 0.119504
H102  H     H_    0.488562 0.247643 0.339344 0.133628
H103  H     H_    0.550954 0.223112 0.368667 0.137991
C451  C     C_R   0.449608 0.661482 0.159175 0.126434
C452  C     C_R   0.449807 0.705084 0.157615 -0.128014
C453  C     C_R   0.475230 0.728581 0.183283 -0.128466
C454  C     C_R   0.496497 0.709746 0.215065 -0.124862
C455  C     C_R   0.497714 0.667318 0.217078 -0.144811
C456  C     C_R   0.478510 0.643872 0.186641 -0.126158
H104  H     H_    0.430265 0.722155 0.137112 0.130093
H105  H     H_    0.477067 0.761347 0.179393 0.133267
H106  H     H_    0.512805 0.727987 0.237425 0.122481
H107  H     H_    0.514408 0.652411 0.241683 0.137089
H108  H     H_    0.487339 0.612377 0.185090 0.149416
C457  C     C_R   0.452096 0.159850 0.660433 0.122600
C458  C     C_R   0.456630 0.155808 0.703817 -0.124653
C459  C     C_R   0.486328 0.177735 0.725869 -0.130034
C460  C     C_R   0.507553 0.209459 0.706801 -0.130610
C461  C     C_R   0.503715 0.214825 0.664852 -0.138398
C462  C     C_R   0.480249 0.187282 0.641641 -0.123975
H109  H     H_    0.437559 0.136127 0.722023 0.132012
H110  H     H_    0.491850 0.171238 0.758005 0.133481
H111  H     H_    0.527519 0.229068 0.724659 0.124726
H112  H     H_    0.519998 0.239575 0.649768 0.137274
H113  H     H_    0.485696 0.187570 0.609131 0.147326
C463  C     C_R   0.544537 0.656097 0.847687 0.131728
C464  C     C_R   0.544136 0.699639 0.846610 -0.127023
C465  C     C_R   0.510788 0.721220 0.830437 -0.123052
C466  C     C_R   0.479389 0.700249 0.810740 -0.134636
C467  C     C_R   0.480220 0.657555 0.808994 -0.129207
C468  C     C_R   0.511147 0.635706 0.829196 -0.123156
H114  H     H_    0.568987 0.717230 0.859584 0.124719
H115  H     H_    0.509383 0.754208 0.833036 0.126496
H116  H     H_    0.454168 0.716935 0.797057 0.114793
H117  H     H_    0.456415 0.641328 0.792634 0.131790
H118  H     H_    0.508320 0.602839 0.830307 0.138518
C469  C     C_R   0.454241 0.842719 0.344081 0.124864
C470  C     C_R   0.486649 0.861777 0.322215 -0.121478
C471  C     C_R   0.515508 0.838814 0.300199 -0.133068
C472  C     C_R   0.517012 0.796608 0.304677 -0.136615
C473  C     C_R   0.487719 0.777004 0.328506 -0.121129
C474  C     C_R   0.455062 0.799315 0.345195 -0.129267
H119  H     H_    0.491122 0.894571 0.322270 0.145760
H120  H     H_    0.537431 0.854083 0.280565 0.133616
H121  H     H_    0.541039 0.779100 0.290050 0.115944
H122  H     H_    0.489910 0.744142 0.333595 0.129419
H123  H     H_    0.431113 0.781866 0.359802 0.125512
C475  C     C_R   0.541260 0.346801 0.152776 0.126119
C476  C     C_R   0.534717 0.303774 0.152032 -0.123308
C477  C     C_R   0.498688 0.286203 0.167242 -0.124490
C478  C     C_R   0.471185 0.310057 0.189377 -0.133629
C479  C     C_R   0.477560 0.351982 0.192678 -0.125591
C480  C     C_R   0.509960 0.370543 0.171601 -0.118445
H124  H     H_    0.557000 0.283023 0.139053 0.128777
H125  H     H_    0.492527 0.254008 0.162650 0.129717
H126  H     H_    0.444713 0.296031 0.203676 0.118693
H127  H     H_    0.456840 0.370420 0.210966 0.136252
H128  H     H_    0.510164 0.403524 0.170511 0.139871
C481  C     C_R   0.150235 0.649914 0.460072 0.131238
C482  C     C_R   0.125887 0.663784 0.493272 -0.116109
C483  C     C_R   0.143274 0.683546 0.527259 -0.127551
C484  C     C_R   0.185435 0.684831 0.531709 -0.128716
C485  C     C_R   0.210259 0.668120 0.501260 -0.122577
C486  C     C_R   0.193048 0.653035 0.464846 -0.132062
H129  H     H_    0.092893 0.660188 0.493084 0.139030
H130  H     H_    0.123841 0.697505 0.550268 0.135473
H131  H     H_    0.198908 0.698518 0.558807 0.120753
H132  H     H_    0.243205 0.667428 0.505616 0.126596
H133  H     H_    0.213755 0.643127 0.440976 0.126495
C487  C     C_R   0.665341 0.833960 0.555942 0.118048
C488  C     C_R   0.704259 0.845565 0.540290 -0.122713
C489  C     C_R   0.721776 0.826389 0.506127 -0.135039
C490  C     C_R   0.703854 0.791607 0.489612 -0.126274
C491  C     C_R   0.670783 0.774091 0.509815 -0.124640
C492  C     C_R   0.653518 0.793797 0.543853 -0.126288
H134  H     H_    0.723872 0.866542 0.555890 0.136444
H135  H     H_    0.750254 0.837669 0.493545 0.132172
H136  H     H_    0.717479 0.776434 0.463409 0.122013
H137  H     H_    0.659335 0.744622 0.499980 0.135811
H138  H     H_    0.632873 0.775533 0.561666 0.131269
C493  C     C_R   0.851749 0.351009 0.464117 0.121938
C494  C     C_R   0.877510 0.332715 0.494352 -0.115642
C495  C     C_R   0.861546 0.311928 0.528459 -0.125697
C496  C     C_R   0.820682 0.316358 0.538608 -0.134852
C497  C     C_R   0.795177 0.338881 0.512961 -0.126711
C498  C     C_R   0.809550 0.352657 0.474696 -0.123936
H139  H     H_    0.910339 0.334006 0.492356 0.141638
H140  H     H_    0.881267 0.293304 0.547639 0.139540
H141  H     H_    0.808799 0.302692 0.566614 0.121043
H142  H     H_    0.763938 0.344581 0.522199 0.131257
H143  H     H_    0.786767 0.364601 0.454031 0.134078
C499  C     C_R   0.349177 0.150196 0.536621 0.122394
C500  C     C_R   0.307215 0.145867 0.526487 -0.124973
C501  C     C_R   0.292600 0.153694 0.486636 -0.126977
C502  C     C_R   0.317157 0.173979 0.458452 -0.135688
C503  C     C_R   0.356936 0.183946 0.468971 -0.128967
C504  C     C_R   0.373760 0.169243 0.505869 -0.118472
H144  H     H_    0.285067 0.135193 0.548477 0.131726
H145  H     H_    0.261955 0.144575 0.477873 0.136068
H146  H     H_    0.305208 0.182029 0.428284 0.121567
H147  H     H_    0.375375 0.201785 0.447968 0.135952
H148  H     H_    0.406339 0.172437 0.508912 0.141794
C505  C     C_R   0.852642 0.645163 0.535805 0.129076
C506  C     C_R   0.849242 0.687858 0.528764 -0.128426
C507  C     C_R   0.834603 0.703137 0.491172 -0.126460
C508  C     C_R   0.819154 0.676509 0.461643 -0.134331
C509  C     C_R   0.821110 0.634396 0.468275 -0.121580
C510  C     C_R   0.840027 0.618921 0.503702 -0.119791
H149  H     H_    0.858107 0.709934 0.551834 0.129763
H150  H     H_    0.834565 0.735869 0.485268 0.127436
H151  H     H_    0.805845 0.688362 0.433580 0.118999
H152  H     H_    0.808120 0.613601 0.445854 0.134846
H153  H     H_    0.843924 0.586024 0.505895 0.136916
C511  C     C_R   0.349362 0.850968 0.460051 0.134237
C512  C     C_R   0.336008 0.876382 0.492526 -0.124837
C513  C     C_R   0.316156 0.859808 0.526663 -0.120741
C514  C     C_R   0.313033 0.817260 0.531228 -0.125164
C515  C     C_R   0.328592 0.791426 0.501000 -0.129151
C516  C     C_R   0.345040 0.807955 0.464983 -0.129932
H154  H     H_    0.340028 0.909025 0.491237 0.133804
H155  H     H_    0.303246 0.879745 0.549877 0.134480
H156  H     H_    0.298628 0.804561 0.558429 0.119856
H157  H     H_    0.327365 0.758752 0.505239 0.127925
H158  H     H_    0.354796 0.787046 0.441077 0.125718
C517  C     C_R   0.138289 0.360711 0.527324 0.119279
C518  C     C_R   0.126525 0.321751 0.508995 -0.135923
C519  C     C_R   0.121433 0.317842 0.465526 -0.125175
C520  C     C_R   0.135577 0.349657 0.439267 -0.109748
C521  C     C_R   0.157447 0.383451 0.455790 -0.141730
C522  C     C_R   0.160151 0.387892 0.499020 -0.130862
H159  H     H_    0.123887 0.293947 0.527051 0.138936
H160  H     H_    0.108890 0.289512 0.452771 0.141983
H161  H     H_    0.134311 0.345869 0.405925 0.124973
H162  H     H_    0.176041 0.403574 0.436197 0.137541
H163  H     H_    0.188591 0.402473 0.506034 0.153389
C523  C     C_R   0.659032 0.160422 0.455713 0.118050
C524  C     C_R   0.686547 0.140443 0.483239 -0.125166
C525  C     C_R   0.712013 0.162064 0.510116 -0.140216
C526  C     C_R   0.703744 0.202644 0.518996 -0.130213
C527  C     C_R   0.671842 0.222088 0.498590 -0.132588
C528  C     C_R   0.652808 0.202743 0.465041 -0.121550
H164  H     H_    0.687477 0.108236 0.487449 0.152250
H165  H     H_    0.736750 0.146525 0.525976 0.136684
H166  H     H_    0.721142 0.218631 0.542342 0.122377
H167  H     H_    0.663053 0.252635 0.507840 0.131211
H168  H     H_    0.633863 0.222629 0.447047 0.134925
C529  C     C_R   0.844473 0.957262 0.843180 0.122495
C530  C     C_R   0.801335 0.963226 0.844497 -0.125187
C531  C     C_R   0.782245 0.995585 0.822965 -0.128574
C532  C     C_R   0.804561 0.018743 0.794339 -0.133180
C533  C     C_R   0.846596 0.013734 0.792156 -0.126814
C534  C     C_R   0.866600 0.986981 0.819625 -0.118584
H169  H     H_    0.781242 0.943305 0.861773 0.131572
H170  H     H_    0.749995 0.001857 0.827200 0.130580
H171  H     H_    0.789162 0.041022 0.774859 0.123832
H172  H     H_    0.864158 0.031304 0.769706 0.139381
H173  H     H_    0.899480 0.989967 0.821945 0.139914
C535  C     C_R   0.151155 0.035969 0.849286 0.118620
C536  C     C_R   0.146013 0.025848 0.806879 -0.121166
C537  C     C_R   0.154923 0.986484 0.791407 -0.125601
C538  C     C_R   0.176462 0.958583 0.815281 -0.141328
C539  C     C_R   0.187493 0.969276 0.854944 -0.124268
C540  C     C_R   0.172810 0.005675 0.872861 -0.123413
H174  H     H_    0.134052 0.047785 0.785089 0.131253
H175  H     H_    0.145689 0.978101 0.760651 0.135470
H176  H     H_    0.184678 0.928879 0.803129 0.121463
H177  H     H_    0.206708 0.948576 0.872953 0.133898
H178  H     H_    0.177668 0.008233 0.905324 0.142780
C541  C     C_R   0.160047 0.952839 0.159541 0.111699
C542  C     C_R   0.199211 0.967109 0.147387 -0.123762
C543  C     C_R   0.215301 0.004362 0.161367 -0.131552
C544  C     C_R   0.195526 0.025894 0.192336 -0.135489
C545  C     C_R   0.162226 0.007908 0.211608 -0.125976
C546  C     C_R   0.146571 0.970792 0.196944 -0.123540
H179  H     H_    0.219933 0.948599 0.130072 0.132893
H180  H     H_    0.244050 0.015628 0.149467 0.135028
H181  H     H_    0.208130 0.054334 0.203879 0.120205
H182  H     H_    0.149781 0.021704 0.239181 0.135987
H183  H     H_    0.127723 0.954981 0.218359 0.138000
C547  C     C_R   0.837673 0.054371 0.165623 0.127193
C548  C     C_R   0.841356 0.057486 0.209084 -0.131681
C549  C     C_R   0.820962 0.030345 0.235753 -0.125751
C550  C     C_R   0.791662 0.003285 0.220224 -0.113791
C551  C     C_R   0.785500 0.000793 0.178111 -0.141914
C552  C     C_R   0.810272 0.023517 0.150980 -0.132411
H184  H     H_    0.860471 0.080565 0.223422 0.124617
H185  H     H_    0.827299 0.030945 0.268409 0.129185
H186  H     H_    0.774147 0.984014 0.241070 0.125067
H187  H     H_    0.762177 0.980274 0.165994 0.129996
H188  H     H_    0.808172 0.015086 0.119163 0.150672
C553  C     C_R   0.042673 0.844330 0.155348 0.121950
C554  C     C_R   0.035714 0.846305 0.198526 -0.124896
C555  C     C_R   0.002454 0.826034 0.217133 -0.126319
C556  C     C_R   0.979388 0.797765 0.194545 -0.132954
C557  C     C_R   0.985460 0.794739 0.152440 -0.127842
C558  C     C_R   0.013136 0.821303 0.132668 -0.117864
H189  H     H_    0.055484 0.863059 0.219101 0.132080
H190  H     H_    0.995411 0.830942 0.249335 0.131075
H191  H     H_    0.956395 0.779042 0.209725 0.123248
H192  H     H_    0.968003 0.772449 0.134683 0.139634
H193  H     H_    0.010886 0.823208 0.099510 0.139812
C559  C     C_R   0.962354 0.849744 0.849951 0.124485
C560  C     C_R   0.971106 0.807139 0.851865 -0.124339
C561  C     C_R   0.009640 0.791511 0.841275 -0.125175
C562  C     C_R   0.037966 0.816557 0.821692 -0.138889
C563  C     C_R   0.028945 0.857711 0.815514 -0.126116
C564  C     C_R   0.993323 0.874757 0.832254 -0.120038
H194  H     H_    0.948814 0.785264 0.862744 0.130623
H195  H     H_    0.017311 0.759904 0.847688 0.134673
H196  H     H_    0.066969 0.804085 0.811488 0.120705
H197  H     H_    0.050223 0.876845 0.798603 0.135270
H198  H     H_    0.990793 0.907626 0.831340 0.138148
C565  C     C_R   0.047070 0.157603 0.842033 0.110543
C566  C     C_R   0.031664 0.145103 0.803160 -0.121499
C567  C     C_R   0.993697 0.158431 0.788312 -0.129063
C568  C     C_R   0.972821 0.189360 0.808723 -0.141288
C569  C     C_R   0.992196 0.209650 0.840674 -0.131037
C570  C     C_R   0.030118 0.195595 0.854946 -0.120863
H199  H     H_    0.049970 0.128304 0.781755 0.132981
H200  H     H_    0.981565 0.146065 0.760049 0.136664
H201  H     H_    0.943704 0.200198 0.797240 0.119942
H202  H     H_    0.979067 0.237377 0.853087 0.135912
H203  H     H_    0.047416 0.217342 0.872116 0.136140
C571  C     C_R   0.959832 0.149182 0.147908 0.135191
C572  C     C_R   0.991936 0.160161 0.120987 -0.124387
C573  C     C_R   0.027540 0.178511 0.135998 -0.121585
C574  C     C_R   0.033557 0.182314 0.178272 -0.126750
C575  C     C_R   0.003534 0.169083 0.205584 -0.126491
C576  C     C_R   0.966313 0.154214 0.190607 -0.131030
H204  H     H_    0.989105 0.155671 0.088229 0.132262
H205  H     H_    0.050450 0.189656 0.114833 0.136237
H206  H     H_    0.061703 0.195542 0.189867 0.118603
H207  H     H_    0.008858 0.170801 0.238305 0.128671
H208  H     H_    0.942821 0.146267 0.212600 0.125816
C577  C     C_R   0.148183 0.145006 0.966959 0.119612
C578  C     C_R   0.145194 0.186655 0.979863 -0.123248
C579  C     C_R   0.158305 0.199447 0.018839 -0.134277
C580  C     C_R   0.181306 0.173191 0.043343 -0.140091
C581  C     C_R   0.187199 0.133009 0.030994 -0.120810
C582  C     C_R   0.167607 0.118210 0.995752 -0.116588
H209  H     H_    0.133017 0.210307 0.960333 0.137705
H210  H     H_    0.151811 0.230147 0.029565 0.131496
H211  H     H_    0.194373 0.184098 0.071978 0.121021
H212  H     H_    0.206263 0.112872 0.049273 0.140296
H213  H     H_    0.168085 0.085440 0.991254 0.135713
C583  C     C_R   0.154263 0.847034 0.040194 0.124221
C584  C     C_R   0.196947 0.849448 0.032864 -0.124596
C585  C     C_R   0.214439 0.835294 0.996124 -0.127027
C586  C     C_R   0.191239 0.812253 0.968842 -0.135385
C587  C     C_R   0.149816 0.806784 0.976269 -0.128644
C588  C     C_R   0.130987 0.826934 0.009284 -0.121206
H214  H     H_    0.217687 0.862791 0.054883 0.129712
H215  H     H_    0.246217 0.841417 0.989208 0.132368
H216  H     H_    0.205286 0.798858 0.941758 0.121499
H217  H     H_    0.131938 0.787711 0.955771 0.135899
H218  H     H_    0.098137 0.826556 0.009718 0.140808
C589  C     C_R   0.843961 0.843622 0.957176 0.109048
C590  C     C_R   0.856754 0.805040 0.972793 -0.124991
C591  C     C_R   0.846370 0.791836 0.012439 -0.124713
C592  C     C_R   0.817950 0.813679 0.035312 -0.134962
C593  C     C_R   0.796942 0.845525 0.016442 -0.131120
C594  C     C_R   0.808119 0.858092 0.976889 -0.124054
H219  H     H_    0.871518 0.782802 0.953776 0.134866
H220  H     H_    0.858995 0.763658 0.024629 0.139038
H221  H     H_    0.809227 0.803426 0.065765 0.123263
H222  H     H_    0.770607 0.858906 0.031443 0.137097
H223  H     H_    0.784906 0.874383 0.960775 0.139381
C595  C     C_R   0.842824 0.156511 0.041428 0.120348
C596  C     C_R   0.799992 0.155212 0.033061 -0.122641
C597  C     C_R   0.782886 0.174754 0.998541 -0.129979
C598  C     C_R   0.806404 0.201720 0.975274 -0.130344
C599  C     C_R   0.848005 0.204471 0.982788 -0.128745
C600  C     C_R   0.866324 0.178719 0.011986 -0.121327
H224  H     H_    0.778526 0.139797 0.052718 0.137700
H225  H     H_    0.751124 0.170244 0.990643 0.130076
H226  H     H_    0.792408 0.219880 0.951056 0.121736
H227  H     H_    0.866465 0.225802 0.965178 0.139570
H228  H     H_    0.899124 0.176580 0.010811 0.139816
C601  C     C_R   0.348002 0.962312 0.348126 0.123659
C602  C     C_R   0.347348 0.971073 0.305380 -0.122660
C603  C     C_R   0.332133 0.008374 0.290170 -0.127682
C604  C     C_R   0.311639 0.035131 0.316219 -0.133228
C605  C     C_R   0.309752 0.026606 0.357945 -0.123076
C606  C     C_R   0.330612 0.992745 0.374068 -0.121152
H229  H     H_    0.358497 0.949607 0.282751 0.135473
H230  H     H_    0.335280 0.016016 0.257982 0.129090
H231  H     H_    0.297430 0.062640 0.304092 0.119792
H232  H     H_    0.292643 0.046737 0.378190 0.136978
H233  H     H_    0.332579 0.990768 0.407076 0.135714
C607  C     C_R   0.662813 0.050561 0.335008 0.115970
C608  C     C_R   0.650452 0.038725 0.294863 -0.124915
C609  C     C_R   0.660635 0.000365 0.278033 -0.118408
C610  C     C_R   0.688122 0.974851 0.298208 -0.140688
C611  C     C_R   0.708054 0.989677 0.332718 -0.140301
C612  C     C_R   0.697240 0.027832 0.349137 -0.121848
H234  H     H_    0.634169 0.059336 0.274882 0.126977
H235  H     H_    0.648122 0.991024 0.248699 0.136749
H236  H     H_    0.696606 0.945544 0.285273 0.120509
H237  H     H_    0.733432 0.972603 0.345648 0.132651
H238  H     H_    0.720174 0.040189 0.368469 0.146227
C613  C     C_R   0.641981 0.969812 0.642819 0.105132
C614  C     C_R   0.672677 0.993451 0.623083 -0.125153
C615  C     C_R   0.672108 0.036294 0.622234 -0.136196
C616  C     C_R   0.644633 0.057427 0.646830 -0.128447
C617  C     C_R   0.622178 0.035332 0.675473 -0.128065
C618  C     C_R   0.623759 0.992429 0.675239 -0.129254
H239  H     H_    0.701717 0.980537 0.616349 0.147834
H240  H     H_    0.695202 0.053035 0.605336 0.137958
H241  H     H_    0.644763 0.090615 0.647471 0.127827
H242  H     H_    0.606116 0.051423 0.699676 0.142077
H243  H     H_    0.617248 0.978252 0.704017 0.144967
C619  C     C_R   0.343052 0.044010 0.656770 0.109247
C620  C     C_R   0.304698 0.028265 0.644129 -0.123852
C621  C     C_R   0.292162 0.988373 0.654054 -0.129412
C622  C     C_R   0.314571 0.965435 0.682163 -0.136699
C623  C     C_R   0.345998 0.984473 0.703484 -0.123909
C624  C     C_R   0.357807 0.024281 0.692773 -0.123839
H244  H     H_    0.282242 0.047214 0.629417 0.133690
H245  H     H_    0.264275 0.975992 0.641286 0.138058
H246  H     H_    0.305066 0.934713 0.690333 0.122411
H247  H     H_    0.359795 0.969327 0.729647 0.138706
H248  H     H_    0.373975 0.040408 0.716054 0.138946
C625  C     C_R   0.055949 0.333441 0.665708 0.118103
C626  C     C_R   0.044675 0.292763 0.654667 -0.125491
C627  C     C_R   0.014883 0.270366 0.675958 -0.133048
C628  C     C_R   0.997592 0.285951 0.711676 -0.121567
C629  C     C_R   0.011790 0.322814 0.727001 -0.139948
C630  C     C_R   0.041620 0.344797 0.705719 -0.122338
H249  H     H_    0.060876 0.275561 0.631957 0.132911
H250  H     H_    0.006422 0.240012 0.665814 0.131657
H251  H     H_    0.975654 0.268096 0.729043 0.123272
H252  H     H_    0.001130 0.333440 0.756693 0.132237
H253  H     H_    0.055220 0.367803 0.724178 0.143223
C631  C     C_R   0.951813 0.338473 0.336928 0.111976
C632  C     C_R   0.966088 0.351680 0.297664 -0.121898
C633  C     C_R   0.003306 0.338321 0.280841 -0.119754
C634  C     C_R   0.025164 0.307048 0.299602 -0.138213
C635  C     C_R   0.007833 0.287170 0.332897 -0.139784
C636  C     C_R   0.970894 0.301195 0.349567 -0.121458
H254  H     H_    0.947529 0.369755 0.277506 0.132233
H255  H     H_    0.014128 0.351008 0.252105 0.137381
H256  H     H_    0.053160 0.295880 0.286242 0.121288
H257  H     H_    0.021718 0.259309 0.344499 0.131066
H258  H     H_    0.956006 0.278807 0.367866 0.143029
C637  C     C_R   0.035495 0.651886 0.347635 0.105103
C638  C     C_R   0.016260 0.636950 0.311435 -0.122167
C639  C     C_R   0.974301 0.641779 0.303921 -0.123816
C640  C     C_R   0.951101 0.667297 0.328858 -0.135461
C641  C     C_R   0.971045 0.690681 0.358137 -0.132359
C642  C     C_R   0.012753 0.684695 0.365247 -0.125151
H259  H     H_    0.033697 0.625586 0.286121 0.141056
H260  H     H_    0.960263 0.627633 0.277349 0.139000
H261  H     H_    0.919049 0.672465 0.322454 0.122837
H262  H     H_    0.954989 0.715597 0.373058 0.138305
H263  H     H_    0.027065 0.711070 0.377318 0.148410
C643  C     C_R   0.961581 0.644824 0.647700 0.134600
C644  C     C_R   0.968451 0.687209 0.652932 -0.131665
C645  C     C_R   0.006010 0.701675 0.667627 -0.124985
C646  C     C_R   0.036157 0.674376 0.680634 -0.134028
C647  C     C_R   0.029604 0.632346 0.676670 -0.122298
C648  C     C_R   0.993515 0.617862 0.658648 -0.122501
H264  H     H_    0.945201 0.709401 0.645118 0.129487
H265  H     H_    0.011570 0.734532 0.669493 0.129744
H266  H     H_    0.064400 0.685554 0.693491 0.121309
H267  H     H_    0.052513 0.610920 0.687580 0.133226
H268  H     H_    0.990444 0.584916 0.654198 0.129894
C649  C     C_R   0.642250 0.641292 0.972948 0.118034
C650  C     C_R   0.638631 0.682962 0.986427 -0.124174
C651  C     C_R   0.642940 0.693990 0.028189 -0.122240
C652  C     C_R   0.657977 0.665525 0.056623 -0.129899
C653  C     C_R   0.667998 0.626044 0.043476 -0.128155
C654  C     C_R   0.658107 0.613475 0.003390 -0.118069
H269  H     H_    0.631354 0.707873 0.965002 0.131438
H270  H     H_    0.635104 0.724610 0.038395 0.135420
H271  H     H_    0.662283 0.674064 0.088755 0.123094
H272  H     H_    0.682771 0.604915 0.065270 0.134090
H273  H     H_    0.661769 0.581175 0.997733 0.138994
C655  C     C_R   0.656817 0.343155 0.042872 0.108753
C656  C     C_R   0.643530 0.305104 0.026359 -0.122889
C657  C     C_R   0.654270 0.292222 0.986714 -0.132452
C658  C     C_R   0.683463 0.313811 0.964589 -0.139447
C659  C     C_R   0.704648 0.345048 0.984130 -0.125195
C660  C     C_R   0.693172 0.357352 0.023718 -0.122199
H274  H     H_    0.628393 0.282658 0.044815 0.135077
H275  H     H_    0.641429 0.264449 0.974013 0.136711
H276  H     H_    0.692467 0.303718 0.934135 0.120094
H277  H     H_    0.731253 0.358259 0.969565 0.137149
H278  H     H_    0.716029 0.373666 0.040233 0.139848
C661  C     C_R   0.338608 0.339301 0.954085 0.107368
C662  C     C_R   0.299391 0.351915 0.968643 -0.121440
C663  C     C_R   0.284966 0.341975 0.008408 -0.118806
C664  C     C_R   0.306099 0.313866 0.032689 -0.133308
C665  C     C_R   0.338912 0.293165 0.015214 -0.128226
C666  C     C_R   0.353141 0.304139 0.975775 -0.122256
H279  H     H_    0.278073 0.367442 0.948612 0.130982
H280  H     H_    0.256538 0.354835 0.019709 0.136492
H281  H     H_    0.294707 0.305259 0.063033 0.120408
H282  H     H_    0.351900 0.267016 0.031114 0.134428
H283  H     H_    0.370368 0.280558 0.961043 0.144589
C667  C     C_R   0.351897 0.647847 0.032195 0.105028
C668  C     C_R   0.317231 0.632098 0.011139 -0.123807
C669  C     C_R   0.311144 0.637263 0.968811 -0.126257
C670  C     C_R   0.335980 0.663804 0.946808 -0.133969
C671  C     C_R   0.363411 0.687986 0.968395 -0.127774
C672  C     C_R   0.368772 0.681882 0.010674 -0.124440
H284  H     H_    0.291047 0.621517 0.027346 0.144121
H285  H     H_    0.285362 0.622998 0.953655 0.137723
H286  H     H_    0.330621 0.669154 0.914373 0.123374
H287  H     H_    0.378207 0.713371 0.953025 0.139377
H288  H     H_    0.379843 0.708044 0.026529 0.143505

loop_
_geom_bond_atom_site_label_1
_geom_bond_atom_site_label_2
_ccdc_geom_bond_type
C1    C176  A    
C298  H10   S    
C281  C336  A    
C83   O43   A    
C29   C553  S    
C33   C166  A    
C271  C303  A    
C494  H139  S    
C512  H154  S    
C626  H249  S    
C68   O20   A    
C89   O88   A    
C269  C321  A    
O102  Zn8   S    
C37   C178  A    
C451  C452  A    
C455  H107  S    
C219  C363  T    
C27   C162  A    
O9    Zn9   S    
C623  H247  S    
C4    C148  A    
C26   C163  A    
C591  H220  S    
C282  C329  A    
C121  C225  S    
C400  H61   S    
C62   O59   A    
C11   C154  A    
C627  H250  S    
C412  C413  A    
C28   C161  A    
C478  H126  S    
O79   Zn40  S    
C526  H166  S    
C73   C252  S    
C562  H196  S    
C433  C438  A    
C300  H12   S    
O156  Zn13  S    
C62   C255  S    
C278  C331  A    
C183  C346  S    
C243  C291  A    
C155  C382  S    
O110  Zn16  S    
C642  H263  S    
C336  H48   S    
C47   C183  A    
O98   Zn4   S    
C288  C329  A    
C111  O111  A    
C575  C576  A    
O152  Zn1   S    
C470  C471  A    
C77   C247  S    
C39   C191  A    
C42   C190  A    
C483  C484  A    
C485  H132  S    
C431  C432  A    
C114  C201  S    
C615  H240  S    
O92   Zn48  S    
O53   Zn2   S    
C56   O49   A    
C611  H237  S    
O4    Zn4   S    
C570  H203  S    
C40   C619  S    
C646  H266  S    
C291  H3    S    
C657  C658  A    
C416  H74   S    
C427  C428  A    
C273  C324  A    
C11   C445  S    
C87   C285  S    
C131  O139  A    
C23   C186  A    
O56   Zn3   S    
C548  H184  S    
O34   Zn30  S    
C234  C378  T    
C449  H102  S    
C440  H94   S    
C559  C564  A    
O176  Zn37  S    
O23   Zn23  S    
C489  C490  A    
C189  C356  S    
O67   Zn24  S    
C30   C168  A    
C122  O127  A    
C214  C358  T    
C561  C562  A    
C7    C170  A    
C120  O161  A    
C74   O26   A    
C439  C444  A    
C187  C358  S    
C21   C505  S    
C663  H280  S    
C500  C501  A    
C32   C571  S    
C136  O172  A    
C1    C145  A    
C517  C518  A    
O55   Zn4   S    
C550  C551  A    
C76   O29   A    
C4    C403  S    
C83   C242  S    
C574  C575  A    
C554  H189  S    
C599  C600  A    
C27   C159  A    
C303  H15   S    
C564  H198  S    
C138  O183  A    
C66   O18   A    
C256  C316  A    
C410  H69   S    
C253  C307  A    
C76   O28   A    
C26   C535  S    
O184  Zn41  S    
C266  C312  A    
C640  H261  S    
C254  C302  A    
C249  C298  A    
O114  Zn20  S    
O168  Zn17  S    
C560  C561  A    
O131  Zn29  S    
C501  H145  S    
C595  C600  A    
C121  O128  A    
C556  C557  A    
C650  H269  S    
C61   O60   A    
C315  H27   S    
C137  O177  A    
C591  C592  A    
O120  Zn22  S    
C602  H229  S    
C220  C364  T    
C514  H156  S    
O154  Zn15  S    
C307  H19   S    
C670  H286  S    
C277  C335  A    
C525  H165  S    
C91   C279  S    
O158  Zn11  S    
C283  C326  A    
C422  H79   S    
C664  H281  S    
C137  O184  A    
C662  H279  S    
O142  Zn35  S    
O109  Zn15  S    
C426  H83   S    
C67   O70   A    
O97   Zn3   S    
C527  C528  A    
C632  H254  S    
O22   Zn22  S    
C522  H163  S    
C47   C176  A    
C553  C558  A    
C600  H228  S    
O44   Zn36  S    
O63   Zn12  S    
O52   Zn7   S    
C51   O54   A    
C392  H54   S    
C266  C319  A    
C419  H77   S    
C462  H113  S    
O6    Zn6   S    
C471  C472  A    
C535  C540  A    
C612  H238  S    
C583  C584  A    
C475  C480  A    
C398  H59   S    
C405  H65   S    
C391  C396  A    
C506  C507  A    
C72   O24   A    
C529  C530  A    
C82   O42   A    
C319  H31   S    
C267  C318  A    
C442  C443  A    
C112  O153  A    
C99   O150  A    
O60   Zn15  S    
C49   C268  S    
C445  C446  A    
C29   C165  A    
C537  C538  A    
C635  C636  A    
C134  O170  A    
C250  C309  A    
O15   Zn15  S    
C446  C447  A    
C425  H82   S    
O80   Zn39  S    
C95   C278  S    
C282  C327  A    
C597  H225  S    
C39   C613  S    
C671  H287  S    
C324  H36   S    
C17   C192  A    
C651  H270  S    
O159  Zn10  S    
O178  Zn44  S    
C243  C306  A    
C466  C467  A    
C302  H14   S    
O21   Zn21  S    
C97   O97   A    
C117  O164  A    
C611  C612  A    
C519  H160  S    
C423  C424  A    
C465  C466  A    
C631  C636  A    
C263  C319  A    
C55   O50   A    
O170  Zn40  S    
C460  C461  A    
C23   C150  A    
C453  H105  S    
O172  Zn38  S    
C408  H68   S    
C218  C362  T    
C73   O32   A    
O18   Zn18  S    
C255  C315  A    
C59   O11   A    
C13   C457  S    
C35   C164  A    
C108  O108  A    
C233  C377  T    
C476  C477  A    
C70   O22   A    
C397  C402  A    
O26   Zn26  S    
C51   O3    A    
C92   O84   A    
C645  H265  S    
C503  H147  S    
C225  C369  T    
C188  C357  S    
C6    C150  A    
C123  O126  A    
C213  C357  T    
C252  C311  A    
C169  C344  S    
C658  C659  A    
C73   O25   A    
O126  Zn27  S    
C488  C489  A    
C248  C303  A    
O46   Zn33  S    
C608  H234  S    
C29   C159  A    
C248  C296  A    
C469  C474  A    
C209  C353  T    
C275  C322  A    
C489  H135  S    
O191  Zn46  S    
C273  C301  A    
C144  O189  A    
O28   Zn28  S    
O165  Zn20  S    
C455  C456  A    
C295  H7    S    
C58   O63   A    
C322  H34   S    
C92   C277  S    
C257  C309  A    
C48   C172  A    
C505  C510  A    
C428  H84   S    
C312  H24   S    
O58   Zn13  S    
C98   O151  A    
C432  H88   S    
C150  C375  S    
C132  O141  A    
C68   C261  S    
C118  O118  A    
C487  C492  A    
C530  H169  S    
O62   Zn9   S    
C448  H101  S    
C276  C321  A    
C133  O176  A    
C44   C173  A    
C175  C338  S    
C60   O61   A    
C614  H239  S    
O19   Zn19  S    
C63   C272  S    
C603  C604  A    
C32   C161  A    
C54   C271  S    
C15   C156  A    
C88   O77   A    
C18   C153  A    
O25   Zn25  S    
C395  C396  A    
C605  C606  A    
C479  H127  S    
C411  H70   S    
C22   C156  A    
C484  H131  S    
C568  C569  A    
C113  O168  A    
C585  C586  A    
C138  C229  S    
C477  C478  A    
O103  Zn5   S    
C394  H56   S    
C653  C654  A    
O104  Zn6   S    
C80   O36   A    
C387  H50   S    
C458  H109  S    
C502  C503  A    
C576  H208  S    
C523  C524  A    
C630  H253  S    
C393  H55   S    
C44   C643  S    
O78   Zn37  S    
C45   C179  A    
C10   C145  A    
C386  H49   S    
C323  H35   S    
C667  C672  A    
C38   C607  S    
C308  H20   S    
O85   Zn42  S    
C452  C453  A    
C138  O178  A    
C120  C203  S    
C456  H108  S    
C23   C517  S    
C69   C258  S    
C106  O106  A    
C663  C664  A    
C136  C238  S    
C565  C570  A    
C510  H153  S    
C110  O110  A    
C97   C202  S    
C81   O41   A    
C45   C170  A    
C656  C657  A    
C399  H60   S    
C535  C536  A    
C545  H182  S    
C513  H155  S    
C177  C352  S    
C581  C582  A    
C25   C164  A    
C190  C355  S    
C251  C302  A    
C607  C608  A    
C25   C529  S    
O162  Zn23  S    
C81   O48   A    
C494  C495  A    
C85   O80   A    
C473  H122  S    
C284  C325  A    
C14   C151  A    
O59   Zn16  S    
C461  H112  S    
C131  C224  S    
C79   C243  S    
C132  O140  A    
C151  C374  S    
C567  C568  A    
C445  C450  A    
C571  C576  A    
C586  H216  S    
C54   O51   A    
C51   C262  S    
O192  Zn45  S    
O30   Zn25  S    
C335  H47   S    
C182  C347  S    
C515  C516  A    
C579  H210  S    
C20   C189  A    
C551  C552  A    
C405  C406  A    
C141  C230  S    
C24   C185  A    
C86   O74   A    
C555  C556  A    
C652  H271  S    
C128  O132  A    
C12   C181  A    
C491  C492  A    
C244  C301  A    
C669  C670  A    
C216  C360  T    
C594  H223  S    
C4    C173  A    
C664  C665  A    
C659  H277  S    
C8    C169  A    
C289  H1    S    
C389  H52   S    
C333  H45   S    
O3    Zn3   S    
C105  O105  A    
C531  H170  S    
C109  O109  A    
C9    C184  A    
C69   O21   A    
C37   C187  A    
C601  C606  A    
C192  C353  S    
C17   C146  A    
C615  C616  A    
O147  Zn6   S    
C242  C290  A    
C288  C334  A    
C464  C465  A    
C539  H177  S    
C464  H114  S    
C2    C391  S    
C495  H140  S    
C587  H217  S    
C53   O5    A    
C113  C194  S    
C499  C500  A    
C504  H148  S    
C8    C152  A    
C326  H38   S    
C440  C441  A    
O108  Zn10  S    
C551  H187  S    
C641  C642  A    
C613  C618  A    
C123  O123  A    
C403  C408  A    
C521  C522  A    
C299  H11   S    
C493  C498  A    
C34   C165  A    
C39   C184  A    
C135  O171  A    
C584  C585  A    
C46   C177  A    
C153  C384  S    
C628  H251  S    
C19   C152  A    
C518  C519  A    
O49   Zn6   S    
C135  O174  A    
C554  C555  A    
C107  O158  A    
C274  C323  A    
C94   C280  S    
C136  O173  A    
C143  C236  S    
C130  O138  A    
C511  C516  A    
O148  Zn5   S    
C286  C332  A    
C203  C347  T    
C265  C293  A    
O8    Zn8   S    
C66   C265  S    
C523  C528  A    
C111  O154  A    
O66   Zn21  S    
C43   C192  A    
C84   O45   A    
C457  C462  A    
C493  C494  A    
C467  C468  A    
C463  C464  A    
C19   C493  S    
C222  C366  T    
C133  O169  A    
C283  C333  A    
C536  H174  S    
C54   O6    A    
C311  H23   S    
C650  C651  A    
C118  C207  S    
C86   O79   A    
C617  C618  A    
C508  H151  S    
C47   C661  S    
O74   Zn38  S    
C41   C186  A    
O123  Zn25  S    
C665  H282  S    
C580  H211  S    
O189  Zn48  S    
C93   C284  S    
C22   C511  S    
C30   C157  A    
C104  O145  A    
C632  C633  A    
C20   C155  A    
C134  C239  S    
C596  C597  A    
C481  C482  A    
O107  Zn9   S    
O91   Zn47  S    
C435  C436  A    
C249  C307  A    
C553  C554  A    
C90   O87   A    
C592  C593  A    
C446  H99   S    
O167  Zn18  S    
C388  C389  A    
C256  C300  A    
C135  C240  S    
C274  C296  A    
C590  H219  S    
O163  Zn22  S    
C170  C343  S    
C619  C624  A    
C578  H209  S    
C221  C365  T    
C583  C588  A    
C497  C498  A    
C69   O68   A    
C475  C476  A    
C129  O137  A    
C228  C372  T    
C64   C259  S    
C18   C487  S    
O106  Zn12  S    
O187  Zn45  S    
C442  H96   S    
C100  C213  S    
O164  Zn21  S    
C430  H86   S    
C129  O144  A    
C130  C222  S    
C418  C419  A    
O171  Zn37  S    
O181  Zn44  S    
C434  C435  A    
C613  C614  A    
C9    C433  S    
C444  H98   S    
C85   O73   A    
O116  Zn18  S    
C665  C666  A    
C104  O104  A    
O83   Zn43  S    
C474  H123  S    
C142  O191  A    
C604  C605  A    
O73   Zn37  S    
C547  C552  A    
O137  Zn35  S    
C429  H85   S    
C131  O142  A    
C196  C340  T    
C668  C669  A    
O64   Zn11  S    
C134  O175  A    
C593  H222  S    
C280  C332  A    
C123  C228  S    
O150  Zn3   S    
O153  Zn16  S    
C57   O9    A    
C560  H194  S    
C99   C208  S    
C160  C365  S    
C542  C543  A    
O174  Zn39  S    
C401  C402  A    
O101  Zn7   S    
O157  Zn12  S    
C519  C520  A    
C626  C627  A    
C438  H93   S    
O179  Zn41  S    
C60   C253  S    
C49   O1    A    
O24   Zn24  S    
C404  C405  A    
C549  C550  A    
C623  C624  A    
C634  C635  A    
C524  H164  S    
C14   C463  S    
C400  C401  A    
C75   C249  S    
C76   C251  S    
C3    C397  S    
C278  C326  A    
C12   C451  S    
C436  C437  A    
O37   Zn30  S    
C41   C625  S    
C412  H71   S    
C670  C671  A    
C111  C214  S    
C48   C181  A    
C397  C398  A    
C100  O149  A    
O33   Zn29  S    
C526  C527  A    
C417  H75   S    
C163  C362  S    
C409  C410  A    
O29   Zn26  S    
C296  H8    S    
C433  C434  A    
C7    C421  S    
C662  C663  A    
O141  Zn36  S    
C476  H124  S    
O138  Zn36  S    
C605  H232  S    
C247  C295  A    
C643  C648  A    
C22   C187  A    
C332  H44   S    
C393  C394  A    
O87   Zn44  S    
C421  C422  A    
C245  C293  A    
C147  C378  S    
O115  Zn17  S    
C14   C179  A    
C126  C217  S    
C127  C223  S    
C276  C290  A    
C483  H130  S    
C309  H21   S    
C43   C637  S    
C419  C420  A    
C74   C250  S    
C174  C339  S    
C6    C171  A    
C31   C163  A    
C178  C351  S    
C89   C283  S    
C58   C257  S    
C279  C327  A    
C65   C260  S    
C415  C416  A    
C410  C411  A    
C5    C409  S    
C416  C417  A    
C427  C432  A    
C72   C267  S    
O17   Zn17  S    
C524  C525  A    
C285  C335  A    
C31   C166  A    
C142  C234  S    
C56   C275  S    
C82   C244  S    
C87   O75   A    
C100  O100  A    
C482  C483  A    
C25   C157  A    
C10   C439  S    
C140  O180  A    
C329  H41   S    
C532  C533  A    
C280  C328  A    
C609  H235  S    
C200  C344  T    
C87   O78   A    
C439  C440  A    
C572  C573  A    
C2    C146  A    
C38   C185  A    
C115  C200  S    
C606  H233  S    
O43   Zn35  S    
C517  C522  A    
C117  C196  S    
C268  C317  A    
C550  H186  S    
C204  C348  T    
C544  C545  A    
C74   O31   A    
O10   Zn10  S    
C509  H152  S    
C59   O62   A    
O50   Zn5   S    
O20   Zn20  S    
C116  O165  A    
C643  C644  A    
C37   C601  S    
C534  H173  S    
O190  Zn47  S    
C636  H258  S    
O149  Zn4   S    
C647  C648  A    
O39   Zn32  S    
C284  C330  A    
C640  C641  A    
O76   Zn40  S    
C443  H97   S    
C91   O86   A    
C453  C454  A    
C65   O72   A    
C509  C510  A    
C458  C459  A    
C501  C502  A    
C595  C596  A    
C598  H226  S    
C556  H191  S    
C40   C180  A    
C43   C175  A    
C569  C570  A    
C80   O37   A    
C68   O69   A    
C622  H246  S    
C102  O147  A    
C49   O56   A    
O134  Zn31  S    
C610  C611  A    
C165  C372  S    
O7    Zn7   S    
C460  H111  S    
C422  C423  A    
C24   C154  A    
C385  C386  A    
C496  H141  S    
C577  C582  A    
O125  Zn28  S    
O47   Zn36  S    
C538  C539  A    
C112  C195  S    
C317  H29   S    
C268  C306  A    
C176  C337  S    
C70   C263  S    
C563  H197  S    
C516  H158  S    
O136  Zn29  S    
C472  H121  S    
C139  C235  S    
C140  C233  S    
O72   Zn19  S    
C33   C158  A    
O119  Zn21  S    
C57   C276  S    
C571  C572  A    
C413  H72   S    
C655  C656  A    
C515  H157  S    
C447  H100  S    
C124  O124  A    
C557  C558  A    
O95   Zn48  S    
C555  H190  S    
C102  O102  A    
C67   O19   A    
C487  C488  A    
C241  C289  A    
C259  C314  A    
C48   C667  S    
C661  C662  A    
C185  C360  S    
C82   O47   A    
C546  H183  S    
C31   C565  S    
C128  O133  A    
C275  C297  A    
O41   Zn33  S    
C52   O4    A    
C389  C390  A    
C637  C638  A    
C202  C346  T    
C259  C305  A    
C644  C645  A    
C125  O136  A    
C597  C598  A    
C159  C366  S    
C115  O115  A    
O166  Zn19  S    
C671  C672  A    
C625  C630  A    
C80   C241  S    
C84   C246  S    
C466  H116  S    
C217  C361  T    
C108  C197  S    
C195  C339  T    
C252  C304  A    
O90   Zn46  S    
C451  C456  A    
C93   O96   A    
C287  C333  A    
C17   C481  S    
C242  C299  A    
C98   C209  S    
C627  C628  A    
C589  C594  A    
C454  H106  S    
O132  Zn30  S    
C96   O92   A    
C103  O146  A    
C270  C294  A    
C255  C311  A    
C3    C174  A    
C562  C563  A    
C35   C168  A    
C633  H255  S    
C521  H162  S    
C161  C364  S    
C500  H144  S    
C139  O182  A    
O111  Zn13  S    
C142  O186  A    
C21   C188  A    
C261  C291  A    
C575  H207  S    
C34   C162  A    
C128  C221  S    
C207  C351  T    
C8    C427  S    
C13   C180  A    
C145  C380  S    
C92   O85   A    
C38   C182  A    
C61   O13   A    
C608  C609  A    
C506  H149  S    
C199  C343  T    
C631  C632  A    
C5    C172  A    
C114  O114  A    
C545  C546  A    
C16   C475  S    
C290  H2    S    
C616  H241  S    
C334  H46   S    
C263  C295  A    
C164  C361  S    
C116  O116  A    
C122  O122  A    
C548  C549  A    
C265  C320  A    
C428  C429  A    
C559  C560  A    
O31   Zn28  S    
C558  H193  S    
C536  C537  A    
C97   O152  A    
C154  C383  S    
C617  H242  S    
C530  C531  A    
C561  H195  S    
C566  C567  A    
C253  C313  A    
C448  C449  A    
C478  C479  A    
O88   Zn43  S    
C541  C546  A    
O13   Zn13  S    
C15   C469  S    
C72   O65   A    
C40   C189  A    
C614  C615  A    
O1    Zn1   S    
O117  Zn23  S    
C157  C368  S    
C235  C379  T    
C403  C404  A    
C574  H206  S    
C90   C281  S    
C328  H40   S    
C149  C376  S    
O65   Zn22  S    
C227  C371  T    
C463  C468  A    
C91   O83   A    
C479  C480  A    
C411  C412  A    
C484  C485  A    
C88   C287  S    
C459  C460  A    
C490  H136  S    
C246  C297  A    
C420  H78   S    
C36   C167  A    
C77   O40   A    
C277  C325  A    
C477  H125  S    
C394  C395  A    
C230  C374  T    
C103  O103  A    
C271  C323  A    
C126  O135  A    
C261  C317  A    
C424  H81   S    
C62   O14   A    
O70   Zn17  S    
C211  C355  T    
C666  H283  S    
O81   Zn41  S    
C7    C151  A    
C126  O130  A    
C520  H161  S    
O11   Zn11  S    
C646  C647  A    
C507  C508  A    
C582  H213  S    
C386  C387  A    
C557  H192  S    
C602  C603  A    
C452  H104  S    
C12   C149  A    
C431  H87   S    
C121  O121  A    
C514  C515  A    
C668  H284  S    
C78   O34   A    
C45   C649  S    
C525  C526  A    
C181  C348  S    
C399  C400  A    
O129  Zn31  S    
C628  C629  A    
C64   O16   A    
C141  O192  A    
O177  Zn43  S    
C239  C383  T    
C94   O90   A    
C173  C340  S    
C513  C514  A    
O36   Zn32  S    
C527  H167  S    
C198  C342  T    
C407  H67   S    
C607  C612  A    
O173  Zn40  S    
C56   O8    A    
C625  C626  A    
C171  C342  S    
C231  C375  T    
C543  H180  S    
C108  O157  A    
C629  C630  A    
C70   O67   A    
C461  C462  A    
C95   O91   A    
C490  C491  A    
C137  C231  S    
C229  C373  T    
C201  C345  T    
C540  H178  S    
C223  C367  T    
C392  C393  A    
C129  C218  S    
C567  H200  S    
C586  C587  A    
C398  C399  A    
C95   O94   A    
C648  H268  S    
C13   C155  A    
C503  C504  A    
C471  H120  S    
C244  C292  A    
C549  H185  S    
C529  C534  A    
C634  H256  S    
O113  Zn19  S    
C294  H6    S    
C505  C506  A    
C390  H53   S    
O82   Zn42  S    
C491  H137  S    
O57   Zn14  S    
C191  C354  S    
C125  O129  A    
C669  H285  S    
O5    Zn5   S    
O61   Zn10  S    
C267  C289  A    
C659  C660  A    
C441  H95   S    
O12   Zn12  S    
C573  H205  S    
C46   C655  S    
C313  H25   S    
C96   C282  S    
C657  H275  S    
O16   Zn16  S    
C498  H143  S    
C472  C473  A    
C42   C631  S    
C287  C331  A    
C305  H17   S    
C406  H66   S    
O105  Zn11  S    
C264  C320  A    
C125  C219  S    
C34   C583  S    
C402  H63   S    
O146  Zn7   S    
C93   O89   A    
O93   Zn46  S    
C264  C308  A    
C481  C486  A    
C115  O166  A    
C101  C204  S    
C495  C496  A    
C465  H115  S    
C27   C541  S    
C533  H172  S    
C122  C227  S    
C279  C334  A    
C36   C160  A    
C19   C190  A    
C620  C621  A    
O45   Zn34  S    
C156  C381  S    
C139  O179  A    
C641  H262  S    
O77   Zn38  S    
C15   C178  A    
C645  C646  A    
C532  H171  S    
C103  C206  S    
C127  O131  A    
C572  H204  S    
C573  C574  A    
C584  H214  S    
C206  C350  T    
C654  H273  S    
O99   Zn1   S    
C179  C350  S    
C78   C245  S    
C5    C149  A    
C106  O159  A    
C127  O134  A    
C638  C639  A    
C186  C359  S    
C314  H26   S    
C437  H92   S    
C449  C450  A    
C71   O66   A    
C110  O155  A    
C260  C313  A    
C46   C174  A    
O118  Zn24  S    
O143  Zn34  S    
C245  C308  A    
C286  C336  A    
C306  H18   S    
C624  H248  S    
C469  C470  A    
C63   O58   A    
C301  H13   S    
C86   C286  S    
O140  Zn34  S    
C436  H91   S    
C226  C370  T    
O94   Zn45  S    
C130  O143  A    
C112  O112  A    
C258  C304  A    
C246  C294  A    
C105  C210  S    
O151  Zn2   S    
C316  H28   S    
C598  C599  A    
O89   Zn45  S    
C270  C322  A    
O42   Zn34  S    
C79   O35   A    
C210  C354  T    
C236  C380  T    
C53   O52   A    
C75   O30   A    
C293  H5    S    
C212  C356  T    
O161  Zn24  S    
O14   Zn14  S    
C585  H215  S    
C79   O38   A    
C580  C581  A    
O2    Zn2   S    
C603  H230  S    
C194  C338  T    
C77   O33   A    
C596  H224  S    
C599  H227  S    
C538  H176  S    
C184  C345  S    
C435  H90   S    
O185  Zn47  S    
O145  Zn8   S    
C26   C158  A    
C65   O17   A    
C66   O71   A    
C330  H42   S    
O86   Zn41  S    
C172  C341  S    
C119  O119  A    
C180  C349  S    
C197  C341  T    
C99   O99   A    
C119  O162  A    
C30   C559  S    
C653  H272  S    
C3    C147  A    
O144  Zn33  S    
C119  C198  S    
C497  H142  S    
C387  C388  A    
C50   O55   A    
O54   Zn1   S    
C166  C371  S    
C41   C171  A    
C618  H243  S    
O128  Zn25  S    
C437  C438  A    
O75   Zn39  S    
C450  H103  S    
C482  H129  S    
C28   C160  A    
C304  H16   S    
C141  O185  A    
C430  C431  A    
C418  H76   S    
C118  O163  A    
C565  C566  A    
C71   O23   A    
C569  H202  S    
C272  C324  A    
C385  C390  A    
C421  C426  A    
C9    C153  A    
O96   Zn47  S    
C133  C237  S    
C262  C310  A    
C63   O15   A    
C604  H231  S    
O121  Zn27  S    
C547  C548  A    
C61   C274  S    
O122  Zn28  S    
C55   C264  S    
C21   C148  A    
C105  O160  A    
C33   C577  S    
C55   O7    A    
O51   Zn8   S    
C109  O156  A    
C473  C474  A    
C132  C220  S    
C36   C595  S    
C457  C458  A    
C2    C175  A    
C58   O10   A    
O183  Zn42  S    
O169  Zn39  S    
C251  C305  A    
C413  C414  A    
C281  C328  A    
C542  H179  S    
O35   Zn31  S    
C401  H62   S    
C637  C642  A    
C101  O101  A    
C50   O2    A    
C44   C188  A    
C331  H43   S    
C552  H188  S    
C24   C523  S    
C579  C580  A    
C391  C392  A    
C404  H64   S    
C67   C254  S    
O124  Zn26  S    
C98   O98   A    
C83   O46   A    
O38   Zn29  S    
C652  C653  A    
C672  H288  S    
C168  C369  S    
O133  Zn32  S    
C528  H168  S    
C60   O12   A    
C417  C418  A    
C409  C414  A    
C238  C382  T    
O127  Zn26  S    
C537  H175  S    
C633  C634  A    
C64   O57   A    
C543  C544  A    
C321  H33   S    
C425  C426  A    
C96   O93   A    
O182  Zn43  S    
C531  C532  A    
C10   C183  A    
C85   C288  S    
O40   Zn31  S    
C651  C652  A    
C310  H22   S    
C601  C602  A    
C16   C147  A    
C205  C349  T    
C486  H133  S    
C638  H259  S    
C240  C384  T    
C396  H58   S    
C539  C540  A    
C423  H80   S    
C415  C420  A    
C587  C588  A    
C232  C376  T    
C616  C617  A    
C499  C504  A    
O160  Zn9   S    
O71   Zn20  S    
C661  C666  A    
C649  C654  A    
O135  Zn30  S    
C327  H39   S    
C20   C499  S    
C224  C368  T    
C81   C248  S    
C152  C373  S    
C395  H57   S    
C11   C182  A    
C162  C363  S    
C454  C455  A    
C247  C312  A    
C18   C191  A    
C57   O64   A    
C541  C542  A    
C257  C316  A    
O48   Zn35  S    
C621  C622  A    
C285  C330  A    
C609  C610  A    
C533  C534  A    
C114  O167  A    
C566  H199  S    
C660  H278  S    
C621  H245  S    
C42   C169  A    
C208  C352  T    
O32   Zn27  S    
C52   C269  S    
C146  C379  S    
C140  O181  A    
C656  H274  S    
O84   Zn44  S    
C470  H119  S    
C52   O53   A    
C518  H159  S    
C144  O188  A    
C113  O113  A    
C639  C640  A    
C84   O44   A    
C258  C315  A    
C144  C232  S    
C511  C512  A    
C124  C226  S    
C468  H118  S    
C459  H110  S    
C512  C513  A    
C193  C337  T    
C588  H218  S    
C88   O76   A    
O155  Zn14  S    
O100  Zn2   S    
C148  C377  S    
C620  H244  S    
C260  C298  A    
O186  Zn48  S    
C568  H201  S    
C50   C273  S    
C658  H276  S    
C424  C425  A    
C467  H117  S    
C6    C415  S    
C120  O120  A    
C32   C167  A    
C143  O187  A    
O68   Zn23  S    
C75   O27   A    
C520  C521  A    
C414  H73   S    
C101  O148  A    
C158  C367  S    
C508  C509  A    
C622  C623  A    
C485  C486  A    
C143  O190  A    
C610  H236  S    
C292  H4    S    
C635  H257  S    
O188  Zn46  S    
C496  C497  A    
C53   C266  S    
C90   O82   A    
C577  C578  A    
O112  Zn14  S    
C507  H150  S    
C107  O107  A    
C107  C216  S    
C544  H181  S    
C78   O39   A    
C318  H30   S    
C407  C408  A    
C109  C212  S    
C480  H128  S    
C297  H9    S    
C116  C205  S    
C1    C385  S    
C592  H221  S    
O69   Zn18  S    
C388  H51   S    
C94   O95   A    
C563  C564  A    
O130  Zn32  S    
C106  C193  S    
C254  C314  A    
C590  C591  A    
C619  C620  A    
C443  C444  A    
C639  H260  S    
C502  H146  S    
C655  C660  A    
C241  C310  A    
C589  C590  A    
C320  H32   S    
C447  C448  A    
O175  Zn38  S    
O27   Zn27  S    
C35   C589  S    
O139  Zn33  S    
C250  C300  A    
C667  C668  A    
C269  C299  A    
C16   C177  A    
O180  Zn42  S    
C434  H89   S    
C124  O125  A    
C110  C199  S    
C492  H138  S    
C441  C442  A    
C167  C370  S    
C262  C318  A    
C578  C579  A    
C28   C547  S    
C581  H212  S    
C272  C292  A    
C644  H264  S    
C649  C650  A    
C647  H267  S    
C215  C359  T    
C629  H252  S    
C237  C381  T    
C429  C430  A    
C406  C407  A    
C325  H37   S    
C71   C256  S    
C102  C215  S    
C89   O81   A    
C593  C594  A    
C104  C211  S    
C488  H134  S    
C59   C270  S    
C117  O117  A    
