data_mof_unit_35797.cif
_audit_creation_date              2012-10-26T19:04:58-0400
_audit_creation_method            fapswitch 2.2
_symmetry_space_group_name_H-M    P1
_symmetry_Int_Tables_number       1
_space_group_crystal_system       triclinic
_cell_length_a                    15.879911
_cell_length_b                    10.779742
_cell_length_c                    9.615058
_cell_angle_alpha                 90.04265
_cell_angle_beta                  90.053896
_cell_angle_gamma                 92.534343
_cell_volume                      1644.30743218

loop_
_atom_site_label
_atom_site_type_symbol
_atom_type_description
_atom_site_fract_x
_atom_site_fract_y
_atom_site_fract_z
_atom_type_partial_charge
C1    C     C_R   0.497146 0.262617 0.499985 0.540325
C2    C     C_R   0.299713 0.051510 0.715050 -0.129177
C3    C     C_R   0.299840 0.922504 0.715257 -0.124611
C4    C     C_R   0.340355 0.499665 0.500009 0.534473
C5    C     C_R   0.362804 0.861677 0.645103 -0.100793
C6    C     C_R   0.427981 0.929698 0.574722 0.029403
C7    C     C_R   0.427835 0.060937 0.574525 0.025418
C8    C     C_R   0.491451 0.128423 0.499794 0.001435
C9    C     C_R   0.551120 0.067362 0.421981 -0.148013
C10   C     C_R   0.551263 0.939373 0.422128 -0.155201
C11   C     C_R   0.491729 0.870516 0.500080 0.006084
C12   C     C_3   0.949106 0.423089 0.623486 -0.208448
C13   C     C_R   0.611665 0.665575 0.144038 -0.081411
C14   C     C_R   0.665982 0.746854 0.072083 -0.172273
C15   C     C_R   0.665970 0.746884 0.928778 -0.167940
C16   C     C_R   0.497527 0.737083 0.500051 0.522551
C17   C     C_R   0.611618 0.665666 0.856490 -0.079458
C18   C     C_R   0.554781 0.581478 0.925388 0.158180
C19   C     C_R   0.554790 0.581425 0.074858 0.160232
C20   C     C_R   0.447881 0.422471 0.073680 -0.000876
C21   C     C_R   0.447895 0.422501 0.925910 -0.000631
C22   C     C_R   0.659650 0.500427 0.500010 0.536795
C23   C     C_3   0.917180 0.499533 0.498867 0.104423
C24   C     C_3   0.046560 0.420479 0.621196 -0.221409
C25   C     C_3   0.047884 0.444202 0.360896 -0.201976
C26   C     C_3   0.949731 0.445112 0.359365 0.010757
C27   C     C_1   0.749353 0.500648 0.500090 -0.029178
C28   C     C_3   0.082909 0.499781 0.499062 0.060007
C29   C     C_3   0.955168 0.633986 0.513674 -0.248337
C30   C     C_3   0.052813 0.633990 0.514262 -0.223477
C31   C     C_1   0.824920 0.500463 0.499794 -0.037082
C32   C     C_1   0.175103 0.499996 0.499714 -0.079086
C33   C     C_1   0.250671 0.499898 0.499933 -0.044967
C34   C     C_R   0.362526 0.120510 0.644630 -0.111406
Cu1   Cu    Cu3+1 0.499990 0.499990 0.640660 0.914809
Cu2   Cu    Cu3+1 0.500010 0.500010 0.359340 0.928963
H1    H     H_    0.921123 0.326749 0.621489 0.123478
H2    H     H_    0.599341 0.893788 0.363567 0.108484
H3    H     H_    0.405126 0.358831 0.128567 0.116456
H4    H     H_    0.065724 0.322839 0.610556 0.108345
H5    H     H_    0.617318 0.672941 0.253644 0.175979
H6    H     H_    0.708575 0.810160 0.128286 0.110941
H7    H     H_    0.708579 0.810189 0.872851 0.115438
H8    H     H_    0.617211 0.673069 0.746873 0.181454
H9    H     H_    0.405149 0.358872 0.870747 0.111023
H10   H     H_    0.073373 0.499690 0.271560 0.095881
H11   H     H_    0.069934 0.348337 0.347384 0.115264
H12   H     H_    0.072370 0.456642 0.721744 0.112269
H13   H     H_    0.930527 0.507328 0.273468 0.133597
H14   H     H_    0.077299 0.675806 0.613019 0.116117
H15   H     H_    0.078122 0.692760 0.427420 0.115561
H16   H     H_    0.932918 0.676514 0.611797 0.111983
H17   H     H_    0.926992 0.295925 0.229826 0.218677
H18   H     H_    0.937764 0.255765 0.397375 0.227953
H19   H     H_    0.928687 0.465416 0.722872 0.107111
H20   H     H_    0.933649 0.692460 0.426298 0.101749
H21   H     H_    0.599083 0.119310 0.363314 0.133317
H22   H     H_    0.358117 0.220269 0.643567 0.124881
H23   H     H_    0.250076 0.098339 0.768109 0.102019
H24   H     H_    0.250290 0.869216 0.768459 0.106259
H25   H     H_    0.358613 0.761385 0.644579 0.143633
N1    N     N_R   0.500800 0.501210 0.147910 -0.242174
N2    N     N_R   0.500820 0.501290 0.852040 -0.242300
N3    N     N_3   0.911640 0.320955 0.331521 -0.640727
O1    O     O_R   0.499990 0.319640 0.618810 -0.498313
O2    O     O_R   0.500000 0.319660 0.381240 -0.496785
O3    O     O_R   0.379430 0.499990 0.618840 -0.511310
O4    O     O_R   0.379440 0.500020 0.381260 -0.491551
O5    O     O_R   0.500000 0.680340 0.618760 -0.526601
O6    O     O_R   0.500010 0.680360 0.381190 -0.515088
O7    O     O_R   0.620560 0.499980 0.618740 -0.511541
O8    O     O_R   0.620570 0.500010 0.381160 -0.509585

loop_
_geom_bond_atom_site_label_1
_geom_bond_atom_site_label_2
_ccdc_geom_bond_type
C17   C18   A    
C4    O3    A    
C1    O1    A    
C30   H15   S    
Cu2   O4    S    
Cu1   N2    S    
C6    C7    A    
C29   H20   S    
C1    C8    S    
C24   C28   S    
C9    C10   A    
C25   H11   S    
C21   H9    S    
Cu1   Cu2   S    
Cu1   O3    S    
C10   H2    S    
C32   C33   T    
C2    C34   A    
C28   C30   S    
C2    C3    A    
C30   H14   S    
C17   H8    S    
C15   H7    S    
C7    C8    A    
C13   C14   A    
C3    H24   S    
C25   C28   S    
C34   H22   S    
C12   C23   S    
C29   C30   S    
H18   N3    S    
Cu2   N1    S    
C23   C29   S    
C13   H5    S    
C24   H4    S    
Cu2   O6    S    
C25   H10   S    
C1    O2    A    
C9    H21   S    
C22   C27   S    
C6    C11   A    
C20   N1    A    
C5    C6    A    
C7    C34   A    
Cu2   O2    S    
C18   N2    A    
C21   N2    A    
C12   H19   S    
C10   C11   A    
Cu1   O1    S    
C19   N1    A    
Cu1   O7    S    
C24   H12   S    
Cu2   O8    S    
C22   O7    A    
C28   C32   S    
C16   O6    A    
C20   C21   A    
Cu1   O5    S    
C4    O4    A    
C18   C19   A    
C11   C16   S    
C23   C26   S    
C22   O8    A    
C12   H1    S    
C15   C17   A    
C20   H3    S    
C12   C24   S    
C2    H23   S    
C13   C19   A    
C26   N3    S    
C4    C33   S    
C25   C26   S    
C14   C15   A    
C14   H6    S    
C27   C31   T    
H17   N3    S    
C16   O5    A    
C5    H25   S    
C23   C31   S    
C8    C9    A    
C3    C5    A    
C29   H16   S    
C26   H13   S    
