data_mof_unit_34372.cif
_audit_creation_date              2012-12-11T14:15:23-0500
_audit_creation_method            fapswitch 2.2
_symmetry_space_group_name_H-M    P1
_symmetry_Int_Tables_number       1
_space_group_crystal_system       triclinic
_cell_length_a                    11.161264
_cell_length_b                    12.710723
_cell_length_c                    23.541795
_cell_angle_alpha                 90.523432
_cell_angle_beta                  96.726286
_cell_angle_gamma                 68.526634
_cell_volume                      3084.5468958

loop_
_atom_site_label
_atom_site_type_symbol
_atom_type_description
_atom_site_fract_x
_atom_site_fract_y
_atom_site_fract_z
_atom_type_partial_charge
C1    C     C_R   0.149435 0.616756 0.428833 0.546835
C2    C     C_R   0.633341 0.572453 0.312915 0.091785
C3    C     C_R   0.712105 0.728580 0.319026 -0.157683
C4    C     C_R   0.699172 0.737658 0.259533 0.031552
C5    C     C_R   0.664705 0.656753 0.227599 0.019732
C6    C     C_R   0.660633 0.658857 0.169075 -0.116030
C7    C     C_R   0.699282 0.834572 0.171177 -0.131296
C8    C     C_R   0.721297 0.824416 0.231055 -0.132405
C9    C     C_1   0.235675 0.162370 0.123000 -0.000680
C10   C     C_2   0.181066 0.232870 0.226578 -0.120575
C11   C     C_2   0.155777 0.165179 0.262959 -0.120270
C12   C     C_R   0.747481 0.605123 0.404517 0.564286
C13   C     C_1   0.132769 0.198993 0.320669 -0.045212
C14   C     C_1   0.210364 0.197237 0.169725 -0.045507
C15   C     C_1   0.116313 0.232200 0.368413 -0.000136
C16   C     C_1   0.167546 0.749824 0.123700 -0.004535
C17   C     C_2   0.142877 0.688076 0.227814 -0.125307
C18   C     C_2   0.234932 0.679091 0.271682 -0.134171
C19   C     C_1   0.216837 0.654068 0.329193 -0.050182
C20   C     C_1   0.155335 0.720508 0.170705 -0.048017
C21   C     C_1   0.193552 0.635416 0.376126 0.003230
C22   C     C_1   0.628668 0.756792 0.865023 -0.003085
C23   C     C_R   0.101199 0.282392 0.423346 0.543470
C24   C     C_2   0.700174 0.713550 0.761260 -0.121896
C25   C     C_2   0.615492 0.699548 0.719344 -0.121381
C26   C     C_1   0.653434 0.667777 0.663234 -0.045536
C27   C     C_1   0.664440 0.738145 0.818253 -0.045509
C28   C     C_1   0.691524 0.639060 0.617551 -0.001393
C29   C     C_R   0.195339 0.178735 0.854391 0.017813
C30   C     C_R   0.105617 0.238538 0.642647 0.022340
C31   C     C_R   0.043263 0.136841 0.712343 -0.131059
C32   C     C_R   0.041758 0.166909 0.655413 -0.132990
C33   C     C_R   0.164698 0.284894 0.686194 -0.114370
C34   C     C_R   0.149953 0.616605 0.590768 0.544049
C35   C     C_R   0.165939 0.256453 0.742612 0.044725
C36   C     C_R   0.106778 0.180255 0.756019 0.043674
C37   C     C_R   0.119233 0.143895 0.812503 -0.124908
C38   C     C_R   0.246606 0.259627 0.841471 -0.128164
C39   C     C_R   0.230488 0.299581 0.785579 -0.134022
C40   C     C_R   0.128368 0.746714 0.851845 0.049636
C41   C     C_R   0.190929 0.636765 0.649368 0.010213
C42   C     C_R   0.306419 0.559849 0.741923 -0.154663
C43   C     C_R   0.294215 0.554272 0.682585 -0.147553
C44   C     C_R   0.105552 0.728428 0.675432 -0.118400
C45   C     C_R   0.750010 0.602189 0.566107 0.545011
C46   C     C_R   0.110991 0.730170 0.734135 0.022850
C47   C     C_R   0.212430 0.645783 0.768459 0.052253
C48   C     C_R   0.218234 0.651889 0.828216 0.093105
C49   C     C_R   0.020558 0.821258 0.817068 -0.164881
C50   C     C_R   0.012681 0.813671 0.758466 -0.165776
C51   C     C_R   0.265783 0.109960 0.069452 0.543879
C52   C     C_R   0.600022 0.774581 0.081343 0.541717
C53   C     C_R   0.189647 0.787810 0.069825 0.544537
C54   C     C_R   0.240825 0.114689 0.907855 0.544292
C55   C     C_R   0.573813 0.776489 0.918147 0.544317
C56   C     C_R   0.099717 0.279687 0.585231 0.538663
C57   C     C_R   0.163748 0.785833 0.907410 0.562338
C58   C     C_R   0.664884 0.752949 0.140089 0.009204
C59   C     C_R   0.687517 0.641239 0.345924 0.046121
C60   C     C_R   0.626920 0.578138 0.253871 -0.137444
Cr1   Cr    Cr6+3 0.189770 0.415650 0.511620 1.030301
Cr2   Cr    Cr6+3 0.930400 0.667320 0.496770 1.018882
Cr3   Cr    Cr6+3 0.879870 0.417010 0.491650 1.041647
Cr4   Cr    Cr6+3 0.149500 0.973980 0.985330 1.024204
Cr5   Cr    Cr6+3 0.457000 0.976510 0.994660 1.030485
Cr6   Cr    Cr6+3 0.411170 0.724270 0.995270 1.040404
H1    H     H_    0.637665 0.592936 0.146082 0.137236
H2    H     H_    0.055124 0.674364 0.234898 0.141788
H3    H     H_    0.518404 0.708522 0.727458 0.142047
H4    H     H_    0.797703 0.703476 0.753354 0.143394
H5    H     H_    0.080548 0.080486 0.822813 0.125283
H6    H     H_    0.304999 0.286817 0.874008 0.123908
H7    H     H_    0.997037 0.078748 0.722160 0.106665
H8    H     H_    0.275045 0.358547 0.775457 0.104375
H9    H     H_    0.992359 0.133997 0.621581 0.115700
H10   H     H_    0.209268 0.344280 0.676120 0.128249
H11   H     H_    0.703142 0.907936 0.149605 0.132506
H12   H     H_    0.948153 0.892093 0.834647 0.140926
H13   H     H_    0.386778 0.494495 0.766429 0.105200
H14   H     H_    0.932271 0.875968 0.732100 0.109919
H15   H     H_    0.361223 0.482798 0.662987 0.130614
H16   H     H_    0.026186 0.793967 0.650181 0.133434
H17   H     H_    0.592228 0.520884 0.228628 0.106284
H18   H     H_    0.747708 0.887557 0.254955 0.114014
H19   H     H_    0.749019 0.784657 0.344058 0.130336
H20   H     H_    0.155122 0.083123 0.249978 0.138578
H21   H     H_    0.182547 0.314583 0.239756 0.137156
H22   H     H_    0.322129 0.693974 0.264883 0.140879
O1    O     O_R   0.196340 0.303200 0.448500 -0.504695
O2    O     O_R   0.811960 0.658090 0.547150 -0.497014
O3    O     O_R   0.757930 0.506140 0.547110 -0.504644
O4    O     O_R   0.988670 0.321620 0.556040 -0.498258
O5    O     O_3   0.000020 0.499990 0.500010 -0.252821
O6    O     O_R   0.113660 0.883270 0.047820 -0.507492
O7    O     O_R   0.186930 0.068530 0.043990 -0.494752
O8    O     O_R   0.377770 0.089040 0.054220 -0.509408
O9    O     O_R   0.562800 0.872960 0.056970 -0.498436
O10   O     O_R   0.555390 0.700940 0.062700 -0.524122
O11   O     O_R   0.295020 0.731920 0.049950 -0.495150
O12   O     O_R   0.199310 0.519670 0.454880 -0.490210
O13   O     O_R   0.094290 0.884230 0.921550 -0.534691
O14   O     O_R   0.168980 0.069410 0.926940 -0.506243
O15   O     O_R   0.358400 0.089990 0.927950 -0.511776
O16   O     O_R   0.544850 0.873850 0.939920 -0.492302
O17   O     O_R   0.536020 0.701900 0.936430 -0.507268
O18   O     O_R   0.277070 0.732810 0.932890 -0.459978
O19   O     O_3   0.339220 0.891590 0.991750 -0.252048
O20   O     O_R   0.045660 0.691380 0.441680 -0.511170
O21   O     O_R   0.811930 0.659460 0.430950 -0.518278
O22   O     O_R   0.757900 0.507620 0.421760 -0.469495
O23   O     O_R   0.988630 0.322990 0.439840 -0.496378
O24   O     O_R   0.196380 0.301720 0.573850 -0.519956
O25   O     O_R   0.199350 0.518300 0.571080 -0.503645
O26   O     O_R   0.045700 0.689900 0.567030 -0.522602
N1    N     N_3   0.316767 0.566113 0.865026 -0.607589
H23   H     H_    0.407878 0.563368 0.856770 0.239693
H24   H     H_    0.309034 0.487977 0.856201 0.211239
N2    N     N_3   0.591381 0.492554 0.339084 -0.592713
H25   H     H_    0.494190 0.510340 0.323436 0.225636
H26   H     H_    0.645443 0.411728 0.326259 0.235562

loop_
_geom_bond_atom_site_label_1
_geom_bond_atom_site_label_2
_ccdc_geom_bond_type
C1    C21   S    
C3    H19   S    
C6    C58   A    
C35   C36   A    
C9    C51   S    
C24   C27   S    
Cr6   O19   S    
C4    C8    A    
C32   H9    S    
C12   O22   A    
C2    N2    S    
C24   H4    S    
C7    C8    A    
C53   O11   A    
C34   O25   A    
Cr4   O14   S    
C55   O17   A    
C36   C37   A    
C19   C21   T    
Cr2   O26   S    
C44   H16   S    
C38   C39   A    
C60   H17   S    
Cr1   O5    S    
C31   H7    S    
Cr2   O20   S    
C29   C54   S    
C11   H20   S    
C40   C49   A    
C52   O9    A    
C17   C20   S    
C49   H12   S    
C18   C19   S    
C39   H8    S    
N2    H25   S    
C16   C53   S    
C12   C59   S    
Cr5   O8    S    
C31   C32   A    
C44   C46   A    
N1    H24   S    
C29   C38   A    
C23   O1    A    
C7    C58   A    
C5    C60   A    
C51   O8    A    
C7    H11   S    
C15   C23   S    
C57   O18   A    
C42   H13   S    
C41   C43   A    
C34   C41   S    
Cr6   O18   S    
C1    O12   A    
C12   O21   A    
Cr1   O1    S    
Cr4   O13   S    
C10   H21   S    
C38   H6    S    
C28   C45   S    
C54   O15   A    
C24   C25   D    
C10   C14   S    
C2    C59   A    
C25   C26   S    
C30   C56   S    
C55   O16   A    
C18   H22   S    
Cr6   O11   S    
Cr3   O4    S    
C35   C39   A    
C9    C14   T    
C33   H10   S    
C47   C48   A    
C16   C20   T    
C17   C18   D    
C45   O2    A    
C52   C58   S    
C48   N1    S    
C6    H1    S    
C22   C27   T    
C37   H5    S    
Cr1   O25   S    
C43   H15   S    
C41   C44   A    
Cr1   O12   S    
C25   H3    S    
C42   C43   A    
Cr5   O15   S    
Cr6   O17   S    
C29   C37   A    
C3    C4    A    
C23   O23   A    
Cr4   O19   S    
C40   C48   A    
C46   C50   A    
C46   C47   A    
C17   H2    S    
C40   C57   S    
C30   C33   A    
C53   O6    A    
C8    H18   S    
C54   O14   A    
Cr4   O7    S    
C4    C5    A    
C50   H14   S    
C22   C55   S    
C34   O26   A    
C57   O13   A    
Cr3   O5    S    
C26   C28   T    
Cr6   O10   S    
Cr3   O22   S    
C13   C15   T    
Cr4   O6    S    
C30   C32   A    
C11   C13   S    
C5    C6    A    
Cr2   O21   S    
Cr2   O2    S    
C52   O10   A    
C33   C35   A    
Cr5   O19   S    
C2    C60   A    
C42   C47   A    
Cr3   O23   S    
C45   O3    A    
N2    H26   S    
C10   C11   D    
C1    O20   A    
Cr5   O9    S    
C56   O4    A    
C49   C50   A    
Cr2   O5    S    
Cr3   O3    S    
C31   C36   A    
Cr5   O16   S    
Cr1   O24   S    
C56   O24   A    
N1    H23   S    
C51   O7    A    
C3    C59   A    
