data_mof_unit_28302.cif
_audit_creation_date              2013-03-05T16:00:13-0500
_audit_creation_method            fapswitch 2.2
_symmetry_space_group_name_H-M    P1
_symmetry_Int_Tables_number       1
_space_group_crystal_system       triclinic
_cell_length_a                    12.653601
_cell_length_b                    13.14666
_cell_length_c                    23.156275
_cell_angle_alpha                 92.701751
_cell_angle_beta                  101.769286
_cell_angle_gamma                 83.233963
_cell_volume                      3743.80118464

loop_
_atom_site_label
_atom_site_type_symbol
_atom_site_description
_atom_site_fract_x
_atom_site_fract_y
_atom_site_fract_z
_atom_type_partial_charge
O1    O     O_R   0.366740 0.627150 0.485570 -0.571751
O2    O     O_R   0.544830 0.662520 0.504870 -0.603997
C1    C     C_R   0.440143 0.691205 0.495920 0.973794
O3    O     O_R   0.410930 0.482340 0.574190 -0.576109
O4    O     O_R   0.589010 0.517710 0.593490 -0.587817
C2    C     C_R   0.500719 0.498556 0.610757 0.911764
Zn1   Zn    Zn3+2 0.381090 0.476380 0.487110 1.035136
Zn2   Zn    Zn3+2 0.618910 0.523620 0.512890 1.024031
O5    O     O_R   0.455170 0.337480 0.495130 -0.594966
O6    O     O_R   0.633260 0.372850 0.514430 -0.587817
O7    O     O_R   0.410990 0.482290 0.406510 -0.633703
O8    O     O_R   0.589070 0.517660 0.425810 -0.618041
C3    C     C_R   0.560589 0.308590 0.505994 0.878379
C4    C     C_R   0.498276 0.502605 0.389691 0.911465
C5    C     C_R   0.365473 0.561097 0.107542 0.549199
N1    N     N_R   0.456591 0.582391 0.147123 -0.318512
C6    C     C_R   0.542664 0.616329 0.129503 0.570475
C7    C     C_R   0.538998 0.630319 0.069790 -0.020670
C8    C     C_R   0.451974 0.597387 0.027884 -0.021892
C9    C     C_R   0.364302 0.559429 0.046515 -0.053741
C10   C     C_R   0.621475 0.674741 0.051495 -0.210567
C11   C     C_R   0.622144 0.682842 0.991630 -0.001146
C12   C     C_R   0.542528 0.637682 0.948939 -0.073679
C13   C     C_R   0.455247 0.598593 0.967485 -0.023824
C14   C     C_R   0.372894 0.557490 0.925860 -0.025547
C15   C     C_R   0.285574 0.521073 0.944060 -0.195424
C16   C     C_R   0.280746 0.520049 0.003710 -0.015929
C17   C     C_R   0.549386 0.624167 0.888928 0.573802
N2    N     N_R   0.471718 0.577942 0.850355 -0.343050
C18   C     C_R   0.382899 0.548017 0.866935 0.542937
O9    O     O_2   0.277351 0.541673 0.127756 -0.567971
O10   O     O_2   0.632366 0.634460 0.169674 -0.598816
H1    H     H_    0.684684 0.705872 0.083999 0.184297
O11   O     O_2   0.634749 0.652137 0.869297 -0.518573
O12   O     O_2   0.306208 0.506293 0.826554 -0.547886
H2    H     H_    0.223033 0.488120 0.911979 0.197411
C19   C     C_R   0.549426 0.468381 0.776822 0.345295
C20   C     C_R   0.554773 0.445049 0.717106 -0.166899
C21   C     C_R   0.495028 0.511911 0.673152 -0.106598
C22   C     C_R   0.423681 0.593317 0.688441 -0.083093
H3    H     H_    0.368707 0.638192 0.655137 0.236628
C23   C     C_R   0.421106 0.617867 0.746765 -0.145683
H4    H     H_    0.366525 0.682427 0.757643 0.160314
C24   C     C_R   0.484908 0.557087 0.791058 0.191885
C25   C     C_R   0.472509 0.643839 0.250232 -0.111947
C26   C     C_R   0.489339 0.622119 0.310256 0.250473
C27   C     C_R   0.489493 0.520815 0.327526 -0.236231
C28   C     C_R   0.470278 0.440720 0.285443 -0.209946
C29   C     C_R   0.464964 0.460562 0.225635 0.336699
C30   C     C_R   0.464480 0.562419 0.208272 0.095791
C31   C     C_R   0.725133 0.056732 0.558079 -0.102381
H5    H     H_    0.717454 0.883327 0.614580 0.190419
C32   C     C_R   0.597453 0.199492 0.514136 -0.210994
C33   C     C_R   0.301344 0.833983 0.461993 -0.151016
C34   C     C_R   0.262996 0.937668 0.459873 -0.070464
C35   C     C_R   0.333480 0.010262 0.486188 0.261808
C36   C     C_R   0.444254 0.975433 0.510575 -0.038138
C37   C     C_R   0.469681 0.872457 0.525687 -0.041494
C38   C     C_R   0.531420 0.036954 0.520514 0.085426
C39   C     C_R   0.635843 0.998281 0.552192 0.005660
C40   C     C_R   0.645928 0.905664 0.581344 -0.299552
C41   C     C_R   0.559649 0.846172 0.571621 0.327283
C42   C     C_R   0.518699 0.133429 0.497082 -0.234602
C43   C     C_R   0.704033 0.160733 0.541884 0.273125
C44   C     C_R   0.402527 0.800506 0.496148 -0.057930
H6    H     H_    0.445312 0.160400 0.466766 0.214143
H7    H     H_    0.249661 0.778686 0.438918 0.211238
C45   C     C_R   0.085076 0.370260 0.400037 -0.060140
H8    H     H_    0.256754 0.345277 0.400920 0.161833
N3    N     N_R   0.222200 0.444670 0.469780 -0.153663
C46   C     C_R   0.806174 0.613942 0.578699 0.044615
C47   C     C_R   0.914649 0.624199 0.600972 -0.264894
C48   C     C_R   0.992601 0.576584 0.571221 -0.124703
C49   C     C_R   0.962285 0.523358 0.516902 0.047902
C50   C     C_R   0.852167 0.507146 0.499485 0.242625
C51   C     C_R   0.038351 0.479701 0.482221 -0.116459
C52   C     C_R   0.004726 0.415307 0.431807 0.049321
C53   C     C_R   0.893185 0.400014 0.415975 -0.023502
C54   C     C_R   0.821869 0.439784 0.452163 -0.153010
C55   C     C_R   0.146324 0.504133 0.493751 0.389289
C56   C     C_R   0.194026 0.380747 0.423297 0.019634
N4    N     N_R   0.776960 0.554790 0.529910 -0.126483
H9    H     H_    0.745458 0.647335 0.602319 0.189439
H10   H     H_    0.075881 0.578847 0.592946 0.196726
H11   H     H_    0.938513 0.666336 0.641967 0.176916
H12   H     H_    0.742891 0.414635 0.442921 0.193632
N5    N     N_R   0.497664 0.704178 0.353590 0.185109
O13   O     O_R   0.416593 0.775096 0.353066 -0.448897
O14   O     O_R   0.590704 0.715668 0.388012 -0.402958
C57   C     C_R   0.459491 0.336533 0.304517 0.180443
C58   C     C_R   0.547576 0.280334 0.340370 -0.158242
C59   C     C_R   0.538849 0.181560 0.357353 -0.174536
C60   C     C_R   0.440536 0.139446 0.340306 -0.111701
C61   C     C_R   0.350677 0.196733 0.306949 -0.145252
C62   C     C_R   0.359586 0.295376 0.289602 -0.056022
H13   H     H_    0.622384 0.313881 0.355440 0.140791
H14   H     H_    0.608024 0.138113 0.384167 0.144310
H15   H     H_    0.433571 0.063082 0.353642 0.163972
H16   H     H_    0.274334 0.164497 0.294415 0.156554
H17   H     H_    0.289128 0.339282 0.264105 0.158457
N6    N     N_R   0.467304 0.377733 0.182750 0.204182
O15   O     O_R   0.394638 0.313586 0.174597 -0.432921
O16   O     O_R   0.536379 0.371844 0.147776 -0.443825
N7    N     N_R   0.789760 0.225670 0.553176 0.204893
O17   O     O_R   0.860537 0.219703 0.519265 -0.441220
O18   O     O_R   0.797818 0.290314 0.597757 -0.395042
C63   C     C_R   0.838737 0.007853 0.578837 0.110125
C64   C     C_R   0.911754 0.051476 0.624772 -0.085820
C65   C     C_R   0.017333 0.003822 0.643238 -0.136464
C66   C     C_R   0.051161 0.911808 0.616411 -0.114798
C67   C     C_R   0.979421 0.867446 0.571045 -0.119864
C68   C     C_R   0.874104 0.915033 0.552191 -0.193098
H18   H     H_    0.887570 0.121760 0.646787 0.168361
H19   H     H_    0.072838 0.038151 0.678557 0.154110
H20   H     H_    0.132860 0.874873 0.630758 0.170542
H21   H     H_    0.005331 0.796237 0.550340 0.214197
H22   H     H_    0.820233 0.879795 0.516412 0.167092
N8    N     N_R   0.289802 0.114017 0.495766 0.183322
O19   O     O_R   0.315708 0.159053 0.547150 -0.394433
O20   O     O_R   0.224650 0.164093 0.453276 -0.467107
C69   C     C_R   0.147629 0.964543 0.432135 0.156773
C70   C     C_R   0.109569 0.933963 0.373260 -0.171515
C71   C     C_R   0.998265 0.943643 0.349372 -0.141557
C72   C     C_R   0.924305 0.983715 0.384012 -0.143749
C73   C     C_R   0.961601 0.016464 0.442033 -0.146321
C74   C     C_R   0.072779 0.006681 0.466302 -0.018839
H23   H     H_    0.166010 0.900092 0.346446 0.159612
H24   H     H_    0.969304 0.918644 0.304308 0.136684
H25   H     H_    0.838000 0.988954 0.366094 0.128600
H26   H     H_    0.903835 0.047660 0.468405 0.185548
H27   H     H_    0.100098 0.028567 0.512117 0.170970
C75   C     C_R   0.704393 0.742890 0.976338 0.174367
C76   C     C_R   0.815616 0.715874 0.998507 -0.136059
C77   C     C_R   0.892643 0.774579 0.985504 -0.138753
C78   C     C_R   0.859253 0.861036 0.950737 -0.105687
C79   C     C_R   0.748719 0.889421 0.929294 -0.100206
C80   C     C_R   0.671400 0.831125 0.942358 -0.074775
H28   H     H_    0.842448 0.649743 0.025994 0.127259
H29   H     H_    0.978199 0.753400 0.002644 0.133059
H30   H     H_    0.918987 0.906407 0.940732 0.134409
H31   H     H_    0.722914 0.956855 0.902754 0.151849
H32   H     H_    0.585922 0.854454 0.925959 0.126343
N9    N     N_R   0.549987 0.777858 0.616345 0.192624
O21   O     O_R   0.632233 0.752194 0.658776 -0.420345
O22   O     O_R   0.453272 0.769253 0.624960 -0.440763
C81   C     C_R   0.843463 0.351647 0.359714 0.107714
C82   C     C_R   0.828882 0.247297 0.356087 -0.168415
C83   C     C_R   0.781674 0.203127 0.302173 -0.164305
C84   C     C_R   0.746474 0.263437 0.252312 -0.056902
C85   C     C_R   0.757750 0.368128 0.256244 -0.094937
C86   C     C_R   0.805348 0.412353 0.309844 -0.159138
H33   H     H_    0.854504 0.200807 0.394740 0.173718
H34   H     H_    0.770916 0.122599 0.298997 0.128473
H35   H     H_    0.709632 0.229163 0.210787 0.166952
H36   H     H_    0.729907 0.415066 0.217785 0.190488
H37   H     H_    0.813802 0.493568 0.312398 0.153843
C87   C     C_R   0.062374 0.322851 0.340191 0.111217
C88   C     C_R   0.059620 0.216667 0.331879 -0.082341
C89   C     C_R   0.044354 0.172994 0.274923 -0.169237
C90   C     C_R   0.033927 0.234633 0.226094 -0.115515
C91   C     C_R   0.038719 0.340089 0.234101 -0.116718
C92   C     C_R   0.053521 0.384064 0.290939 -0.178614
H38   H     H_    0.066355 0.168213 0.369113 0.192952
H39   H     H_    0.040942 0.091329 0.268586 0.137952
H40   H     H_    0.022515 0.200657 0.182080 0.126319
H41   H     H_    0.031451 0.387682 0.196294 0.153944
H42   H     H_    0.058169 0.465773 0.296669 0.142596
N10   N     N_R   0.168824 0.604789 0.515032 0.188397
O23   O     O_R   0.238277 0.618334 0.563572 -0.425419
O24   O     O_R   0.115259 0.684104 0.486785 -0.458992
C93   C     C_R   0.194680 0.465315 0.019041 0.153284
C94   C     C_R   0.222235 0.371543 0.048083 -0.015634
C95   C     C_R   0.141308 0.319204 0.062274 -0.129437
C96   C     C_R   0.032256 0.358788 0.046270 -0.130759
C97   C     C_R   0.003993 0.450491 0.015817 -0.099149
C98   C     C_R   0.084834 0.503775 0.002191 -0.151681
H43   H     H_    0.306369 0.339470 0.059801 0.181290
H44   H     H_    0.163084 0.247712 0.085375 0.141956
H45   H     H_    0.969616 0.317987 0.057042 0.139020
H46   H     H_    0.919375 0.479907 0.002569 0.156202
H47   H     H_    0.062051 0.574677 0.978549 0.133685
N11   N     N_R   0.599850 0.397548 0.822287 0.190614
O25   O     O_R   0.675147 0.424480 0.865496 -0.380674
O26   O     O_R   0.569031 0.306370 0.821133 -0.373155
C99   C     C_R   0.607649 0.343930 0.701413 0.105527
C100  C     C_R   0.716718 0.313219 0.726760 0.014508
C101  C     C_R   0.759242 0.210709 0.722775 -0.096851
C102  C     C_R   0.693722 0.138598 0.692930 -0.127540
C103  C     C_R   0.586307 0.169284 0.665851 -0.081177
C104  C     C_R   0.543398 0.271613 0.669773 -0.112568
H48   H     H_    0.767064 0.367639 0.751883 0.146402
H49   H     H_    0.842460 0.186832 0.743758 0.129033
H50   H     H_    0.726214 0.058917 0.690739 0.143432
H51   H     H_    0.535436 0.113367 0.643023 0.174591
H52   H     H_    0.458537 0.293269 0.650910 0.168498
C105  C     C_R   0.462420 0.751803 0.231465 0.200991
C106  C     C_R   0.547734 0.812643 0.250885 -0.013884
C107  C     C_R   0.535949 0.915432 0.235275 -0.158491
C108  C     C_R   0.439311 0.958142 0.199978 -0.096833
C109  C     C_R   0.354482 0.897999 0.180038 -0.158441
C110  C     C_R   0.365801 0.795238 0.195693 -0.159807
H53   H     H_    0.623118 0.780481 0.278196 0.156418
H54   H     H_    0.601611 0.962070 0.250692 0.132421
H55   H     H_    0.430127 0.037847 0.188144 0.165542
H56   H     H_    0.279615 0.931218 0.152769 0.137193
H57   H     H_    0.298792 0.749996 0.180702 0.158093

loop_
_geom_bond_atom_site_label_1
_geom_bond_atom_site_label_2
_geom_bond_distance
_ccdc_geom_bond_type
C94   H43   1.082570 S    
C37   C41   1.412357 A    
C38   C39   1.422653 A    
N5    O13   1.300907 A    
C34   C69   1.478448 S    
N6    O15   1.299694 A    
C7    C10   1.398940 A    
C71   C72   1.395369 A    
C48   C49   1.415052 A    
C82   C83   1.400648 A    
C41   N9    1.435033 S    
C34   C35   1.414782 A    
C96   H45   1.082418 S    
Zn1   N3    2.056610 S    
N7    O18   1.301200 A    
C91   C92   1.398140 A    
C57   C58   1.401337 A    
C78   C79   1.397581 A    
C33   C44   1.394782 A    
C95   C96   1.397361 A    
C64   C65   1.398249 A    
Zn1   O7    1.985264 S    
C15   C16   1.395772 A    
C109  H56   1.082312 S    
C49   C51   1.429146 A    
C18   O12   1.350506 S    
C8    C13   1.408526 A    
Zn2   N4    2.044310 S    
C45   C56   1.394463 A    
C25   C30   1.409773 A    
C17   N2    1.365448 A    
C19   C20   1.415674 A    
N1    C30   1.433568 S    
C81   C82   1.401973 A    
H5    C40   1.082679 S    
C29   N6    1.440576 S    
O4    C2    1.315077 A    
O7    C4    1.302954 A    
C36   C38   1.418720 A    
C10   H1    1.084539 S    
N11   O26   1.300969 A    
N9    O21   1.301413 A    
C108  H55   1.082583 S    
C70   H23   1.083402 S    
C35   C36   1.429521 A    
C43   N7    1.433636 S    
C7    C8    1.406585 A    
C63   C68   1.408218 A    
C100  H48   1.083103 S    
N3    C56   1.349335 A    
O5    C3    1.318953 A    
C66   C67   1.394895 A    
O1    Zn1   1.970348 S    
C58   H13   1.077695 S    
C96   C97   1.397973 A    
C103  H51   1.081780 S    
C87   C88   1.403702 A    
C27   C28   1.408717 A    
C95   H44   1.082459 S    
C109  C110  1.398723 A    
C12   C13   1.419975 A    
C105  C110  1.404947 A    
C14   C18   1.394305 A    
C107  C108  1.397273 A    
C48   H10   1.074325 S    
C46   H9    1.073068 S    
C91   H41   1.082425 S    
C47   C48   1.389405 A    
C46   N4    1.353620 A    
C40   C41   1.392346 A    
C25   C105  1.487478 S    
N10   O24   1.300550 A    
C42   H6    1.077412 S    
C17   O11   1.348425 S    
C76   H28   1.081996 S    
N6    O16   1.301052 A    
C28   C57   1.488455 S    
C10   C11   1.397138 A    
N8    O19   1.301532 A    
C1    C44   1.459646 S    
C23   C24   1.389145 A    
O3    Zn1   1.973892 S    
C73   H26   1.078538 S    
N7    O17   1.299758 A    
C59   H14   1.082535 S    
C47   H11   1.082653 S    
C3    C32   1.463645 S    
C51   C52   1.431654 A    
C78   H30   1.082339 S    
C45   C52   1.431025 A    
C80   H32   1.083233 S    
C49   C50   1.407913 A    
N3    C55   1.356713 A    
C57   C62   1.405553 A    
C20   C21   1.412093 A    
C13   C14   1.407396 A    
O3    C2    1.304186 A    
C58   C59   1.397403 A    
C62   H17   1.082939 S    
C75   C76   1.405358 A    
C33   H7    1.083763 S    
C87   C92   1.405017 A    
C14   C15   1.400467 A    
C52   C53   1.419750 A    
C5    N1    1.366952 A    
C81   C86   1.404312 A    
C5    C9    1.409375 A    
O1    C1    1.305277 A    
C64   H18   1.076999 S    
C98   H47   1.082625 S    
C84   H35   1.082019 S    
C102  C103  1.396525 A    
N2    C18   1.363726 A    
C76   C77   1.398274 A    
C37   C44   1.405692 A    
C89   C90   1.397446 A    
C89   H39   1.081453 S    
Zn2   O8    1.973892 S    
C2    C21   1.462562 S    
Zn1   O5    1.950724 S    
C6    C7    1.394170 A    
C69   C70   1.406532 A    
C36   C37   1.398149 A    
C106  H53   1.082908 S    
C60   C61   1.396964 A    
C26   C27   1.408165 A    
C86   H37   1.083195 S    
C83   C84   1.397636 A    
C93   C94   1.405290 A    
C101  H49   1.082218 S    
C77   C78   1.397461 A    
C88   H38   1.079559 S    
C100  C101  1.397103 A    
C65   H19   1.082321 S    
C15   H2    1.084633 S    
C22   H3    1.074263 S    
O8    C4    1.305597 A    
C102  H50   1.082118 S    
C61   C62   1.399236 A    
C85   H36   1.081935 S    
N5    O14   1.300738 A    
N2    C24   1.426743 S    
C73   C74   1.397539 A    
C12   C17   1.411532 A    
C23   H4    1.083277 S    
C63   C64   1.407263 A    
C104  H52   1.083167 S    
C45   C87   1.479791 S    
C16   C93   1.481984 S    
C77   H29   1.082199 S    
C94   C95   1.398093 A    
C26   N5    1.436460 S    
C103  C104  1.396185 A    
N9    O22   1.297929 A    
C33   C34   1.391647 A    
N10   O23   1.297099 A    
C67   C68   1.396385 A    
C11   C75   1.483928 S    
C53   C54   1.394964 A    
C35   N8    1.434942 S    
Zn2   O6    1.970347 S    
O2    Zn2   1.950724 S    
C31   C43   1.415215 A    
C51   C55   1.409820 A    
C105  C106  1.406720 A    
O6    C3    1.300630 A    
O4    Zn2   1.985264 S    
C50   N4    1.373236 A    
C5    O9    1.348695 S    
C4    C27   1.450105 S    
C9    C16   1.421773 A    
C20   C99   1.480199 S    
C93   C98   1.404137 A    
C38   C42   1.382060 A    
C85   C86   1.396718 A    
C68   H22   1.083289 S    
C67   H21   1.078534 S    
C61   H16   1.080512 S    
C90   C91   1.396821 A    
C8    C9    1.418377 A    
C90   H40   1.082309 S    
C82   H33   1.079934 S    
C75   C80   1.406049 A    
C69   C74   1.403782 A    
C97   C98   1.399279 A    
C65   C66   1.395727 A    
C32   C42   1.383616 A    
C99   C100  1.404576 A    
C88   C89   1.399025 A    
C74   H27   1.082992 S    
C19   C24   1.408675 A    
C28   C29   1.408008 A    
C19   N11   1.435639 S    
C60   H15   1.082679 S    
C22   C23   1.379720 A    
C59   C60   1.396881 A    
C32   C43   1.416584 A    
C79   H31   1.082368 S    
C99   C104  1.405384 A    
C72   H25   1.081498 S    
O2    C1    1.310559 A    
C110  H57   1.082830 S    
C106  C107  1.398425 A    
N8    O20   1.297453 A    
H8    C56   1.083394 S    
C53   C81   1.476238 S    
C97   H46   1.081537 S    
C92   H42   1.083157 S    
C21   C22   1.397404 A    
C25   C26   1.400401 A    
C108  C109  1.397822 A    
C46   C47   1.384369 A    
C31   C63   1.496648 S    
C29   C30   1.415157 A    
C83   H34   1.080414 S    
C71   H24   1.082244 S    
C107  H54   1.082647 S    
C6    O10   1.350033 S    
C11   C12   1.422667 A    
C39   C40   1.400102 A    
C101  C102  1.397642 A    
C31   C39   1.420376 A    
C70   C71   1.397267 A    
C84   C85   1.397175 A    
C50   C54   1.396110 A    
C66   H20   1.082443 S    
C55   N10   1.430056 S    
C54   H12   1.066663 S    
C79   C80   1.398326 A    
N11   O25   1.300553 A    
N1    C6    1.365532 A    
C72   C73   1.395660 A    
