data_mof_unit_65859.cif
_audit_creation_date              2013-03-05T16:32:06-0500
_audit_creation_method            fapswitch 2.2
_symmetry_space_group_name_H-M    P1
_symmetry_Int_Tables_number       1
_space_group_crystal_system       triclinic
_cell_length_a                    32.10102
_cell_length_b                    32.101345
_cell_length_c                    38.696996
_cell_angle_alpha                 90.101369
_cell_angle_beta                  90.191848
_cell_angle_gamma                 90.006316
_cell_volume                      39876.4232217

loop_
_atom_site_label
_atom_site_type_symbol
_atom_site_description
_atom_site_fract_x
_atom_site_fract_y
_atom_site_fract_z
_atom_type_partial_charge
O1    O     O_R   0.939070 0.534360 0.999910 -0.605033
O2    O     O_R   0.534360 0.060930 0.999910 -0.605109
O3    O     O_R   0.060930 0.465640 0.999910 -0.605001
O4    O     O_R   0.465640 0.939070 0.999910 -0.605151
O5    O     O_R   0.060930 0.534360 0.000090 -0.605063
O6    O     O_R   0.465640 0.060930 0.000090 -0.605073
O7    O     O_R   0.939070 0.465640 0.000090 -0.605040
O8    O     O_R   0.534360 0.939070 0.000090 -0.605078
O9    O     O_R   0.439070 0.034360 0.499910 -0.605037
O10   O     O_R   0.034360 0.560930 0.499910 -0.605037
O11   O     O_R   0.560930 0.965640 0.499910 -0.604950
O12   O     O_R   0.965640 0.439070 0.499910 -0.605146
O13   O     O_R   0.560930 0.034360 0.500090 -0.605077
O14   O     O_R   0.965640 0.560930 0.500090 -0.605122
O15   O     O_R   0.439070 0.965640 0.500090 -0.605045
O16   O     O_R   0.034360 0.439070 0.500090 -0.605109
C1    C     C_R   0.919350 0.499997 0.999928 0.902819
C2    C     C_R   0.500003 0.080650 0.000071 0.901633
C3    C     C_R   0.080650 0.500003 0.000072 0.902844
C4    C     C_R   0.499997 0.919350 0.999929 0.901605
C5    C     C_R   0.419350 0.999998 0.499926 0.902835
C6    C     C_R   0.000002 0.580650 0.500071 0.901641
C7    C     C_R   0.580650 0.000003 0.500072 0.902830
C8    C     C_R   0.999998 0.419351 0.500068 0.901625
O17   O     O_R   0.000050 0.534360 0.948990 -0.613476
O18   O     O_R   0.534360 0.999950 0.948990 -0.612371
O19   O     O_R   0.999950 0.465640 0.948990 -0.613550
O20   O     O_R   0.465640 0.000050 0.948990 -0.612610
O21   O     O_R   0.999950 0.534360 0.051010 -0.613535
O22   O     O_R   0.465640 0.999950 0.051010 -0.612363
O23   O     O_R   0.000050 0.465640 0.051010 -0.613400
O24   O     O_R   0.534360 0.000050 0.051010 -0.612537
O25   O     O_R   0.500050 0.034360 0.448990 -0.613402
O26   O     O_R   0.034360 0.499950 0.448990 -0.612296
O27   O     O_R   0.499950 0.965640 0.448990 -0.613507
O28   O     O_R   0.965640 0.500050 0.448990 -0.612531
O29   O     O_R   0.499950 0.034360 0.551010 -0.613587
O30   O     O_R   0.965640 0.499950 0.551010 -0.612466
O31   O     O_R   0.500050 0.965640 0.551010 -0.613467
O32   O     O_R   0.034360 0.500050 0.551010 -0.612594
C9    C     C_R   0.000013 0.499966 0.932458 0.912157
C10   C     C_R   0.499936 0.999994 0.932460 0.911481
C11   C     C_R   0.999993 0.500035 0.067541 0.912205
C12   C     C_R   0.500063 0.999985 0.067540 0.911529
C13   C     C_R   0.500013 0.999966 0.432459 0.912270
C14   C     C_R   0.999936 0.499992 0.432460 0.911766
C15   C     C_R   0.499993 0.000035 0.567541 0.912089
C16   C     C_R   0.000063 0.499986 0.567540 0.911252
Zn1   Zn    Zn3+2 0.000000 0.545910 0.000000 1.051987
Zn2   Zn    Zn3+2 0.545910 0.000000 0.000000 1.053671
Zn3   Zn    Zn3+2 0.000000 0.454090 0.000000 1.052001
Zn4   Zn    Zn3+2 0.454090 0.000000 0.000000 1.053639
Zn5   Zn    Zn3+2 0.500000 0.045910 0.500000 1.051999
Zn6   Zn    Zn3+2 0.045910 0.500000 0.500000 1.053726
Zn7   Zn    Zn3+2 0.500000 0.954090 0.500000 1.052035
Zn8   Zn    Zn3+2 0.954090 0.500000 0.500000 1.053615
C17   C     C_R   0.983528 0.466008 0.876655 -0.215023
C18   C     C_R   0.465853 0.016526 0.876745 -0.213561
C19   C     C_R   0.016864 0.533693 0.876832 -0.215084
C20   C     C_R   0.533649 0.983514 0.876736 -0.213585
C21   C     C_R   0.016520 0.466309 0.123328 -0.214915
C22   C     C_R   0.534154 0.016332 0.123341 -0.213460
C23   C     C_R   0.983192 0.533990 0.123185 -0.214884
C24   C     C_R   0.466349 0.983322 0.123177 -0.213437
C25   C     C_R   0.483528 0.966007 0.376655 -0.214756
C26   C     C_R   0.965852 0.516521 0.376745 -0.213511
C27   C     C_R   0.516863 0.033693 0.376832 -0.214884
C28   C     C_R   0.033650 0.483514 0.376736 -0.213505
C29   C     C_R   0.516517 0.966308 0.623329 -0.215093
C30   C     C_R   0.034155 0.516331 0.623341 -0.213525
C31   C     C_R   0.483195 0.033992 0.623185 -0.215099
C32   C     C_R   0.966347 0.483328 0.623178 -0.213428
H1    H     H_    0.970660 0.439876 0.890731 0.205791
H2    H     H_    0.440071 0.030104 0.890833 0.203917
H3    H     H_    0.029647 0.559876 0.891043 0.205787
H4    H     H_    0.559498 0.969886 0.890809 0.203965
H5    H     H_    0.029380 0.440125 0.109241 0.205799
H6    H     H_    0.559938 0.029960 0.109325 0.203934
H7    H     H_    0.970407 0.560118 0.108985 0.205834
H8    H     H_    0.440495 0.969746 0.109032 0.204010
H9    H     H_    0.470661 0.939875 0.390731 0.205843
H10   H     H_    0.940069 0.530097 0.390833 0.203940
H11   H     H_    0.529646 0.059876 0.391043 0.205818
H12   H     H_    0.059500 0.469888 0.390810 0.203927
H13   H     H_    0.529374 0.940123 0.609241 0.205789
H14   H     H_    0.059941 0.529956 0.609325 0.203921
H15   H     H_    0.470412 0.060121 0.608985 0.205802
H16   H     H_    0.940491 0.469755 0.609032 0.204078
C33   C     C_R   0.983371 0.465396 0.840564 0.291196
C34   C     C_R   0.465825 0.017886 0.840694 0.297071
C35   C     C_R   0.017262 0.534169 0.840746 0.291182
C36   C     C_R   0.533516 0.982292 0.840682 0.297150
C37   C     C_R   0.016691 0.465831 0.159418 0.291192
C38   C     C_R   0.534193 0.017545 0.159400 0.297127
C39   C     C_R   0.982808 0.534600 0.159273 0.291104
C40   C     C_R   0.466492 0.981953 0.159224 0.296982
C41   C     C_R   0.483372 0.965394 0.340564 0.291174
C42   C     C_R   0.965823 0.517880 0.340693 0.297075
C43   C     C_R   0.517262 0.034168 0.340745 0.291213
C44   C     C_R   0.033517 0.482290 0.340682 0.297167
C45   C     C_R   0.516687 0.965831 0.659418 0.291215
C46   C     C_R   0.034194 0.517545 0.659400 0.297165
C47   C     C_R   0.482810 0.034603 0.659273 0.291095
C48   C     C_R   0.966489 0.481961 0.659224 0.296972
C49   C     C_R   0.000368 0.499752 0.822545 -0.181593
C50   C     C_R   0.499641 0.000144 0.822389 -0.178887
C51   C     C_R   0.999697 0.500249 0.177455 -0.181548
C52   C     C_R   0.500376 0.999730 0.177611 -0.178806
C53   C     C_R   0.500369 0.999751 0.322545 -0.181512
C54   C     C_R   0.999641 0.500140 0.322389 -0.178800
C55   C     C_R   0.499696 0.000250 0.677455 -0.181621
C56   C     C_R   0.000375 0.499734 0.677611 -0.178883
C57   C     C_R   0.000124 0.499891 0.894747 -0.153383
C58   C     C_R   0.499801 0.000002 0.894752 -0.155038
C59   C     C_R   0.999911 0.500117 0.105253 -0.153394
C60   C     C_R   0.500196 0.999884 0.105248 -0.155053
C61   C     C_R   0.500124 0.999890 0.394747 -0.153408
C62   C     C_R   0.999801 0.500000 0.394752 -0.155152
C63   C     C_R   0.499911 0.000117 0.605253 -0.153393
C64   C     C_R   0.000196 0.499886 0.605248 -0.154962
N1    N     N_R   0.034986 0.488177 0.767551 -0.087706
N2    N     N_R   0.534141 0.012025 0.766991 -0.085658
N3    N     N_R   0.965795 0.511302 0.767387 -0.088531
N4    N     N_R   0.465080 0.988563 0.766736 -0.085353
N5    N     N_R   0.965027 0.488757 0.232403 -0.087804
N6    N     N_R   0.465869 0.011472 0.233057 -0.085703
N7    N     N_R   0.034223 0.511879 0.232660 -0.088115
N8    N     N_R   0.534925 0.988010 0.233217 -0.084904
N9    N     N_R   0.534987 0.988178 0.267551 -0.087498
N10   N     N_R   0.034141 0.512023 0.266991 -0.085507
N11   N     N_R   0.465795 0.011296 0.267387 -0.088279
N12   N     N_R   0.965081 0.488557 0.266735 -0.085155
N13   N     N_R   0.465025 0.988762 0.732403 -0.088098
N14   N     N_R   0.965869 0.511478 0.733057 -0.085837
N15   N     N_R   0.534223 0.011880 0.732660 -0.088243
N16   N     N_R   0.034923 0.488009 0.733217 -0.085103
C65   C     C_R   0.000397 0.499746 0.715430 0.412700
C66   C     C_R   0.499635 0.000327 0.714962 0.427716
C67   C     C_R   0.999609 0.500265 0.284571 0.412643
C68   C     C_R   0.500386 0.999732 0.285038 0.427570
C69   C     C_R   0.500398 0.999742 0.215430 0.412574
C70   C     C_R   0.999635 0.500325 0.214962 0.427576
C71   C     C_R   0.499609 0.000269 0.784570 0.412744
C72   C     C_R   0.000385 0.499734 0.785038 0.427708
H17   H     H_    0.789327 0.433243 0.998759 0.201714
H18   H     H_    0.433643 0.210685 0.994186 0.201741
H19   H     H_    0.210671 0.566751 0.001766 0.201685
H20   H     H_    0.566528 0.789322 0.004284 0.201632
H21   H     H_    0.210671 0.433558 0.994943 0.201646
H22   H     H_    0.566714 0.210663 0.002719 0.201644
H23   H     H_    0.789331 0.566506 0.004531 0.201878
H24   H     H_    0.433235 0.789331 0.998814 0.201616
H25   H     H_    0.289320 0.933270 0.501088 0.201553
H26   H     H_    0.933353 0.710640 0.503302 0.201767
H27   H     H_    0.710662 0.066432 0.505967 0.201731
H28   H     H_    0.066733 0.289341 0.499712 0.201556
H29   H     H_    0.710678 0.934235 0.490724 0.201472
H30   H     H_    0.066235 0.710703 0.493588 0.201494
H31   H     H_    0.289341 0.066699 0.502102 0.201687
H32   H     H_    0.933313 0.289304 0.497659 0.201524
C73   C     C_R   0.728484 0.461487 0.001473 0.276405
C74   C     C_R   0.462108 0.271524 0.994545 0.276101
C75   C     C_R   0.271514 0.538544 0.998829 0.276561
C76   C     C_R   0.538074 0.728480 0.004580 0.276085
C77   C     C_R   0.271512 0.462021 0.994908 0.276040
C78   C     C_R   0.538561 0.271514 0.999447 0.276520
C79   C     C_R   0.728489 0.538049 0.004789 0.275965
C80   C     C_R   0.461494 0.728483 0.001436 0.276658
C81   C     C_R   0.228483 0.961643 0.502789 0.277211
C82   C     C_R   0.961429 0.771499 0.499773 0.276878
C83   C     C_R   0.771509 0.038597 0.501241 0.276547
C84   C     C_R   0.038384 0.228481 0.497879 0.277023
C85   C     C_R   0.771516 0.962646 0.492490 0.276454
C86   C     C_R   0.037773 0.771534 0.494199 0.277565
C87   C     C_R   0.228494 0.038302 0.503371 0.276552
C88   C     C_R   0.961730 0.228460 0.496698 0.275941
C89   C     C_R   0.706621 0.499747 0.003387 -0.114858
C90   C     C_R   0.500365 0.293385 0.996745 -0.114865
C91   C     C_R   0.293379 0.500308 0.996613 -0.114813
C92   C     C_R   0.499765 0.706615 0.003259 -0.114806
C93   C     C_R   0.206623 0.999970 0.503344 -0.115072
C94   C     C_R   0.999561 0.793382 0.496737 -0.114805
C95   C     C_R   0.793378 0.000679 0.496614 -0.114674
C96   C     C_R   0.000064 0.206603 0.497043 -0.114974
C97   C     C_R   0.772024 0.537533 0.003400 -0.199119
C98   C     C_R   0.537813 0.227975 0.000750 -0.199956
C99   C     C_R   0.227978 0.462518 0.996302 -0.199337
C100  C     C_R   0.462191 0.772022 0.000118 -0.199861
C101  C     C_R   0.227978 0.537821 0.000160 -0.199717
C102  C     C_R   0.462579 0.227986 0.995926 -0.199321
C103  C     C_R   0.772021 0.462191 0.000137 -0.199899
C104  C     C_R   0.537550 0.772017 0.003210 -0.199346
C105  C     C_R   0.272030 0.037702 0.502005 -0.199793
C106  C     C_R   0.037336 0.727996 0.495585 -0.200306
C107  C     C_R   0.727981 0.962996 0.493913 -0.199769
C108  C     C_R   0.962311 0.272005 0.498010 -0.199556
C109  C     C_R   0.727973 0.037737 0.502530 -0.198862
C110  C     C_R   0.962208 0.727961 0.501076 -0.198870
C111  C     C_R   0.272018 0.962266 0.501432 -0.200241
C112  C     C_R   0.037742 0.272026 0.499171 -0.200001
C113  C     C_R   0.793462 0.499908 0.001112 0.030498
C114  C     C_R   0.500130 0.206540 0.998979 0.030613
C115  C     C_R   0.206538 0.500115 0.998887 0.030684
C116  C     C_R   0.499912 0.793460 0.001022 0.030717
C117  C     C_R   0.293463 0.999989 0.501068 0.030884
C118  C     C_R   0.999855 0.706538 0.498974 0.030539
C119  C     C_R   0.706538 0.000242 0.498878 0.030669
C120  C     C_R   0.000013 0.293459 0.499198 0.030910
C121  C     C_1   0.662080 0.499853 0.001563 0.140461
C122  C     C_1   0.500214 0.337923 0.998549 0.140534
C123  C     C_1   0.337920 0.500182 0.998437 0.140540
C124  C     C_1   0.499860 0.662077 0.001453 0.140572
C125  C     C_1   0.162080 0.999986 0.501540 0.142534
C126  C     C_1   0.999742 0.837921 0.498544 0.141208
C127  C     C_1   0.837919 0.000400 0.498436 0.140311
C128  C     C_1   0.000037 0.162072 0.498802 0.141374
C129  C     C_1   0.837856 0.499961 0.000450 0.033446
C130  C     C_1   0.500054 0.162144 0.999605 0.033033
C131  C     C_1   0.162144 0.500050 0.999550 0.033503
C132  C     C_1   0.499960 0.837856 0.000395 0.033076
C133  C     C_1   0.337858 0.999994 0.500421 0.033570
C134  C     C_1   0.999949 0.662142 0.499602 0.033208
C135  C     C_1   0.662143 0.000098 0.499543 0.033570
C136  C     C_1   0.999998 0.337858 0.499738 0.033071
C137  C     C_1   0.875135 0.499988 0.000116 -0.139291
C138  C     C_1   0.500015 0.124864 0.999909 -0.139839
C139  C     C_1   0.124865 0.500016 0.999883 -0.139265
C140  C     C_1   0.499987 0.875136 0.000091 -0.139793
C141  C     C_1   0.375137 0.999995 0.500101 -0.139315
C142  C     C_1   0.999994 0.624862 0.499908 -0.139807
C143  C     C_1   0.624864 0.000025 0.499880 -0.139222
C144  C     C_1   0.999994 0.375138 0.499971 -0.139798
C145  C     C_1   0.624805 0.499933 0.000467 -0.043184
C146  C     C_1   0.500098 0.375197 0.999613 -0.043156
C147  C     C_1   0.375195 0.500085 0.999533 -0.043279
C148  C     C_1   0.499935 0.624804 0.000388 -0.043097
C149  C     C_1   0.124805 0.999996 0.500460 -0.042133
C150  C     C_1   0.999881 0.875195 0.499610 -0.043077
C151  C     C_1   0.875193 0.000184 0.499531 -0.043210
C152  C     C_1   0.000017 0.124801 0.499792 -0.042232
O33   O     O_R   0.500080 0.438950 0.971150 -0.593910
O34   O     O_R   0.438950 0.499920 0.971150 -0.593933
O35   O     O_R   0.499920 0.561050 0.971150 -0.609145
O36   O     O_R   0.561050 0.500080 0.971150 -0.609160
O37   O     O_R   0.499920 0.438950 0.028850 -0.609072
O38   O     O_R   0.561050 0.499920 0.028850 -0.593918
O39   O     O_R   0.500080 0.561050 0.028850 -0.593852
O40   O     O_R   0.438950 0.500080 0.028850 -0.609033
O41   O     O_R   0.000080 0.938950 0.471150 -0.593888
O42   O     O_R   0.938950 0.999920 0.471150 -0.592511
O43   O     O_R   0.999920 0.061050 0.471150 -0.595493
O44   O     O_R   0.061050 0.000080 0.471150 -0.605667
O45   O     O_R   0.999920 0.938950 0.528850 -0.608826
O46   O     O_R   0.061050 0.999920 0.528850 -0.597180
O47   O     O_R   0.000080 0.061050 0.528850 -0.607579
O48   O     O_R   0.938950 0.000080 0.528850 -0.610320
C153  C     C_R   0.500003 0.419389 0.999949 0.898818
C154  C     C_R   0.419389 0.500002 0.999924 0.898751
C155  C     C_R   0.499999 0.580611 0.000051 0.898906
C156  C     C_R   0.580611 0.499998 0.000075 0.898939
C157  C     C_R   0.999997 0.919388 0.499949 0.898429
C158  C     C_R   0.919387 0.000004 0.499924 0.898676
C159  C     C_R   0.999999 0.080610 0.500005 0.899221
C160  C     C_R   0.080611 0.000001 0.500074 0.898844
Zn9   Zn    Zn3+2 0.500000 0.500000 0.961540 1.094842
Zn10  Zn    Zn3+2 0.500000 0.500000 0.038460 1.095071
Zn11  Zn    Zn3+2 0.000000 0.000000 0.461540 1.105597
Zn12  Zn    Zn3+2 0.000000 0.000000 0.538460 1.085145
N17   N     N_R   0.965864 0.429845 0.822875 0.229667
O49   O     O_R   0.981603 0.416514 0.793954 -0.314507
O50   O     O_R   0.936705 0.407959 0.837484 -0.319477
N18   N     N_R   0.432210 0.038899 0.823287 0.224897
O51   O     O_R   0.439976 0.065009 0.798435 -0.303988
O52   O     O_R   0.394635 0.037083 0.835717 -0.320064
N19   N     N_R   0.034887 0.569656 0.823250 0.229656
O53   O     O_R   0.019311 0.582917 0.794199 -0.314954
O54   O     O_R   0.063984 0.591562 0.838148 -0.319747
N20   N     N_R   0.567041 0.961322 0.823244 0.224744
O55   O     O_R   0.559147 0.935317 0.798224 -0.304363
O56   O     O_R   0.604672 0.963065 0.835778 -0.320756
N21   N     N_R   0.034203 0.430347 0.177086 0.229694
O57   O     O_R   0.018440 0.417085 0.205982 -0.314337
O58   O     O_R   0.063386 0.408441 0.162475 -0.319578
N22   N     N_R   0.567815 0.038492 0.176919 0.224947
O59   O     O_R   0.560057 0.064530 0.201900 -0.303999
O60   O     O_R   0.605391 0.036704 0.164484 -0.319539
N23   N     N_R   0.965197 0.570150 0.176789 0.229808
O61   O     O_R   0.980755 0.583484 0.205865 -0.314153
O62   O     O_R   0.936130 0.592030 0.161895 -0.318902
N24   N     N_R   0.432963 0.960919 0.176549 0.224879
O63   O     O_R   0.440852 0.934841 0.201440 -0.303733
O64   O     O_R   0.395334 0.962694 0.164021 -0.320216
N25   N     N_R   0.465866 0.929843 0.322876 0.229782
O65   O     O_R   0.481606 0.916511 0.293955 -0.314055
O66   O     O_R   0.436707 0.907956 0.337484 -0.318859
N26   N     N_R   0.932207 0.538890 0.323286 0.224958
O67   O     O_R   0.939972 0.565001 0.298434 -0.303721
O68   O     O_R   0.894632 0.537071 0.335715 -0.319802
N27   N     N_R   0.534886 0.069655 0.323249 0.229740
O69   O     O_R   0.519309 0.082916 0.294198 -0.314683
O70   O     O_R   0.563983 0.091562 0.338147 -0.319377
N28   N     N_R   0.067044 0.461323 0.323244 0.224803
O71   O     O_R   0.059152 0.435318 0.298225 -0.303931
O72   O     O_R   0.104675 0.463068 0.335779 -0.320431
N29   N     N_R   0.534196 0.930345 0.677087 0.229595
O73   O     O_R   0.518432 0.917085 0.705984 -0.314816
O74   O     O_R   0.563377 0.908436 0.662476 -0.319988
N30   N     N_R   0.067819 0.538488 0.676919 0.224852
O75   O     O_R   0.060063 0.564527 0.701900 -0.304351
O76   O     O_R   0.105394 0.536697 0.664484 -0.320037
N31   N     N_R   0.465202 0.070155 0.676789 0.229722
O77   O     O_R   0.480762 0.083488 0.705864 -0.314401
O78   O     O_R   0.436137 0.092036 0.661895 -0.319493
N32   N     N_R   0.932958 0.460930 0.676550 0.224834
O79   O     O_R   0.940843 0.434852 0.701440 -0.304148
O80   O     O_R   0.895328 0.462710 0.664022 -0.320407
N33   N     N_R   0.707232 0.421915 0.000654 0.231573
O81   O     O_R   0.672937 0.416307 0.017867 -0.329415
O82   O     O_R   0.724519 0.389924 0.985777 -0.309657
N34   N     N_R   0.422739 0.292781 0.991134 0.230187
O83   O     O_R   0.419756 0.327088 0.973436 -0.326829
O84   O     O_R   0.388778 0.275483 0.002496 -0.311297
N35   N     N_R   0.292765 0.578106 0.999962 0.231852
O85   O     O_R   0.327063 0.583912 0.982797 -0.329413
O86   O     O_R   0.275476 0.609925 0.015088 -0.310340
N36   N     N_R   0.577541 0.707226 0.007087 0.229970
O87   O     O_R   0.581118 0.672917 0.024709 -0.326776
O88   O     O_R   0.611106 0.724528 0.994951 -0.311203
N37   N     N_R   0.292762 0.422602 0.991991 0.229842
O89   O     O_R   0.327034 0.419327 0.974328 -0.327117
O90   O     O_R   0.275488 0.388833 0.003782 -0.311230
N38   N     N_R   0.578104 0.292760 0.001094 0.231609
O91   O     O_R   0.584204 0.327092 0.984012 -0.329492
O92   O     O_R   0.609663 0.275435 0.016626 -0.309789
N39   N     N_R   0.707240 0.577502 0.007393 0.230224
O93   O     O_R   0.672964 0.580982 0.025024 -0.326362
O94   O     O_R   0.724517 0.611133 0.995338 -0.311562
N40   N     N_R   0.421918 0.707233 0.000696 0.231825
O95   O     O_R   0.416394 0.672901 0.017915 -0.329401
O96   O     O_R   0.389854 0.724553 0.985890 -0.310217
N41   N     N_R   0.207228 0.922074 0.503373 0.231718
O97   O     O_R   0.172947 0.917361 0.520789 -0.335632
O98   O     O_R   0.224499 0.889351 0.489623 -0.308260
N42   N     N_R   0.921922 0.792733 0.501757 0.229426
O99   O     O_R   0.915455 0.827035 0.484692 -0.325976
O100  O     O_R   0.890697 0.775421 0.517592 -0.315143
N43   N     N_R   0.792757 0.077954 0.504859 0.229791
O101  O     O_R   0.827034 0.085336 0.488087 -0.324456
O102  O     O_R   0.775482 0.108286 0.521968 -0.314181
N44   N     N_R   0.077963 0.207238 0.497631 0.231900
O103  O     O_R   0.082859 0.172838 0.480275 -0.332204
O104  O     O_R   0.110546 0.224625 0.511633 -0.309336
N45   N     N_R   0.792772 0.923612 0.487083 0.230780
O105  O     O_R   0.827052 0.921990 0.469278 -0.328435
O106  O     O_R   0.775500 0.888841 0.496689 -0.309312
N46   N     N_R   0.077064 0.792805 0.490436 0.231788
O107  O     O_R   0.079665 0.827125 0.472729 -0.333561
O108  O     O_R   0.111268 0.775512 0.501479 -0.308582
N47   N     N_R   0.207251 0.077856 0.504554 0.232051
O109  O     O_R   0.172966 0.082259 0.522033 -0.332340
O110  O     O_R   0.224535 0.110819 0.491305 -0.309140
N48   N     N_R   0.922188 0.207195 0.495231 0.230698
O111  O     O_R   0.917939 0.172795 0.477729 -0.327641
O112  O     O_R   0.889106 0.224560 0.508227 -0.309577

loop_
_geom_bond_atom_site_label_1
_geom_bond_atom_site_label_2
_geom_bond_distance
_ccdc_geom_bond_type
O48   C158  1.281629 A    
C110  C118  1.393073 A    
C48   N32   1.438797 S    
C73   C103  1.398864 A    
C16   C64   1.459180 S    
C101  C115  1.393044 A    
O46   Zn12  1.995962 S    
C77   C99   1.398825 A    
N4    N13   1.328571 A    
C24   C60   1.396691 A    
C83   C95   1.416610 A    
N22   O59   1.301514 A    
C40   N24   1.438801 S    
O42   Zn11  1.995964 S    
O18   Zn2   2.007230 S    
C84   N44   1.442082 S    
O47   Zn12  1.995407 S    
C79   C97   1.398830 A    
C111  C117  1.393015 A    
O25   C13   1.275048 A    
C98   C114  1.393049 A    
C88   C96   1.416646 A    
O34   Zn9   1.995964 S    
N11   C68   1.353975 A    
O39   Zn10  1.995407 S    
O19   Zn3   2.009093 S    
N18   O51   1.301506 A    
O43   C159  1.280065 A    
C21   C59   1.397019 A    
N23   O62   1.301582 A    
C151  C158  1.418712 S    
O3    C3    1.271765 A    
N36   O87   1.301303 A    
H32   C108  1.084055 S    
C23   C59   1.397101 A    
N41   O98   1.301581 A    
O48   Zn12  1.993517 S    
C112  C120  1.393014 A    
C78   N38   1.442094 S    
C149  C160  1.418685 S    
O34   C154  1.280169 A    
O5    Zn1   1.990780 S    
C42   C54   1.417181 A    
C49   C72   1.451413 S    
C106  C118  1.393040 A    
N45   O106  1.301613 A    
C90   C122  1.431310 S    
C95   C127  1.431342 S    
N3    N14   1.328488 A    
N35   O85   1.301312 A    
O17   C9    1.275048 A    
N39   O94   1.301578 A    
N32   O79   1.301511 A    
C80   C92   1.416633 A    
C29   C63   1.397019 A    
C26   H10   1.083705 S    
O44   Zn11  1.993515 S    
C6    C142  1.419316 S    
C19   C57   1.397080 A    
C104  C116  1.393015 A    
C19   C35   1.396647 A    
C36   C50   1.417163 A    
N26   O67   1.301506 A    
C76   N36   1.442076 S    
C86   C106  1.398823 A    
N17   O50   1.301584 A    
O33   Zn9   1.995404 S    
C127  C151  1.197192 T    
C73   C89   1.416627 A    
O27   C13   1.275132 A    
O8    Zn2   1.990740 S    
C74   C102  1.398816 A    
O31   C15   1.275084 A    
O45   C157  1.281663 A    
O32   C16   1.275147 A    
C78   C98   1.398865 A    
O35   Zn9   1.994115 S    
C9    C57   1.459340 S    
C29   C45   1.396659 A    
N6    C69   1.356433 A    
C31   C63   1.397105 A    
O9    C5    1.271745 A    
C47   N31   1.442693 S    
O11   C7    1.271778 A    
C123  C147  1.197176 T    
C36   N20   1.438783 S    
N44   O103  1.301304 A    
O16   Zn6   1.990740 S    
C43   N27   1.442698 S    
N39   O93   1.301309 A    
O4    C4    1.271726 A    
C12   C60   1.459176 S    
N47   O109  1.301304 A    
C150  C157  1.418709 S    
C103  C113  1.393045 A    
O6    Zn4   1.990721 S    
C87   C105  1.398840 A    
C7    C143  1.419337 S    
N34   O84   1.301582 A    
C119  C135  1.425470 S    
C23   C39   1.396715 A    
H29   C107  1.084056 S    
C35   C49   1.416094 A    
C20   C58   1.396671 A    
O36   C156  1.281603 A    
N8    N9    1.328596 A    
C86   C94   1.416657 A    
O21   Zn1   2.009100 S    
N12   C67   1.356464 A    
C117  C133  1.425409 S    
C14   C62   1.459179 S    
O23   C11   1.275081 A    
C126  C150  1.197184 T    
H26   C110  1.084053 S    
C45   N29   1.442673 S    
N48   O111  1.301303 A    
O13   C7    1.271718 A    
C73   N33   1.442091 S    
O36   Zn9   1.993515 S    
C17   H1    1.083535 S    
C92   C124  1.431308 S    
C3    C139  1.419361 S    
O42   C158  1.280178 A    
O2    Zn2   1.990813 S    
C28   C62   1.396668 A    
C1    C137  1.419361 S    
C10   C58   1.459171 S    
C30   C64   1.396700 A    
N29   O74   1.301580 A    
O28   C14   1.275128 A    
O26   C14   1.274970 A    
O29   C15   1.275095 A    
O30   C16   1.274956 A    
C87   C93   1.416635 A    
O29   Zn5   2.009100 S    
O46   C160  1.280209 A    
C82   C94   1.416616 A    
N37   O90   1.301577 A    
N1    C72   1.354066 A    
N2    C71   1.356439 A    
C124  C148  1.197169 T    
N30   O76   1.301387 A    
C20   C36   1.395656 A    
N28   O72   1.301393 A    
C105  C117  1.393026 A    
C128  C152  1.197139 T    
N38   O91   1.301310 A    
C24   C40   1.395645 A    
C48   C56   1.417137 A    
N21   O58   1.301579 A    
C102  C114  1.393006 A    
C17   C57   1.397038 A    
C100  C116  1.393050 A    
N35   O86   1.301575 A    
O15   Zn7   1.990804 S    
C108  C120  1.393010 A    
C28   C44   1.395657 A    
N25   O65   1.301199 A    
C41   C53   1.416132 A    
C32   C64   1.396698 A    
N46   O108  1.301608 A    
O40   C154  1.281600 A    
O32   Zn6   2.009667 S    
N31   O78   1.301580 A    
C75   C91   1.416624 A    
O14   C6    1.271724 A    
C77   C91   1.416626 A    
C80   N40   1.442096 S    
C29   H13   1.083542 S    
C18   H2    1.083706 S    
C13   C61   1.459340 S    
H31   C105  1.084053 S    
C31   C47   1.396711 A    
C86   N46   1.442101 S    
C22   H6    1.083707 S    
O23   Zn3   2.007800 S    
N16   C65   1.356465 A    
C76   C92   1.416637 A    
H22   C98   1.084050 S    
C120  C136  1.425368 S    
C46   N30   1.438746 S    
O12   C8    1.271720 A    
N40   O96   1.301583 A    
C4    C140  1.419347 S    
C26   C42   1.395845 A    
C74   N34   1.442071 S    
H19   C101  1.084049 S    
C147  C154  1.418689 S    
C39   N23   1.442693 S    
C130  C138  1.196814 T    
C84   C112  1.398811 A    
C40   C52   1.417135 A    
C74   C90   1.416639 A    
O44   C160  1.281573 A    
O30   Zn8   2.007232 S    
N42   O99   1.301285 A    
C134  C142  1.196806 T    
N18   O52   1.301395 A    
C33   C49   1.416133 A    
C18   C58   1.396724 A    
C25   C61   1.397043 A    
N20   O55   1.301515 A    
C93   C125  1.431316 S    
C76   C104  1.398821 A    
C129  C137  1.196820 T    
H20   C104  1.084054 S    
C44   C54   1.417161 A    
C80   C100  1.398860 A    
C146  C153  1.418679 S    
C46   C56   1.417209 A    
N19   O53   1.301176 A    
H24   C100  1.084047 S    
N14   C65   1.356435 A    
N45   O105  1.301281 A    
C50   C71   1.463472 S    
O10   C6    1.271772 A    
C27   H11   1.083540 S    
O18   C10   1.274972 A    
H30   C106  1.084055 S    
C17   C33   1.396713 A    
C116  C132  1.425425 S    
C53   C68   1.451413 S    
C41   N25   1.442675 S    
C54   C67   1.463472 S    
C21   C37   1.396659 A    
C96   C128  1.431248 S    
N32   O80   1.301395 A    
C43   C53   1.416093 A    
C99   C115  1.393008 A    
C118  C134  1.425441 S    
C132  C140  1.196811 T    
C47   C55   1.416084 A    
N24   O63   1.301510 A    
C97   C113  1.393016 A    
N33   O82   1.301580 A    
O22   Zn4   2.007232 S    
O31   Zn7   2.007800 S    
C84   C96   1.416637 A    
N3    C72   1.353973 A    
N4    C71   1.356459 A    
C78   C90   1.416627 A    
O37   C153  1.281637 A    
N8    C69   1.356465 A    
H27   C109  1.084052 S    
C27   C43   1.396651 A    
C81   C111  1.398829 A    
N26   O68   1.301396 A    
N13   C66   1.354059 A    
N17   O49   1.301198 A    
O21   C11   1.275098 A    
C24   H8    1.083711 S    
O22   C12   1.274956 A    
N10   C67   1.356440 A    
C52   C69   1.463475 S    
C135  C143  1.196823 T    
C145  C156  1.418688 S    
O13   Zn5   1.990780 S    
O45   Zn12  1.994111 S    
C34   N18   1.438763 S    
C28   H12   1.083710 S    
C34   C50   1.417183 A    
N43   O101  1.301293 A    
O3    Zn3   1.990723 S    
C85   N45   1.442109 S    
C32   C48   1.395641 A    
C88   N48   1.442086 S    
N27   O69   1.301176 A    
O28   Zn8   2.009676 S    
C25   H9    1.083536 S    
N23   O61   1.301189 A    
C5    C141  1.419337 S    
C75   C101  1.398868 A    
O35   C155  1.281622 A    
N44   O104  1.301577 A    
C18   C34   1.395846 A    
C81   C93   1.416630 A    
C39   C51   1.416084 A    
C31   H15   1.083536 S    
C79   C89   1.416631 A    
H21   C99   1.084051 S    
C22   C38   1.395862 A    
C109  C119  1.393099 A    
C87   N47   1.442075 S    
O11   Zn7   1.990723 S    
H23   C97   1.084052 S    
O1    C1    1.271770 A    
C56   C65   1.463471 S    
C42   N26   1.438760 S    
C8    C144  1.419292 S    
C79   N39   1.442077 S    
C30   C46   1.395859 A    
O5    C3    1.271737 A    
C45   C55   1.416131 A    
C35   N19   1.442698 S    
O7    Zn3   1.990804 S    
C114  C130  1.425422 S    
N48   O112  1.301583 A    
N22   O60   1.301389 A    
C20   H4    1.083710 S    
C122  C146  1.197174 T    
N1    N16   1.328592 A    
O17   Zn1   2.007815 S    
N2    N15   1.328506 A    
O38   C156  1.280178 A    
C25   C41   1.396709 A    
C107  C119  1.393042 A    
C85   C95   1.416654 A    
C83   C109  1.398872 A    
N29   O73   1.301198 A    
C133  C141  1.196802 T    
C77   N37   1.442067 S    
C131  C139  1.196820 T    
C55   C66   1.451418 S    
N15   C66   1.353981 A    
O14   Zn8   1.990721 S    
N31   O77   1.301193 A    
O2    C2    1.271738 A    
N37   O89   1.301311 A    
O37   Zn10  1.994111 S    
C37   N21   1.442670 S    
C23   H7    1.083535 S    
N41   O97   1.301303 A    
C38   C52   1.417205 A    
O8    C4    1.271745 A    
O33   C153  1.280148 A    
O4    Zn4   1.990809 S    
C33   N17   1.442676 S    
N19   O54   1.301588 A    
N38   O92   1.301576 A    
C125  C149  1.197178 T    
C75   N35   1.442092 S    
C136  C144  1.196779 T    
O40   Zn10  1.993517 S    
C91   C123  1.431319 S    
C89   C121  1.431318 S    
C2    C138  1.419354 S    
C11   C59   1.459346 S    
C85   C107  1.398824 A    
C15   C63   1.459346 S    
O16   C8    1.271719 A    
H17   C103  1.084051 S    
H28   C112  1.084054 S    
C32   H16   1.083709 S    
O25   Zn5   2.007815 S    
O6    C2    1.271767 A    
O27   Zn7   2.009093 S    
O39   C155  1.280136 A    
C21   H5    1.083540 S    
O7    C1    1.271750 A    
N21   O57   1.301200 A    
N7    C70   1.353982 A    
O43   Zn11  1.994115 S    
C22   C60   1.396697 A    
O41   Zn11  1.995404 S    
N43   O102  1.301641 A    
C27   C61   1.397079 A    
O19   C9    1.275132 A    
N5    C70   1.354060 A    
O24   C12   1.275147 A    
N47   O110  1.301581 A    
C88   C108  1.398817 A    
C51   C70   1.451418 S    
N27   O70   1.301587 A    
O24   Zn2   2.009667 S    
O12   Zn8   1.990809 S    
N42   O100  1.301637 A    
N20   O56   1.301392 A    
C152  C159  1.418616 S    
C30   H14   1.083704 S    
C19   H3    1.083539 S    
C82   C110  1.398850 A    
N30   O75   1.301514 A    
C38   N22   1.438744 S    
N28   O71   1.301517 A    
C148  C155  1.418681 S    
C83   N43   1.442081 S    
O47   C159  1.281661 A    
N36   O88   1.301591 A    
O26   Zn6   2.007230 S    
C81   N41   1.442068 S    
H25   C111  1.084051 S    
C115  C131  1.425427 S    
N34   O83   1.301306 A    
N7    N10   1.328506 A    
C113  C129  1.425429 S    
N25   O66   1.301584 A    
O38   Zn10  1.995962 S    
C37   C51   1.416133 A    
O20   Zn4   2.009676 S    
N5    N12   1.328567 A    
N9    C68   1.354064 A    
N6    N11   1.328488 A    
O20   C10   1.275130 A    
N46   O107  1.301279 A    
N24   O64   1.301393 A    
C44   N28   1.438783 S    
N33   O81   1.301309 A    
O10   Zn6   1.990813 S    
C121  C145  1.197175 T    
C82   N42   1.442070 S    
O15   C5    1.271759 A    
O9    Zn5   1.990701 S    
N40   O95   1.301307 A    
C26   C62   1.396725 A    
C94   C126  1.431335 S    
H18   C102  1.084052 S    
O41   C157  1.280157 A    
O1    Zn1   1.990701 S    
