data_mof_unit_48210.cif
_audit_creation_date              2012-12-10T17:15:55-0500
_audit_creation_method            fapswitch 2.2
_symmetry_space_group_name_H-M    P1
_symmetry_Int_Tables_number       1
_space_group_crystal_system       triclinic
_cell_length_a                    10.155407
_cell_length_b                    10.970019
_cell_length_c                    10.671076
_cell_angle_alpha                 90.806629
_cell_angle_beta                  98.152978
_cell_angle_gamma                 79.303985
_cell_volume                      1156.25833271

loop_
_atom_site_label
_atom_site_type_symbol
_atom_type_description
_atom_site_fract_x
_atom_site_fract_y
_atom_site_fract_z
_atom_type_partial_charge
C1    C     C_R   0.440827 0.504702 0.266384 0.883025
C2    C     C_2   0.508871 0.534395 0.944090 0.150038
C3    C     C_2   0.071210 0.496078 0.481632 -0.207170
C4    C     C_R   0.501652 0.259205 0.497874 0.861065
C5    C     C_2   0.947468 0.468941 0.529202 0.498306
C6    C     C_R   0.559120 0.493848 0.733662 0.917525
C7    C     C_R   0.501249 0.739510 0.507625 0.844648
C8    C     C_R   0.748447 0.064296 0.450639 0.322044
C9    C     C_R   0.827652 0.968943 0.389806 0.365980
C10   C     C_R   0.844948 0.850703 0.444398 -0.313982
C11   C     C_R   0.754711 0.833235 0.527284 0.374342
C12   C     C_R   0.625798 0.037130 0.483566 -0.102998
C13   C     C_R   0.627234 0.912201 0.509083 -0.052078
C14   C     C_3   0.428480 0.666154 0.913771 -0.371942
C15   C     C_3   0.477521 0.760082 0.008025 -0.817802
C16   C     C_3   0.572557 0.331584 0.087384 -0.366669
C17   C     C_3   0.526016 0.236471 0.993157 -0.786543
C18   C     C_R   0.507347 0.125013 0.500222 -0.078560
C19   C     C_R   0.390263 0.082662 0.523633 -0.136656
C20   C     C_R   0.388626 0.956994 0.529661 -0.130836
C21   C     C_R   0.506185 0.871009 0.519949 -0.117599
C22   C     C_2   0.401046 0.514353 0.131214 -0.363150
C23   C     C_2   0.491002 0.462744 0.056097 0.166155
C24   C     C_2   0.598653 0.482884 0.868816 -0.306871
H1    H     H_    0.297859 0.146707 0.534916 0.217027
H2    H     H_    0.039507 0.049042 0.698622 0.392955
H3    H     H_    0.960481 0.160900 0.181740 0.385180
H4    H     H_    0.669356 0.721400 0.769709 0.329234
H5    H     H_    0.462359 0.739951 0.105899 0.255481
H6    H     H_    0.586837 0.759256 0.006398 0.278781
H7    H     H_    0.420326 0.854610 0.980960 0.262117
H8    H     H_    0.440841 0.699546 0.819164 0.200239
H9    H     H_    0.318289 0.668854 0.910701 0.236602
H10   H     H_    0.416792 0.236024 0.993731 0.251763
H11   H     H_    0.541935 0.256240 0.895433 0.265657
H12   H     H_    0.318696 0.590051 0.099675 0.168455
H13   H     H_    0.584292 0.142525 0.021164 0.277689
H14   H     H_    0.682593 0.330204 0.091249 0.233748
H15   H     H_    0.559393 0.298381 0.181880 0.214061
H16   H     H_    0.096351 0.457115 0.392129 0.157233
H17   H     H_    0.850225 0.464379 0.355442 0.135721
H18   H     H_    0.134596 0.585343 0.636855 0.261304
H19   H     H_    0.936464 0.783368 0.438924 0.197577
H20   H     H_    0.295406 0.927217 0.542068 0.216138
H21   H     H_    0.680668 0.406839 0.900069 0.182317
H22   H     H_    0.149516 0.303243 0.804583 0.370443
N1    N     N_2   0.157290 0.551390 0.551110 -0.168653
N2    N     N_2   0.842740 0.448550 0.448960 -0.199795
O1    O     O_R   0.568950 0.489660 0.307530 -0.620492
O2    O     O_2   0.876226 0.356302 0.735244 -0.206572
O3    O     O_3   0.128196 0.320406 0.712315 -0.563416
O4    O     O_2   0.914132 0.216857 0.521439 -0.251537
O5    O     O_2   0.772641 0.167964 0.679076 -0.246614
O6    O     O_3   0.981986 0.006886 0.636108 -0.485404
O7    O     O_2   0.080307 0.991490 0.367876 -0.281713
O8    O     O_2   0.948330 0.911913 0.185239 -0.270861
O9    O     O_3   0.890488 0.147870 0.233425 -0.567253
O10   O     O_2   0.971639 0.758983 0.701921 -0.247303
O11   O     O_2   0.784305 0.906036 0.767375 -0.231951
O12   O     O_R   0.348880 0.522640 0.340350 -0.596278
O13   O     O_3   0.752938 0.679613 0.737744 -0.497550
O14   O     O_R   0.610060 0.300270 0.483590 -0.566598
O15   O     O_R   0.389990 0.333260 0.516410 -0.602142
O16   O     O_R   0.651120 0.477360 0.659650 -0.496673
O17   O     O_R   0.431050 0.510340 0.692470 -0.617610
O18   O     O_R   0.610010 0.666740 0.483590 -0.621757
O19   O     O_R   0.389940 0.699730 0.516410 -0.607304
O20   O     O_2   0.994905 0.527038 0.780173 -0.250957
S1    S     S_3+6 0.979493 0.420609 0.693116 0.108703
S2    S     S_3+6 0.853474 0.119302 0.575513 0.133327
S3    S     S_3+6 0.942173 0.002674 0.292009 0.057240
S4    S     S_3+6 0.820327 0.794632 0.686691 0.097817
Zn1   Zn    Zn3+2 0.646940 0.477980 0.478090 1.073213
Zn2   Zn    Zn3+2 0.353060 0.522020 0.521910 1.008139

loop_
_geom_bond_atom_site_label_1
_geom_bond_atom_site_label_2
_ccdc_geom_bond_type
N2    Zn1   S    
C6    O16   A    
O16   Zn1   S    
O14   Zn1   S    
C15   H7    S    
C6    C24   S    
O15   Zn2   S    
C22   H12   S    
C9    C10   A    
C8    S2    S    
C19   C20   A    
O6    S2    S    
O11   S4    D    
C8    C12   A    
O8    S3    D    
C4    C18   S    
H4    O13   S    
C14   H9    S    
C13   C21   A    
C1    C22   S    
O19   Zn2   S    
C17   H13   S    
O9    S3    S    
C7    O18   A    
H3    O9    S    
C12   C13   A    
C11   C13   A    
C4    O15   A    
O10   S4    D    
C16   C17   S    
C2    C14   S    
O5    S2    D    
H2    O6    S    
O13   S4    S    
O12   Zn2   S    
C20   H20   S    
H17   N2    S    
C3    H16   S    
C15   H5    S    
C16   C23   S    
H18   N1    S    
C22   C23   D    
C2    C24   D    
C19   H1    S    
C5    N2    D    
O1    Zn1   S    
C11   S4    S    
O4    S2    D    
C17   H10   S    
C24   H21   S    
C16   H15   S    
C12   C18   A    
C4    O14   A    
C20   C21   A    
C15   H6    S    
C18   C19   A    
C10   C11   A    
C1    O12   A    
C3    N1    D    
C2    C23   S    
C14   C15   S    
O20   S1    D    
C5    S1    S    
C17   H11   S    
O3    S1    S    
C16   H14   S    
C10   H19   S    
C7    C21   S    
O18   Zn1   S    
C1    O1    A    
H22   O3    S    
O2    S1    D    
C6    O17   A    
O7    S3    D    
O17   Zn2   S    
C9    S3    S    
N1    Zn2   S    
C14   H8    S    
C8    C9    A    
C3    C5    S    
C7    O19   A    
