data_mof_unit_58326.cif
_audit_creation_date              2012-12-11T17:44:05-0500
_audit_creation_method            fapswitch 2.2
_symmetry_space_group_name_H-M    P1
_symmetry_Int_Tables_number       1
_space_group_crystal_system       triclinic
_cell_length_a                    20.22279
_cell_length_b                    22.73681
_cell_length_c                    6.943986
_cell_angle_alpha                 89.999188
_cell_angle_beta                  86.918924
_cell_angle_gamma                 89.999789
_cell_volume                      3188.24145579

loop_
_atom_site_label
_atom_site_type_symbol
_atom_type_description
_atom_site_fract_x
_atom_site_fract_y
_atom_site_fract_z
_atom_type_partial_charge
O1    O     O_R   0.751270 0.447300 0.600030 -0.541098
O2    O     O_R   0.248730 0.947300 0.399970 -0.541103
O3    O     O_R   0.613530 0.440160 0.952150 -0.537188
O4    O     O_R   0.386470 0.940160 0.047850 -0.537188
O5    O     O_R   0.613050 0.552700 0.122560 -0.534826
O6    O     O_R   0.386950 0.052700 0.877440 -0.534828
C1    C     C_R   0.591547 0.425428 0.786920 0.698556
C2    C     C_R   0.408453 0.925428 0.213082 0.698561
O7    O     O_R   0.750780 0.440350 0.929820 -0.545041
O8    O     O_R   0.249220 0.940350 0.070180 -0.545041
O9    O     O_R   0.751280 0.552900 0.100070 -0.540147
O10   O     O_R   0.248720 0.052900 0.899930 -0.540146
C3    C     C_R   0.773847 0.426032 0.757519 0.694611
C4    C     C_R   0.226152 0.926032 0.242483 0.694617
O11   O     O_R   0.613040 0.447100 0.622520 -0.535874
O12   O     O_R   0.386960 0.947100 0.377480 -0.535872
O13   O     O_3   0.682160 0.536920 0.777780 -0.365133
O14   O     O_3   0.317840 0.036920 0.222220 -0.365135
V1    V     V_3+5 0.682160 0.493150 0.052630 1.420548
V2    V     V_3+5 0.317840 0.993150 0.947370 1.420544
O15   O     O_R   0.750790 0.559840 0.429870 -0.542866
O16   O     O_R   0.249210 0.059840 0.570130 -0.542868
C5    C     C_R   0.773568 0.574357 0.257608 0.711367
C6    C     C_R   0.226432 0.074358 0.742390 0.711366
O17   O     O_R   0.613540 0.559650 0.452200 -0.535825
O18   O     O_R   0.386460 0.059650 0.547800 -0.535824
C7    C     C_R   0.591635 0.574425 0.286948 0.691950
C8    C     C_R   0.408364 0.074425 0.713049 0.691951
V3    V     V_3+5 0.682160 0.506850 0.552630 1.426239
V4    V     V_3+5 0.317840 0.006850 0.447370 1.426237
O19   O     O_3   0.682150 0.463080 0.277610 -0.369592
O20   O     O_3   0.317850 0.963080 0.722390 -0.369590
C9    C     C_R   0.579479 0.860341 0.162518 -0.147968
C10   C     C_R   0.420525 0.360337 0.837592 -0.147973
H1    H     H_    0.538196 0.946814 0.142133 0.109359
H2    H     H_    0.461807 0.446809 0.857980 0.109360
H3    H     H_    0.670521 0.776487 0.154511 0.144584
H4    H     H_    0.329484 0.276481 0.845652 0.144578
H5    H     H_    0.629420 0.876093 0.129993 0.125724
H6    H     H_    0.370585 0.376087 0.870170 0.125721
C11   C     C_R   0.462737 0.882119 0.212014 -0.042239
C12   C     C_R   0.537263 0.382119 0.787997 -0.042243
C13   C     C_R   0.472593 0.595762 0.329240 -0.165507
C14   C     C_R   0.527405 0.095766 0.670681 -0.165499
C15   C     C_R   0.418616 0.633673 0.338249 -0.114557
C16   C     C_R   0.581380 0.133677 0.661639 -0.114556
C17   C     C_R   0.427322 0.693836 0.308123 -0.155284
C18   C     C_R   0.572675 0.193840 0.691795 -0.155283
C19   C     C_R   0.491053 0.717952 0.267391 0.077857
C20   C     C_R   0.508947 0.217953 0.732591 0.077856
C21   C     C_R   0.546422 0.678524 0.256761 0.065089
C22   C     C_R   0.453579 0.178524 0.743258 0.065088
C23   C     C_R   0.501643 0.779759 0.237106 0.074313
C24   C     C_R   0.498357 0.279759 0.762904 0.074313
C25   C     C_R   0.567264 0.800286 0.195369 0.130627
C26   C     C_R   0.432739 0.300283 0.804708 0.130630
C27   C     C_R   0.620444 0.760886 0.185922 -0.182369
C28   C     C_R   0.379560 0.260882 0.814190 -0.182374
C29   C     C_R   0.610339 0.701086 0.216409 -0.187870
C30   C     C_R   0.389664 0.201083 0.783674 -0.187875
C31   C     C_R   0.449690 0.822147 0.245961 -0.212645
C32   C     C_R   0.550308 0.322148 0.754014 -0.212649
C33   C     C_R   0.527651 0.900764 0.169743 -0.170900
C34   C     C_R   0.472352 0.400760 0.830337 -0.170895
C35   C     C_R   0.536559 0.617228 0.288341 -0.085528
C36   C     C_R   0.463441 0.117228 0.711646 -0.085534
H7    H     H_    0.398675 0.810144 0.276797 0.093474
H8    H     H_    0.601322 0.310147 0.723129 0.093476
H9    H     H_    0.464437 0.549227 0.354682 0.108218
H10   H     H_    0.535560 0.049232 0.645210 0.108220
H11   H     H_    0.383064 0.720227 0.317890 0.109764
H12   H     H_    0.616932 0.220231 0.681998 0.109763
H13   H     H_    0.369382 0.616267 0.369692 0.125215
H14   H     H_    0.630613 0.116274 0.630145 0.125214
H15   H     H_    0.653263 0.672544 0.207719 0.115701
H16   H     H_    0.346741 0.172540 0.792392 0.115709
C37   C     C_R   0.171425 0.882043 0.260324 -0.046464
C38   C     C_R   0.828572 0.382041 0.739688 -0.046447
C39   C     C_R   0.139950 0.862093 0.096352 -0.213761
C40   C     C_R   0.860153 0.362200 0.903609 -0.213782
C41   C     C_R   0.088149 0.821080 0.113630 -0.148376
C42   C     C_R   0.911950 0.321183 0.886342 -0.148364
C43   C     C_R   0.066644 0.798761 0.296308 0.438800
C44   C     C_R   0.933343 0.298748 0.703729 0.438799
C45   C     C_R   0.098375 0.818394 0.458944 -0.161187
C46   C     C_R   0.901507 0.318277 0.541147 -0.161224
C47   C     C_R   0.149830 0.859610 0.441877 -0.209723
C48   C     C_R   0.850057 0.359498 0.558199 -0.209758
C49   C     C_R   0.890245 0.699028 0.380338 0.278392
C50   C     C_R   0.109753 0.199029 0.619656 0.278382
C51   C     C_R   0.840031 0.656319 0.395708 -0.245061
C52   C     C_R   0.159966 0.156319 0.604280 -0.245064
C53   C     C_R   0.930966 0.703588 0.207624 0.379071
C54   C     C_R   0.069041 0.203594 0.792380 0.379094
N1    N     N_2   0.014488 0.756531 0.323941 -0.245201
N2    N     N_2   0.985492 0.256510 0.676111 -0.245227
N3    N     N_2   0.983026 0.745769 0.177995 -0.271692
N4    N     N_2   0.016990 0.245784 0.822007 -0.271684
C55   C     C_R   0.827497 0.618961 0.240321 -0.100903
C56   C     C_R   0.172503 0.118962 0.759675 -0.100900
H17   H     H_    0.809503 0.653481 0.528428 0.167782
H18   H     H_    0.190489 0.153478 0.471552 0.167776
H19   H     H_    0.082892 0.801752 0.600409 0.137886
H20   H     H_    0.916903 0.301546 0.399734 0.137841
H21   H     H_    0.172853 0.873693 0.571336 0.134408
H22   H     H_    0.826946 0.373494 0.428785 0.134421
C57   C     C_R   0.866435 0.625149 0.067880 -0.188091
C58   C     C_R   0.133570 0.125154 0.932125 -0.188097
C59   C     C_R   0.917433 0.666767 0.052554 -0.178470
C60   C     C_R   0.082575 0.166775 0.947455 -0.178474
H23   H     H_    0.857982 0.597365 0.944906 0.147683
H24   H     H_    0.142025 0.097371 0.055105 0.147687
H25   H     H_    0.065361 0.806849 0.984021 0.148736
H26   H     H_    0.934827 0.307044 0.015912 0.148847
H27   H     H_    0.947129 0.670111 0.918514 0.173500
H28   H     H_    0.052883 0.170123 0.081503 0.173518
H29   H     H_    0.155112 0.878359 0.954213 0.133670
H30   H     H_    0.845082 0.378559 0.045694 0.133707
Br1   Br    Br    0.895701 0.752339 0.593754 -0.541755
Br2   Br    Br    0.104284 0.252340 0.406240 -0.541767

loop_
_geom_bond_atom_site_label_1
_geom_bond_atom_site_label_2
_ccdc_geom_bond_type
C9    C25   A    
C5    C55   S    
C10   C26   A    
O11   V3    S    
C29   H15   S    
O13   V3    S    
C14   C36   A    
C11   C31   A    
O4    C2    A    
V1    O19   S    
C17   C19   A    
O9    V1    S    
C9    H5    S    
C10   H6    S    
C18   H12   S    
C60   H28   S    
O3    C1    A    
C44   N2    S    
C38   C40   A    
C4    C37   S    
C54   N4    S    
C28   C30   A    
C46   C48   A    
C15   H13   S    
C21   C35   A    
C15   C17   A    
O7    C3    A    
C22   C30   A    
H4    C28   S    
C23   C31   A    
O7    V1    S    
O6    C8    A    
C49   Br1   S    
C26   C28   A    
C19   C21   A    
N2    N4    D    
C20   C22   A    
O3    V1    S    
O14   V4    S    
C49   C51   A    
C12   C32   A    
C45   H19   S    
C52   H18   S    
C18   C20   A    
C46   H20   S    
C2    O12   A    
O5    C7    A    
C57   C59   A    
C51   H17   S    
C10   C34   A    
C41   C43   A    
C14   C16   A    
C50   C54   A    
C40   H30   S    
C23   C25   A    
O17   V3    S    
C24   C26   A    
C9    C33   A    
C56   C58   A    
C45   C47   A    
C2    C11   S    
C42   H26   S    
C40   C42   A    
O8    C4    A    
O8    V2    S    
C39   C41   A    
C1    O11   A    
C24   C32   A    
O15   V3    S    
C30   H16   S    
C58   H24   S    
C50   Br2   S    
C8    C36   S    
C1    C12   S    
C7    C35   S    
C48   H22   S    
C31   H7    S    
C50   C52   A    
C47   H21   S    
C13   C35   A    
C43   N1    S    
O10   V2    S    
O1    V3    S    
C37   C39   A    
C20   C24   A    
C14   H10   S    
C13   C15   A    
C17   H11   S    
C43   C45   A    
O18   V4    S    
C42   C44   A    
O15   C5    A    
O16   C6    A    
O1    C3    A    
C11   C33   A    
C53   N3    S    
C16   H14   S    
C22   C36   A    
C52   C56   A    
V2    O20   S    
C38   C48   A    
C3    C38   S    
O16   V4    S    
C6    C56   S    
C57   H23   S    
C44   C46   A    
C12   C34   A    
N1    N3    D    
O5    V1    S    
O17   C7    A    
C55   C57   A    
O10   C6    A    
O18   C8    A    
C32   H8    S    
O2    V4    S    
C25   C27   A    
V3    O19   S    
V4    O20   S    
C58   C60   A    
O6    V2    S    
C19   C23   A    
C39   H29   S    
O9    C5    A    
O13   V1    S    
C54   C60   A    
O14   V2    S    
C49   C53   A    
O2    C4    A    
C27   C29   A    
C59   H27   S    
O4    V2    S    
C16   C18   A    
C21   C29   A    
C37   C47   A    
C13   H9    S    
C41   H25   S    
H1    C33   S    
C51   C55   A    
H2    C34   S    
O12   V4    S    
H3    C27   S    
C53   C59   A    
