data_mof_unit_36433.cif
_audit_creation_date              2012-12-10T17:06:43-0500
_audit_creation_method            fapswitch 2.2
_symmetry_space_group_name_H-M    P1
_symmetry_Int_Tables_number       1
_space_group_crystal_system       triclinic
_cell_length_a                    15.843242
_cell_length_b                    11.076331
_cell_length_c                    9.817114
_cell_angle_alpha                 111.087648
_cell_angle_beta                  98.022526
_cell_angle_gamma                 90.793258
_cell_volume                      1587.82368641

loop_
_atom_site_label
_atom_site_type_symbol
_atom_type_description
_atom_site_fract_x
_atom_site_fract_y
_atom_site_fract_z
_atom_type_partial_charge
C1    C     C_R   0.496130 0.254747 0.440845 0.857842
C2    C     C_R   0.505207 0.745521 0.558978 0.861309
C3    C     C_2   0.518895 0.066998 0.511575 0.375198
C4    C     C_2   0.490268 0.932744 0.485626 0.382689
C5    C     C_2   0.507072 0.510949 0.081336 -0.043266
C6    C     C_2   0.492795 0.489266 0.918731 -0.044710
C7    C     C_R   0.339894 0.499914 0.501332 0.804342
C8    C     C_R   0.660043 0.498924 0.498479 0.806193
C9    C     C_3   0.976830 0.412197 0.564563 -0.310560
C10   C     C_3   0.022811 0.578351 0.436760 -0.308169
C11   C     C_3   0.021467 0.378205 0.426764 0.554077
C12   C     C_3   0.978391 0.612399 0.574531 0.557087
C13   C     C_1   0.250430 0.500148 0.504132 -0.173359
C14   C     C_1   0.749381 0.495551 0.495500 -0.177077
C15   C     C_3   0.039444 0.534907 0.642920 -0.297389
C16   C     C_3   0.960436 0.455514 0.358302 -0.293581
C17   C     C_3   0.083113 0.498675 0.503597 0.071347
C18   C     C_3   0.916651 0.492095 0.497487 0.067603
C19   C     C_1   0.174889 0.499790 0.504657 0.000408
C20   C     C_1   0.824899 0.493191 0.495587 -0.001137
C21   C     C_2   0.492274 0.116457 0.407729 -0.456167
C22   C     C_2   0.513961 0.883750 0.590668 -0.426517
Cu1   Cu    Cu3+1 0.514700 0.521810 0.644910 0.952407
Cu2   Cu    Cu3+1 0.485300 0.478190 0.355090 0.952752
N1    N     N_2   0.463210 0.445420 0.137360 -0.289026
N2    N     N_2   0.536790 0.554580 0.862640 -0.286081
O1    O     O_R   0.507840 0.332340 0.577400 -0.534343
O2    O     O_R   0.492160 0.667660 0.422600 -0.525962
O3    O     O_R   0.483020 0.295500 0.332650 -0.578323
O4    O     O_R   0.516980 0.704500 0.667350 -0.581756
O5    O     O_R   0.391490 0.518400 0.622350 -0.576184
O6    O     O_R   0.608510 0.481600 0.377650 -0.576803
O7    O     O_R   0.366660 0.481570 0.377600 -0.577368
O8    O     O_R   0.633340 0.518430 0.622400 -0.575389
O9    O     O_3   0.051112 0.256998 0.348321 -0.611693
C23   C     C_3   0.985058 0.157139 0.303483 0.041944
H1    H     H_    0.980549 0.105656 0.182289 0.172252
H2    H     H_    0.920360 0.191414 0.323645 0.121123
C24   C     C_3   0.008072 0.061722 0.381089 -0.348673
H3    H     H_    0.073765 0.031354 0.365740 0.229522
H4    H     H_    0.006829 0.110389 0.501423 0.210359
C25   C     C_3   0.946093 0.941220 0.320053 -0.919003
H5    H     H_    0.879666 0.968647 0.332402 0.259131
H6    H     H_    0.963357 0.876166 0.381732 0.262501
H7    H     H_    0.949538 0.887706 0.201334 0.256755
O10   O     O_3   0.949488 0.735188 0.649823 -0.612826
C26   C     C_3   0.019375 0.827333 0.723056 0.043381
H8    H     H_    0.006275 0.916268 0.698438 0.159573
H9    H     H_    0.081661 0.796109 0.685619 0.130372
C27   C     C_3   0.026984 0.861806 0.890182 -0.347947
H10   H     H_    0.967717 0.905248 0.928495 0.219888
H11   H     H_    0.034208 0.772644 0.916394 0.215561
C28   C     C_3   0.103606 0.957497 0.973433 -0.920593
H12   H     H_    0.163610 0.915777 0.936888 0.254096
H13   H     H_    0.108315 0.978319 0.093723 0.265020
H14   H     H_    0.096218 0.049820 0.953942 0.262965
H15   H     H_    0.956307 0.343202 0.614195 0.148999
H16   H     H_    0.041818 0.648638 0.387884 0.149986
H17   H     H_    0.927137 0.420405 0.242416 0.151555
H18   H     H_    0.073674 0.567739 0.757998 0.149140
O11   O     O_3   0.443600 0.855859 0.350011 -0.601502
C29   C     C_3   0.355887 0.880933 0.346639 0.027755
H19   H     H_    0.334347 0.900499 0.244340 0.162175
H20   H     H_    0.341893 0.967299 0.441231 0.121150
C30   C     C_3   0.303839 0.761420 0.340601 -0.266539
H21   H     H_    0.318846 0.674897 0.248428 0.244771
H22   H     H_    0.321380 0.745306 0.445965 0.199656
C31   C     C_3   0.208060 0.777746 0.317395 -0.967263
H23   H     H_    0.190782 0.860013 0.411794 0.252834
H24   H     H_    0.172764 0.687687 0.309446 0.261058
H25   H     H_    0.188701 0.795449 0.213334 0.262204
O12   O     O_3   0.565541 0.142624 0.648098 -0.609801
C32   C     C_3   0.650966 0.168533 0.632684 0.106564
H26   H     H_    0.676430 0.259342 0.725836 0.176760
H27   H     H_    0.656133 0.186819 0.529530 0.115261
C33   C     C_3   0.706916 0.058855 0.641226 -0.388195
H28   H     H_    0.701664 0.041463 0.744480 0.227749
H29   H     H_    0.684550 0.968302 0.545411 0.215541
C34   C     C_3   0.800490 0.092425 0.639533 -0.914582
H30   H     H_    0.807195 0.112175 0.538225 0.250220
H31   H     H_    0.839021 0.009793 0.641121 0.274825
H32   H     H_    0.825709 0.179286 0.738169 0.250894
H33   H     H_    0.545621 0.945119 0.699911 0.162028
H34   H     H_    0.461701 0.054824 0.297926 0.157038
H35   H     H_    0.443898 0.416326 0.845772 0.167098
H36   H     H_    0.555893 0.584004 0.154334 0.169578
H37   H     H_    0.582786 0.623259 0.934478 0.195039
H38   H     H_    0.417254 0.376680 0.065508 0.194207

loop_
_geom_bond_atom_site_label_1
_geom_bond_atom_site_label_2
_ccdc_geom_bond_type
C1    C21   S    
C7    O7    A    
C32   H26   S    
O9    C23   S    
C33   C34   S    
C26   H9    S    
C28   H12   S    
C6    H35   S    
C23   H1    S    
C10   H16   S    
C33   H29   S    
C5    C6    S    
C10   C17   S    
C15   H18   S    
Cu1   N2    S    
Cu2   O3    S    
C29   H20   S    
C31   H23   S    
C30   H22   S    
C2    C22   S    
C27   H11   S    
Cu1   Cu2   S    
C21   H34   S    
Cu1   O1    S    
C24   C25   S    
C9    H15   S    
C30   C31   S    
C32   H27   S    
C25   H6    S    
C26   C27   S    
C28   H13   S    
C27   C28   S    
C7    O5    A    
C13   C19   T    
C8    O6    A    
Cu1   O4    S    
C14   C20   T    
C33   H28   S    
C12   O10   S    
C24   H3    S    
C34   H31   S    
N2    H37   S    
C4    O11   S    
N1    H38   S    
C25   H7    S    
Cu1   O5    S    
Cu2   O6    S    
C29   H19   S    
C4    C22   D    
C11   C16   S    
C26   H8    S    
C12   C15   S    
Cu1   O8    S    
C1    O3    A    
C27   H10   S    
C8    O8    A    
Cu2   N1    S    
C9    C11   S    
C10   C12   S    
C5    N1    D    
C5    H36   S    
C16   C18   S    
C32   C33   S    
C3    C21   D    
C25   H5    S    
C3    C4    S    
C28   H14   S    
C15   C17   S    
O10   C26   S    
C11   C17   S    
C8    C14   S    
C29   C30   S    
C23   C24   S    
Cu2   O2    S    
O12   C32   S    
C34   H32   S    
Cu2   O7    S    
C2    O4    A    
C22   H33   S    
C23   H2    S    
C3    O12   S    
C9    C15   S    
C10   C16   S    
C6    N2    D    
C31   H25   S    
C11   O9    S    
C17   C19   S    
C18   C20   S    
O11   C29   S    
C34   H30   S    
C9    C18   S    
C7    C13   S    
C24   H4    S    
C31   H24   S    
C30   H21   S    
C12   C18   S    
C1    O1    A    
C2    O2    A    
C16   H17   S    
