data_mof_unit_44799.cif
_audit_creation_date              2012-12-10T16:53:09-0500
_audit_creation_method            fapswitch 2.2
_symmetry_space_group_name_H-M    P1
_symmetry_Int_Tables_number       1
_space_group_crystal_system       triclinic
_cell_length_a                    10.828633
_cell_length_b                    10.896968
_cell_length_c                    9.720872
_cell_angle_alpha                 88.112636
_cell_angle_beta                  90.598012
_cell_angle_gamma                 89.898902
_cell_volume                      1146.36850535

loop_
_atom_site_label
_atom_site_type_symbol
_atom_type_description
_atom_site_fract_x
_atom_site_fract_y
_atom_site_fract_z
_atom_type_partial_charge
C1    C     C_R   0.494163 0.265581 0.502263 0.855293
C2    C     C_R   0.065065 0.549129 0.622874 -0.029015
C3    C     C_R   0.129306 0.530555 0.499015 -0.107067
C4    C     C_R   0.063102 0.510570 0.377525 -0.197901
C5    C     C_R   0.935999 0.500616 0.380453 -0.207825
C6    C     C_R   0.873897 0.495923 0.506187 -0.076720
C7    C     C_2   0.445058 0.935340 0.406841 0.381866
C8    C     C_2   0.519689 0.867068 0.491591 0.247885
C9    C     C_2   0.463038 0.069401 0.397060 -0.211141
C10   C     C_2   0.475250 0.134398 0.510209 -0.324159
C11   C     C_2   0.491191 0.403424 0.931925 0.026367
C12   C     C_R   0.263153 0.512914 0.499233 0.838483
C13   C     C_2   0.446693 0.418297 0.077893 0.566572
C14   C     C_R   0.503467 0.734421 0.497884 0.797776
C15   C     C_R   0.738330 0.495262 0.501753 0.768707
C16   C     C_R   0.118541 0.603705 0.740724 0.446545
C17   C     C_R   0.067003 0.579901 0.869888 -0.304989
C18   C     C_R   0.961888 0.507187 0.882822 0.475740
C19   C     C_R   0.896178 0.476549 0.763328 -0.269051
C20   C     C_R   0.942465 0.507375 0.631054 -0.026208
Cu1   Cu    Cu3+1 0.500020 0.500020 0.638630 0.957649
Cu2   Cu    Cu3+1 0.499980 0.499980 0.361370 0.999987
H1    H     H_    0.109346 0.501636 0.280036 0.190143
H2    H     H_    0.466404 0.090827 0.611815 0.176732
H3    H     H_    0.467327 0.579993 0.885258 0.208962
H4    H     H_    0.564354 0.553460 0.105994 0.160509
H5    H     H_    0.111338 0.614848 0.960972 0.171880
H6    H     H_    0.813387 0.423204 0.776412 0.180768
H7    H     H_    0.886540 0.492999 0.284015 0.211647
H8    H     H_    0.462173 0.114288 0.296019 0.185108
N1    N     N_2   0.498640 0.498660 0.846910 -0.310527
N2    N     N_2   0.498610 0.498630 0.153040 -0.316084
O1    O     O_R   0.500020 0.321960 0.617040 -0.615117
O2    O     O_R   0.499980 0.321920 0.382900 -0.532425
O3    O     O_R   0.319670 0.500020 0.617100 -0.539249
O4    O     O_R   0.319630 0.499980 0.382950 -0.551518
O5    O     O_R   0.500020 0.678080 0.617100 -0.556357
O6    O     O_R   0.499980 0.678040 0.382960 -0.556542
O7    O     O_R   0.680370 0.500020 0.617050 -0.592170
O8    O     O_R   0.680330 0.499980 0.382900 -0.587162
C21   C     C_3   0.537149 0.278212 0.890811 -0.310826
C22   C     C_3   0.577073 0.191739 0.011433 -0.417797
C23   C     C_3   0.646774 0.080278 0.960632 -0.839816
H9    H     H_    0.588089 0.028971 0.887851 0.280407
H10   H     H_    0.733012 0.109369 0.908105 0.243981
H11   H     H_    0.671516 0.018164 0.049563 0.251624
H12   H     H_    0.636841 0.240856 0.085089 0.226882
H13   H     H_    0.494008 0.157518 0.065980 0.254594
H14   H     H_    0.462390 0.231249 0.834251 0.203468
H15   H     H_    0.619114 0.292621 0.824394 0.224731
O9    O     O_3   0.366952 0.334709 0.140542 -0.556130
C24   C     C_3   0.260373 0.321024 0.058233 -0.373883
H16   H     H_    0.280277 0.268001 0.965460 0.156943
H17   H     H_    0.218163 0.411351 0.028752 0.176705
H18   H     H_    0.191241 0.268336 0.119244 0.183570
O10   O     O_3   0.220672 0.679918 0.733452 -0.553124
C25   C     C_3   0.188090 0.790075 0.661663 -0.319741
H19   H     H_    0.106174 0.834300 0.707775 0.146649
H20   H     H_    0.171229 0.774707 0.550607 0.163752
H21   H     H_    0.266427 0.855106 0.668890 0.183652
O11   O     O_3   0.920151 0.475691 0.013417 -0.582405
C26   C     C_3   0.908970 0.346781 0.028197 -0.382551
H22   H     H_    0.989510 0.297526 0.985484 0.151838
H23   H     H_    0.822193 0.315256 0.979592 0.177224
H24   H     H_    0.904503 0.320867 0.139248 0.187705
O12   O     O_3   0.362291 0.876211 0.319976 -0.586465
C27   C     C_3   0.256702 0.948690 0.289850 -0.339321
H25   H     H_    0.278009 0.022663 0.212392 0.180808
H26   H     H_    0.217079 0.987555 0.384340 0.150089
H27   H     H_    0.184956 0.889432 0.244254 0.191461
O13   O     O_3   0.607777 0.922992 0.574583 -0.608160
C28   C     C_3   0.720699 0.857800 0.576637 -0.323542
H28   H     H_    0.748820 0.831600 0.471630 0.144869
H29   H     H_    0.715889 0.775516 0.646890 0.190588
H30   H     H_    0.793909 0.918214 0.617291 0.184828

loop_
_geom_bond_atom_site_label_1
_geom_bond_atom_site_label_2
_ccdc_geom_bond_type
H3    N1    S    
C26   H23   S    
C23   H9    S    
C16   O10   S    
C18   O11   S    
H4    N2    S    
C26   H22   S    
Cu1   O3    S    
Cu1   O1    S    
C12   O4    A    
C2    C16   A    
C9    C10   D    
C13   N2    D    
C19   C20   A    
Cu1   O7    S    
C24   H18   S    
C28   H28   S    
C27   H27   S    
Cu2   O8    S    
C8    O13   S    
C2    C3    A    
C3    C4    A    
C11   N1    D    
O13   C28   S    
C23   H10   S    
C22   H13   S    
Cu1   Cu2   S    
C24   H16   S    
C7    O12   S    
C19   H6    S    
Cu1   N1    S    
C15   O7    A    
C25   H19   S    
C5    C6    A    
Cu2   N2    S    
C9    H8    S    
C28   H30   S    
C21   H14   S    
Cu2   O4    S    
C24   H17   S    
C1    O2    A    
C17   C18   A    
C5    H7    S    
C22   H12   S    
O11   C26   S    
Cu2   O2    S    
C23   H11   S    
C12   O3    A    
C15   O8    A    
C25   H20   S    
C11   C13   S    
C14   O6    A    
C22   C23   S    
C1    O1    A    
O9    C24   S    
C17   H5    S    
C21   H15   S    
C7    C8    D    
C6    C20   A    
O10   C25   S    
Cu1   O5    S    
C28   H29   S    
C18   C19   A    
C21   C22   S    
C11   C21   S    
O12   C27   S    
C7    C9    S    
C4    H1    S    
C16   C17   A    
C25   H21   S    
C8    C14   S    
C3    C12   S    
C26   H24   S    
C27   H26   S    
C6    C15   S    
C13   O9    S    
C2    C20   A    
C10   H2    S    
C1    C10   S    
C27   H25   S    
C4    C5    A    
C14   O5    A    
Cu2   O6    S    
