data_mof_unit_43401.cif
_audit_creation_date              2012-12-10T19:42:13-0500
_audit_creation_method            fapswitch 2.2
_symmetry_space_group_name_H-M    P1
_symmetry_Int_Tables_number       1
_space_group_crystal_system       triclinic
_cell_length_a                    10.860868
_cell_length_b                    10.919754
_cell_length_c                    9.673722
_cell_angle_alpha                 89.505943
_cell_angle_beta                  90.176559
_cell_angle_gamma                 90.32146
_cell_volume                      1147.21816039

loop_
_atom_site_label
_atom_site_type_symbol
_atom_type_description
_atom_site_fract_x
_atom_site_fract_y
_atom_site_fract_z
_atom_type_partial_charge
C1    C     C_R   0.494625 0.265063 0.500757 0.813969
C2    C     C_R   0.794998 0.444467 0.978928 -0.155283
C3    C     C_R   0.759323 0.321479 0.984670 -0.143730
C4    C     C_R   0.262192 0.501930 0.499388 0.789087
C5    C     C_R   0.783066 0.244501 0.873909 -0.156417
C6    C     C_R   0.842487 0.290087 0.756563 -0.173915
C7    C     C_R   0.879349 0.413351 0.749079 0.056922
C8    C     C_2   0.490286 0.933805 0.387375 -0.179819
C9    C     C_2   0.517285 0.866031 0.498934 -0.327683
C10   C     C_2   0.501839 0.067164 0.391521 -0.252042
C11   C     C_2   0.471548 0.133527 0.503255 0.126929
C12   C     C_R   0.231614 0.677328 0.010164 -0.137795
C13   C     C_2   0.443881 0.417180 0.922865 -0.069393
C14   C     C_2   0.454543 0.411061 0.078162 -0.070352
C15   C     C_R   0.503865 0.734576 0.499382 0.844334
C16   C     C_R   0.737719 0.497422 0.500633 0.796828
C17   C     C_R   0.230990 0.747024 0.130340 -0.146763
C18   C     C_R   0.174941 0.701248 0.249922 -0.171997
C19   C     C_R   0.119589 0.584621 0.250536 0.094476
C20   C     C_R   0.120877 0.513371 0.129051 0.294609
C21   C     C_R   0.176358 0.561590 0.009263 -0.146214
C22   C     C_3   0.449543 0.083749 0.752293 -0.691504
C23   C     C_R   0.933209 0.533883 0.382546 -0.199456
C24   C     C_3   0.131458 0.297262 0.188425 -0.674836
C25   C     C_3   0.856337 0.703802 0.958695 -0.715860
C26   C     C_R   0.871591 0.495351 0.502070 -0.098755
C27   C     C_R   0.938927 0.458282 0.620453 -0.007309
C28   C     C_R   0.066483 0.461643 0.616334 -0.227142
C29   C     C_R   0.128151 0.502681 0.497773 -0.107090
C30   C     C_R   0.060685 0.538792 0.379007 0.031303
C31   C     C_R   0.855846 0.492842 0.861250 0.299182
Cu1   Cu    Cu3+1 0.500020 0.500020 0.638630 0.943621
Cu2   Cu    Cu3+1 0.499980 0.499980 0.361370 0.931684
H1    H     H_    0.275066 0.712925 0.917507 0.143379
H2    H     H_    0.420979 0.328994 0.129362 0.145438
H3    H     H_    0.273779 0.836765 0.130772 0.124137
H4    H     H_    0.522953 0.579388 0.105034 0.190276
H5    H     H_    0.174915 0.756451 0.342439 0.121571
H6    H     H_    0.178065 0.508623 0.915575 0.127684
H7    H     H_    0.881966 0.563448 0.292029 0.146485
H8    H     H_    0.117698 0.429461 0.705546 0.149608
H9    H     H_    0.774534 0.500523 0.067298 0.146647
H10   H     H_    0.339099 0.012319 0.591313 0.265554
H11   H     H_    0.455682 0.988472 0.792723 0.203840
H12   H     H_    0.713038 0.285778 0.075539 0.146951
H13   H     H_    0.387574 0.135497 0.821064 0.223242
H14   H     H_    0.543187 0.125160 0.755421 0.236938
H15   H     H_    0.033081 0.371968 0.027622 0.254498
H16   H     H_    0.072588 0.213888 0.193101 0.224172
H17   H     H_    0.159810 0.320017 0.295297 0.243889
H18   H     H_    0.213862 0.276536 0.125607 0.199356
H19   H     H_    0.901562 0.656318 0.756222 0.257613
H20   H     H_    0.894092 0.796253 0.934622 0.229213
H21   H     H_    0.892964 0.675846 0.061361 0.232455
H22   H     H_    0.754250 0.709327 0.961198 0.212132
H23   H     H_    0.755153 0.149271 0.878892 0.126551
H24   H     H_    0.859447 0.229382 0.670785 0.131027
H25   H     H_    0.464886 0.891454 0.290103 0.166217
H26   H     H_    0.551488 0.907814 0.592751 0.179515
H27   H     H_    0.540739 0.111340 0.300381 0.144435
H28   H     H_    0.388917 0.347515 0.872478 0.147001
H29   H     H_    0.557168 0.559731 0.893865 0.194460
N1    N     N_2   0.498640 0.498660 0.846910 -0.277112
N2    N     N_2   0.498610 0.498630 0.153040 -0.279494
N3    N     N_2   0.398628 0.083437 0.613556 -0.429406
N4    N     N_2   0.062846 0.396044 0.124972 -0.440011
N5    N     N_2   0.895056 0.618463 0.853912 -0.435193
O1    O     O_R   0.500020 0.321960 0.617040 -0.555649
O2    O     O_R   0.499980 0.321920 0.382900 -0.606921
O3    O     O_R   0.319660 0.500030 0.617070 -0.581408
O4    O     O_R   0.319620 0.499990 0.382930 -0.563985
O5    O     O_R   0.500020 0.678080 0.617100 -0.586298
O6    O     O_R   0.499980 0.678040 0.382960 -0.574709
O7    O     O_R   0.680380 0.500010 0.617070 -0.568430
O8    O     O_R   0.680340 0.499970 0.382930 -0.585257

loop_
_geom_bond_atom_site_label_1
_geom_bond_atom_site_label_2
_ccdc_geom_bond_type
C12   C17   A    
C10   H27   S    
C22   N3    S    
C6    C7    A    
C17   H3    S    
Cu2   O2    S    
C16   O8    A    
C5    H23   S    
C19   C20   A    
C1    C11   S    
C24   N4    S    
H10   N3    S    
C14   N2    D    
Cu1   Cu2   S    
H4    N2    S    
C24   H18   S    
C4    O3    A    
C22   H14   S    
C18   H5    S    
C3    C5    A    
C13   H28   S    
Cu1   O5    S    
Cu1   O1    S    
C25   H21   S    
C24   H17   S    
C15   O5    A    
C6    H24   S    
C26   C27   A    
C29   C30   A    
H19   N5    S    
C2    H9    S    
Cu2   N2    S    
C16   O7    A    
C20   N4    S    
C28   C29   A    
C22   H13   S    
C25   H20   S    
C17   C18   A    
C2    C3    A    
C25   H22   S    
C3    H12   S    
C16   C26   S    
C5    C6    A    
C22   H11   S    
C7    C31   A    
C10   C11   D    
C31   N5    S    
C12   H1    S    
C23   H7    S    
C23   C30   A    
C11   N3    S    
C28   H8    S    
C14   H2    S    
C1    O1    A    
C7    C27   S    
C20   C21   A    
Cu1   N1    S    
C25   N5    S    
C8    C10   S    
C18   C19   A    
C23   C26   A    
Cu2   O6    S    
C24   H16   S    
H15   N4    S    
Cu2   O4    S    
Cu2   O8    S    
C8    C9    D    
Cu1   O7    S    
Cu1   O3    S    
C21   H6    S    
C8    H25   S    
C13   C14   S    
C19   C30   S    
C9    H26   S    
C12   C21   A    
C15   O6    A    
C4    O4    A    
C1    O2    A    
H29   N1    S    
C4    C29   S    
C9    C15   S    
C2    C31   A    
C27   C28   A    
C13   N1    D    
