data_mof_unit_65632.cif
_audit_creation_date              2012-12-10T20:37:26-0500
_audit_creation_method            fapswitch 2.2
_symmetry_space_group_name_H-M    P1
_symmetry_Int_Tables_number       1
_space_group_crystal_system       triclinic
_cell_length_a                    36.032353
_cell_length_b                    39.746381
_cell_length_c                    26.7992
_cell_angle_alpha                 90.000186
_cell_angle_beta                  131.837028
_cell_angle_gamma                 89.99933
_cell_volume                      28595.2963531

loop_
_atom_site_label
_atom_site_type_symbol
_atom_type_description
_atom_site_fract_x
_atom_site_fract_y
_atom_site_fract_z
_atom_type_partial_charge
C1    C     C_R   0.400218 0.749890 0.000064 0.825758
C2    C     C_R   0.599782 0.250110 0.999936 0.824978
C3    C     C_R   0.599784 0.749887 0.999942 0.825166
C4    C     C_R   0.400215 0.250113 0.000058 0.825148
C5    C     C_R   0.900216 0.249888 0.000061 0.825771
C6    C     C_R   0.099781 0.750109 0.999934 0.825156
C7    C     C_R   0.099786 0.249886 0.999944 0.825766
C8    C     C_R   0.900213 0.750113 0.000055 0.825790
C9    C     C_3   0.251071 0.279971 0.977230 -0.209262
C10   C     C_3   0.746580 0.719245 0.018034 -0.209937
C11   C     C_3   0.747225 0.280581 0.019311 -0.208947
C12   C     C_3   0.252770 0.719452 0.980642 -0.210166
C13   C     C_3   0.753419 0.780746 0.981971 -0.209247
C14   C     C_3   0.248941 0.220020 0.022795 -0.210046
C15   C     C_3   0.247221 0.780541 0.019339 -0.209336
C16   C     C_3   0.752761 0.219410 0.980662 -0.209777
C17   C     C_3   0.707649 0.757259 0.938951 0.232725
C18   C     C_3   0.292839 0.245159 0.062068 0.232290
C19   C     C_3   0.292487 0.756593 0.061345 0.232603
C20   C     C_3   0.707477 0.243378 0.938597 0.232321
C21   C     C_3   0.207169 0.254836 0.937949 0.232141
C22   C     C_3   0.792345 0.742735 0.061047 0.232498
C23   C     C_3   0.792513 0.256617 0.061383 0.232160
C24   C     C_3   0.207509 0.743403 0.938643 0.232669
C25   C     C_1   0.639411 0.749760 0.999822 -0.149689
C26   C     C_1   0.360591 0.250240 0.000184 -0.149991
C27   C     C_1   0.360596 0.749767 0.000194 -0.149866
C28   C     C_1   0.639406 0.250240 0.999810 -0.149909
C29   C     C_1   0.139412 0.249755 0.999824 -0.149668
C30   C     C_1   0.860586 0.750237 0.000176 -0.149867
C31   C     C_1   0.860589 0.249755 0.000179 -0.149671
C32   C     C_1   0.139401 0.750230 0.999799 -0.149682
C33   C     C_3   0.759039 0.773284 0.043628 -0.206009
C34   C     C_3   0.242827 0.225045 0.960113 -0.206653
C35   C     C_3   0.241464 0.773757 0.957387 -0.205940
C36   C     C_3   0.758561 0.226241 0.042682 -0.206925
C37   C     C_3   0.257177 0.274948 0.039895 -0.205786
C38   C     C_3   0.740950 0.726710 0.956360 -0.206768
C39   C     C_3   0.741435 0.273753 0.957308 -0.206036
C40   C     C_3   0.258537 0.726238 0.042612 -0.206624
C41   C     C_3   0.713340 0.749877 0.999883 0.111378
C42   C     C_3   0.286666 0.250122 0.000135 0.111557
C43   C     C_3   0.286661 0.749881 0.000120 0.111416
C44   C     C_3   0.713338 0.250128 0.999874 0.111527
C45   C     C_3   0.213341 0.249868 0.999880 0.111487
C46   C     C_3   0.786654 0.750113 0.000113 0.111390
C47   C     C_3   0.786654 0.249862 0.000108 0.111474
C48   C     C_3   0.213336 0.750111 0.999870 0.111378
C49   C     C_1   0.672793 0.749771 0.999825 -0.077073
C50   C     C_1   0.327212 0.250230 0.000189 -0.077174
C51   C     C_1   0.327214 0.749779 0.000191 -0.077112
C52   C     C_1   0.672788 0.250233 0.999811 -0.077125
C53   C     C_1   0.172794 0.249763 0.999824 -0.077016
C54   C     C_1   0.827202 0.750223 0.000172 -0.077112
C55   C     C_1   0.827204 0.249760 0.000173 -0.076984
C56   C     C_1   0.172783 0.750215 0.999800 -0.077110
C57   C     C_R   0.159717 0.773245 0.364097 -0.164390
C58   C     C_R   0.840279 0.226606 0.635972 -0.164550
C59   C     C_R   0.842973 0.769751 0.635445 -0.163748
C60   C     C_R   0.159923 0.226466 0.364047 -0.164557
C61   C     C_R   0.656683 0.269272 0.364618 -0.163716
C62   C     C_R   0.343015 0.730225 0.635430 -0.163771
C63   C     C_R   0.344463 0.268104 0.635442 -0.163709
C64   C     C_R   0.659328 0.727124 0.364111 -0.164371
C65   C     C_R   0.124313 0.774256 0.293924 0.180046
C66   C     C_R   0.875517 0.225524 0.706153 0.180185
C67   C     C_R   0.879295 0.770254 0.705595 0.179487
C68   C     C_R   0.124684 0.225382 0.293856 0.180147
C69   C     C_R   0.620255 0.269680 0.294459 0.179396
C70   C     C_R   0.379291 0.729689 0.705594 0.179400
C71   C     C_R   0.380919 0.268397 0.705612 0.179426
C72   C     C_R   0.623916 0.726099 0.293946 0.180065
C73   C     C_R   0.127972 0.751041 0.256833 -0.032807
C74   C     C_R   0.872080 0.248964 0.743170 -0.032766
C75   C     C_R   0.872306 0.750492 0.743132 -0.032501
C76   C     C_R   0.127953 0.248944 0.256834 -0.032755
C77   C     C_R   0.627656 0.250428 0.256873 -0.032386
C78   C     C_R   0.372340 0.749506 0.743119 -0.032653
C79   C     C_R   0.372579 0.250202 0.743154 -0.031904
C80   C     C_R   0.627892 0.749051 0.256838 -0.032830
C81   C     C_R   0.167977 0.728032 0.292094 -0.244043
C82   C     C_R   0.832372 0.272215 0.707840 -0.244053
C83   C     C_R   0.828978 0.730613 0.708314 -0.243718
C84   C     C_R   0.167534 0.272298 0.292159 -0.243933
C85   C     C_R   0.671422 0.231025 0.291634 -0.243409
C86   C     C_R   0.329053 0.769445 0.708282 -0.243456
C87   C     C_R   0.328039 0.231703 0.708376 -0.243316
C88   C     C_R   0.668133 0.771860 0.292087 -0.244158
C89   C     C_R   0.591093 0.749685 0.182327 0.798289
C90   C     C_R   0.409159 0.250053 0.817682 0.797888
C91   C     C_R   0.409064 0.749853 0.817664 0.798049
C92   C     C_R   0.590915 0.250119 0.182333 0.798000
C93   C     C_R   0.091126 0.249648 0.182320 0.798211
C94   C     C_R   0.909061 0.750142 0.817662 0.798076
C95   C     C_R   0.908883 0.249654 0.817680 0.798289
C96   C     C_R   0.091115 0.750339 0.182323 0.798277
C97   C     C_R   0.203097 0.727623 0.362052 -0.172286
C98   C     C_R   0.797365 0.272656 0.637881 -0.172170
C99   C     C_R   0.793342 0.730328 0.638365 -0.172759
C100  C     C_R   0.202558 0.272728 0.362117 -0.172119
C101  C     C_R   0.707114 0.230777 0.361574 -0.172664
C102  C     C_R   0.293458 0.769744 0.638337 -0.172586
C103  C     C_R   0.292382 0.231472 0.638435 -0.172479
C104  C     C_R   0.703244 0.772297 0.362053 -0.172389
C105  C     C_R   0.198778 0.750129 0.397977 0.110948
C106  C     C_R   0.801520 0.249968 0.602021 0.110890
C107  C     C_R   0.800330 0.749997 0.602003 0.110993
C108  C     C_R   0.198554 0.249936 0.397991 0.110832
C109  C     C_R   0.699793 0.250026 0.397994 0.110951
C110  C     C_R   0.300419 0.750042 0.601986 0.110984
C111  C     C_R   0.300490 0.249859 0.602036 0.110836
C112  C     C_R   0.698659 0.750012 0.397990 0.110934
C113  C     C_1   0.234473 0.749916 0.469845 -0.055746
C114  C     C_1   0.765872 0.250195 0.530142 -0.055745
C115  C     C_1   0.764155 0.749968 0.530142 -0.055734
C116  C     C_1   0.234265 0.250145 0.469876 -0.055730
C117  C     C_1   0.736054 0.249996 0.469859 -0.055729
C118  C     C_1   0.264259 0.750112 0.530124 -0.055739
C119  C     C_1   0.264153 0.249914 0.530164 -0.055686
C120  C     C_1   0.734364 0.750200 0.469865 -0.055746
C121  C     C_R   0.497323 0.431250 0.042722 -0.169827
C122  C     C_R   0.502660 0.568749 0.957273 -0.169853
C123  C     C_R   0.502670 0.431252 0.957281 -0.169827
C124  C     C_R   0.497381 0.568752 0.042780 -0.169809
C125  C     C_R   0.997361 0.931249 0.042759 -0.169841
C126  C     C_R   0.002636 0.068750 0.957247 -0.169874
C127  C     C_R   0.002634 0.931251 0.957247 -0.169888
C128  C     C_R   0.997384 0.068752 0.042779 -0.169895
C129  C     C_R   0.497318 0.396141 0.042769 -0.199073
C130  C     C_R   0.502662 0.603858 0.957219 -0.199095
C131  C     C_R   0.502666 0.396144 0.957219 -0.198881
C132  C     C_R   0.497385 0.603861 0.042836 -0.199717
C133  C     C_R   0.997360 0.896140 0.042810 -0.199770
C134  C     C_R   0.002638 0.103859 0.957193 -0.199757
C135  C     C_R   0.002631 0.896143 0.957187 -0.199075
C136  C     C_R   0.997389 0.103861 0.042838 -0.199769
C137  C     C_R   0.499991 0.378229 0.999993 -0.008431
C138  C     C_R   0.500021 0.621772 0.000023 -0.008316
C139  C     C_R   0.999995 0.878228 0.999997 -0.008313
C140  C     C_R   0.000013 0.121773 0.000014 -0.008251
C141  C     C_R   0.500000 0.448827 0.000006 0.160981
C142  C     C_R   0.500017 0.551175 0.000024 0.161042
C143  C     C_R   0.999999 0.948826 0.000005 0.161061
C144  C     C_R   0.000008 0.051175 0.000012 0.161107
C145  C     C_1   0.500006 0.484879 0.000014 -0.068895
C146  C     C_1   0.500011 0.515123 0.000019 -0.068964
C147  C     C_1   0.000002 0.984879 0.000009 -0.069016
C148  C     C_1   0.000004 0.015122 0.000010 -0.069069
C149  C     C_R   0.500008 0.658880 0.000008 0.789417
C150  C     C_R   0.499996 0.341121 0.999996 0.790131
C151  C     C_R   0.000005 0.158880 0.000005 0.788715
C152  C     C_R   0.999998 0.841120 0.999998 0.789368
C153  C     C_R   0.499999 0.840993 0.000003 0.784465
C154  C     C_R   0.500000 0.159007 0.999997 0.784414
C155  C     C_R   0.999999 0.340993 0.000003 0.784489
C156  C     C_R   0.000000 0.659007 0.999997 0.784461
C157  C     C_R   0.454932 0.068804 0.957590 -0.170347
C158  C     C_R   0.545068 0.931195 0.042413 -0.170388
C159  C     C_R   0.545068 0.068804 0.042392 -0.170369
C160  C     C_R   0.454932 0.931196 0.957607 -0.170348
C161  C     C_R   0.954932 0.568804 0.957588 -0.170377
C162  C     C_R   0.045068 0.431195 0.042415 -0.170420
C163  C     C_R   0.045068 0.568804 0.042395 -0.170412
C164  C     C_R   0.954932 0.431196 0.957605 -0.170393
C165  C     C_R   0.454874 0.103932 0.957534 -0.197840
C166  C     C_R   0.545126 0.896068 0.042468 -0.198186
C167  C     C_R   0.545125 0.103931 0.042441 -0.197942
C168  C     C_R   0.454876 0.896069 0.957557 -0.197930
C169  C     C_R   0.954874 0.603932 0.957533 -0.197916
C170  C     C_R   0.045125 0.396068 0.042469 -0.198200
C171  C     C_R   0.045124 0.603931 0.042444 -0.198233
C172  C     C_R   0.954876 0.396069 0.957555 -0.198215
C173  C     C_R   0.499999 0.121858 0.999991 -0.007299
C174  C     C_R   0.500001 0.878142 0.000010 -0.007250
C175  C     C_R   0.999999 0.621858 0.999991 -0.007245
C176  C     C_R   0.000001 0.378142 0.000009 -0.007203
C177  C     C_R   0.500000 0.051210 0.999993 0.160686
C178  C     C_R   0.500000 0.948789 0.000008 0.160741
C179  C     C_R   0.000000 0.551211 0.999994 0.160761
C180  C     C_R   1.000000 0.448789 0.000007 0.160805
C181  C     C_1   0.500000 0.015133 0.999999 -0.068638
C182  C     C_1   0.500000 0.984867 0.000002 -0.068676
C183  C     C_1   0.000000 0.515133 0.999999 -0.068721
C184  C     C_1   1.000000 0.484867 0.000002 -0.068751
H1    H     H_    0.419864 0.055369 0.924609 0.133609
H2    H     H_    0.580137 0.944631 0.075394 0.133526
H3    H     H_    0.580138 0.055369 0.075375 0.133575
H4    H     H_    0.419863 0.944631 0.924622 0.133581
H5    H     H_    0.919864 0.555369 0.924607 0.133561
H6    H     H_    0.080136 0.444631 0.075397 0.133493
H7    H     H_    0.080138 0.555369 0.075380 0.133503
H8    H     H_    0.919863 0.444631 0.924619 0.133510
H9    H     H_    0.495239 0.444683 0.075963 0.133446
H10   H     H_    0.504719 0.555314 0.924010 0.133449
H11   H     H_    0.504759 0.444688 0.924046 0.133462
H12   H     H_    0.495318 0.555318 0.076041 0.133456
H13   H     H_    0.995304 0.944682 0.076025 0.133435
H14   H     H_    0.004686 0.055315 0.923975 0.133439
H15   H     H_    0.004694 0.944687 0.923984 0.133425
H16   H     H_    0.995331 0.055318 0.076050 0.133430
H17   H     H_    0.495199 0.383023 0.076230 0.159167
H18   H     H_    0.504753 0.616974 0.923729 0.159161
H19   H     H_    0.504782 0.383028 0.923755 0.159183
H20   H     H_    0.495298 0.616979 0.076328 0.159388
H21   H     H_    0.995274 0.883022 0.076303 0.159415
H22   H     H_    0.004715 0.116976 0.923691 0.159423
H23   H     H_    0.004717 0.883027 0.923694 0.159158
H24   H     H_    0.995314 0.116979 0.076341 0.159449
H25   H     H_    0.419547 0.117040 0.924325 0.160404
H26   H     H_    0.580452 0.882960 0.075679 0.160134
H27   H     H_    0.580450 0.117040 0.075648 0.160339
H28   H     H_    0.419550 0.882961 0.924349 0.160294
H29   H     H_    0.919548 0.617040 0.924322 0.160293
H30   H     H_    0.080452 0.382960 0.075682 0.160087
H31   H     H_    0.080450 0.617040 0.075652 0.160119
H32   H     H_    0.919550 0.382960 0.924345 0.160097
H33   H     H_    0.252101 0.304426 0.958143 0.143216
H34   H     H_    0.743650 0.694147 0.033290 0.143631
H35   H     H_    0.744817 0.305545 0.035588 0.143282
H36   H     H_    0.255178 0.694529 0.964317 0.143616
H37   H     H_    0.756361 0.805848 0.966747 0.143422
H38   H     H_    0.247922 0.195571 0.041911 0.143380
H39   H     H_    0.244801 0.805468 0.035633 0.143413
H40   H     H_    0.755156 0.194451 0.964354 0.143448
H41   H     H_    0.237147 0.204765 0.927080 0.143779
H42   H     H_    0.766218 0.792203 0.079653 0.143806
H43   H     H_    0.765362 0.206951 0.077982 0.143826
H44   H     H_    0.234693 0.793063 0.922185 0.143736
H45   H     H_    0.733768 0.707805 0.920309 0.143959
H46   H     H_    0.262851 0.295242 0.072902 0.143659
H47   H     H_    0.265312 0.706946 0.077839 0.144036
H48   H     H_    0.734639 0.293059 0.922036 0.143692
H49   H     H_    0.156895 0.790656 0.392632 0.134693
H50   H     H_    0.842965 0.209040 0.607495 0.134718
H51   H     H_    0.848008 0.784790 0.606541 0.134561
H52   H     H_    0.157357 0.208805 0.392532 0.134719
H53   H     H_    0.651369 0.283975 0.393581 0.134476
H54   H     H_    0.348025 0.715146 0.606512 0.134468
H55   H     H_    0.350433 0.282089 0.606490 0.134459
H56   H     H_    0.656284 0.709910 0.392647 0.134754
H57   H     H_    0.172215 0.710138 0.265612 0.170968
H58   H     H_    0.828279 0.290275 0.734270 0.170808
H59   H     H_    0.822445 0.715150 0.735151 0.171347
H60   H     H_    0.171516 0.290452 0.265722 0.170753
H61   H     H_    0.678261 0.215900 0.264739 0.171159
H62   H     H_    0.322521 0.784960 0.735118 0.171198
H63   H     H_    0.320541 0.217302 0.735274 0.170850
H64   H     H_    0.672584 0.789555 0.265604 0.171095
H65   H     H_    0.233592 0.709690 0.388181 0.141274
H66   H     H_    0.767069 0.290757 0.611685 0.141251
H67   H     H_    0.760368 0.714747 0.612653 0.141414
H68   H     H_    0.232765 0.290906 0.388309 0.141276
H69   H     H_    0.740420 0.215537 0.387241 0.141365
H70   H     H_    0.260506 0.785380 0.612607 0.141321
H71   H     H_    0.258453 0.216934 0.612754 0.141369
H72   H     H_    0.733934 0.790055 0.388168 0.141332
O1    O     O_3   0.500000 0.749970 0.000000 -0.466626
O2    O     O_3   0.500000 0.250030 0.000000 -0.466736
O3    O     O_3   0.000000 0.249970 0.000000 -0.466599
O4    O     O_3   0.000000 0.750030 0.000000 -0.466632
O5    O     O_R   0.398200 0.769580 0.960780 -0.636657
O6    O     O_R   0.601800 0.230420 0.039220 -0.636660
O7    O     O_R   0.601800 0.769580 0.039220 -0.636378
O8    O     O_R   0.398200 0.230420 0.960780 -0.636644
O9    O     O_R   0.898200 0.269580 0.960780 -0.636377
O10   O     O_R   0.101800 0.730420 0.039220 -0.636338
O11   O     O_R   0.101800 0.269580 0.039220 -0.636298
O12   O     O_R   0.898200 0.730420 0.960780 -0.636679
O13   O     O_R   0.553280 0.730340 0.149660 -0.642856
O14   O     O_R   0.446720 0.269660 0.850340 -0.642150
O15   O     O_R   0.446720 0.730340 0.850340 -0.642436
O16   O     O_R   0.553280 0.269660 0.149660 -0.642306
O17   O     O_R   0.053280 0.230340 0.149660 -0.642851
O18   O     O_R   0.946720 0.769660 0.850340 -0.642358
O19   O     O_R   0.946720 0.230340 0.850340 -0.642855
O20   O     O_R   0.053280 0.769660 0.149660 -0.642842
O21   O     O_R   0.498080 0.675140 0.039250 -0.646231
O22   O     O_R   0.501920 0.324860 0.960750 -0.645674
O23   O     O_R   0.501920 0.675140 0.960750 -0.645785
O24   O     O_R   0.498080 0.324860 0.039250 -0.645832
O25   O     O_R   0.998080 0.175140 0.039250 -0.646208
O26   O     O_R   0.001920 0.824860 0.960750 -0.645770
O27   O     O_R   0.001920 0.175140 0.960750 -0.646206
O28   O     O_R   0.998080 0.824860 0.039250 -0.646251
O29   O     O_R   0.458830 0.824790 0.960760 -0.645255
O30   O     O_R   0.541170 0.175210 0.039240 -0.645308
O31   O     O_R   0.541170 0.824790 0.039240 -0.645471
O32   O     O_R   0.458830 0.175210 0.960760 -0.645226
O33   O     O_R   0.958830 0.324790 0.960760 -0.645433
O34   O     O_R   0.041170 0.675210 0.039240 -0.645486
O35   O     O_R   0.041170 0.324790 0.039240 -0.645429
O36   O     O_R   0.958830 0.675210 0.960760 -0.645243
O37   O     O_R   0.596370 0.769570 0.149640 -0.644695
O38   O     O_R   0.403630 0.230430 0.850360 -0.644887
O39   O     O_R   0.403630 0.769570 0.850360 -0.644896
O40   O     O_R   0.596370 0.230430 0.149640 -0.644903
O41   O     O_R   0.096370 0.269570 0.149640 -0.644639
O42   O     O_R   0.903630 0.730430 0.850360 -0.644949
O43   O     O_R   0.903630 0.269570 0.850360 -0.644646
O44   O     O_R   0.096370 0.730430 0.149640 -0.644677
O45   O     O_R   0.437440 0.730340 0.039250 -0.640598
O46   O     O_R   0.562560 0.269660 0.960750 -0.640829
O47   O     O_R   0.562560 0.730340 0.960750 -0.640876
O48   O     O_R   0.437440 0.269660 0.039250 -0.640865
O49   O     O_R   0.937440 0.230340 0.039250 -0.640636
O50   O     O_R   0.062560 0.769660 0.960750 -0.640913
O51   O     O_R   0.062560 0.230340 0.960750 -0.640751
O52   O     O_R   0.937440 0.769660 0.039250 -0.640554
Zn1   Zn    Zn3+2 0.558810 0.777990 0.056050 0.968428
Zn2   Zn    Zn3+2 0.441190 0.222010 0.943950 0.968279
Zn3   Zn    Zn3+2 0.441190 0.777990 0.943950 0.968534
Zn4   Zn    Zn3+2 0.558810 0.222010 0.056050 0.968177
Zn5   Zn    Zn3+2 0.058810 0.277990 0.056050 0.968711
Zn6   Zn    Zn3+2 0.941190 0.722010 0.943950 0.968528
Zn7   Zn    Zn3+2 0.941190 0.277990 0.943950 0.968699
Zn8   Zn    Zn3+2 0.058810 0.722010 0.056050 0.968440
Zn9   Zn    Zn3+2 0.497250 0.721930 0.056070 0.961636
Zn10  Zn    Zn3+2 0.502750 0.278070 0.943930 0.962191
Zn11  Zn    Zn3+2 0.502750 0.721930 0.943930 0.961815
Zn12  Zn    Zn3+2 0.497250 0.278070 0.056070 0.962093
Zn13  Zn    Zn3+2 0.997250 0.221930 0.056070 0.961349
Zn14  Zn    Zn3+2 0.002750 0.778070 0.943930 0.961800
Zn15  Zn    Zn3+2 0.002750 0.221930 0.943930 0.961294
Zn16  Zn    Zn3+2 0.997250 0.778070 0.056070 0.961660
C185  C     C_3   0.658483 0.765610 0.869313 -0.422174
C186  C     C_3   0.665804 0.771474 0.820147 -0.865611
H73   H     H_    0.691732 0.792816 0.837019 0.258321
H74   H     H_    0.681086 0.748534 0.815842 0.258482
H75   H     H_    0.629466 0.777553 0.770039 0.251680
H76   H     H_    0.632105 0.744443 0.851398 0.208879
H77   H     H_    0.642582 0.788604 0.872373 0.207340
C187  C     C_3   0.342577 0.239638 0.132889 -0.421541
C188  C     C_3   0.335787 0.236568 0.183111 -0.864065
H78   H     H_    0.318662 0.259850 0.183039 0.258067
H79   H     H_    0.311628 0.214708 0.170484 0.258451
H80   H     H_    0.372597 0.232829 0.234168 0.251241
H81   H     H_    0.359949 0.216268 0.133803 0.206988
H82   H     H_    0.367534 0.261221 0.146931 0.209011
C189  C     C_3   0.341814 0.764184 0.131334 -0.422067
C190  C     C_3   0.334595 0.769480 0.180730 -0.865190
H83   H     H_    0.309031 0.790948 0.164713 0.258340
H84   H     H_    0.318927 0.746462 0.184127 0.258557
H85   H     H_    0.371035 0.775081 0.231066 0.251725
H86   H     H_    0.367747 0.742835 0.148325 0.209016
H87   H     H_    0.358196 0.787217 0.129283 0.207452
C191  C     C_3   0.658093 0.235828 0.868533 -0.421759
C192  C     C_3   0.665086 0.231245 0.818746 -0.864083
H88   H     H_    0.681091 0.254414 0.816301 0.258130
H89   H     H_    0.690305 0.209685 0.833753 0.258345
H90   H     H_    0.628498 0.226156 0.768163 0.251292
H91   H     H_    0.641999 0.212506 0.870305 0.206992
H92   H     H_    0.631971 0.257003 0.852039 0.208917
C193  C     C_3   0.157444 0.260393 0.867128 -0.421021
C194  C     C_3   0.164405 0.264305 0.817196 -0.864893
H93   H     H_    0.188691 0.286255 0.830744 0.258205
H94   H     H_    0.181458 0.241238 0.816481 0.258251
H95   H     H_    0.127664 0.268410 0.766236 0.251396
H96   H     H_    0.132741 0.238552 0.852548 0.208896
H97   H     H_    0.139714 0.283446 0.866534 0.207296
C195  C     C_3   0.841518 0.734419 0.130700 -0.421936
C196  C     C_3   0.834414 0.729402 0.180272 -0.864986
H98   H     H_    0.819058 0.752590 0.183782 0.258215
H99   H     H_    0.808619 0.708114 0.164338 0.258524
H100  H     H_    0.870844 0.723697 0.230549 0.251717
H101  H     H_    0.857034 0.711091 0.127930 0.207307
H102  H     H_    0.868136 0.755345 0.148039 0.209083
C197  C     C_3   0.841886 0.264205 0.131437 -0.421260
C198  C     C_3   0.834682 0.269651 0.180838 -0.864742
H103  H     H_    0.809331 0.291276 0.164876 0.258100
H104  H     H_    0.818748 0.246725 0.184082 0.258347
H105  H     H_    0.871184 0.275118 0.231273 0.251454
H106  H     H_    0.867760 0.242781 0.148512 0.208827
H107  H     H_    0.858365 0.287190 0.129364 0.207327
C199  C     C_3   0.158171 0.735848 0.868645 -0.422053
C200  C     C_3   0.165183 0.731392 0.818875 -0.865422
H108  H     H_    0.180926 0.754645 0.816269 0.258111
H109  H     H_    0.190613 0.709986 0.833962 0.258607
H110  H     H_    0.128655 0.726162 0.768390 0.251633
H111  H     H_    0.142164 0.712488 0.870401 0.207182
H112  H     H_    0.131996 0.756953 0.852219 0.209037
C201  C     C_3   0.083859 0.800573 0.260931 -0.864789
H113  H     H_    0.087886 0.817053 0.297741 0.216480
H114  H     H_    0.085318 0.817199 0.228937 0.251933
H115  H     H_    0.046832 0.788327 0.230614 0.257482
C202  C     C_3   0.915502 0.198846 0.739253 -0.864557
H116  H     H_    0.911141 0.182073 0.702477 0.216392
H117  H     H_    0.952750 0.210747 0.769504 0.257777
H118  H     H_    0.913764 0.182550 0.771352 0.251529
C203  C     C_3   0.924890 0.791726 0.738065 -0.866328
H119  H     H_    0.924589 0.804438 0.700968 0.217115
H120  H     H_    0.926890 0.811827 0.768601 0.256660
H121  H     H_    0.958859 0.775886 0.769748 0.252407
C204  C     C_3   0.084901 0.198555 0.260741 -0.864490
H122  H     H_    0.089433 0.181661 0.297535 0.216387
H123  H     H_    0.047568 0.210308 0.230546 0.257974
H124  H     H_    0.086743 0.182403 0.228580 0.251285
C205  C     C_3   0.574006 0.290392 0.262013 -0.866124
H125  H     H_    0.573840 0.302513 0.299200 0.217097
H126  H     H_    0.571509 0.310929 0.231714 0.257029
H127  H     H_    0.540537 0.274126 0.230090 0.251669
C206  C     C_3   0.424811 0.708116 0.738091 -0.865500
H128  H     H_    0.424471 0.695332 0.700936 0.216840
H129  H     H_    0.458838 0.723881 0.769805 0.252590
H130  H     H_    0.426673 0.688043 0.768597 0.256424
C207  C     C_3   0.428333 0.287661 0.738153 -0.866487
H131  H     H_    0.429362 0.298680 0.700974 0.217358
H132  H     H_    0.431827 0.308912 0.768065 0.258084
H133  H     H_    0.460839 0.270629 0.770506 0.250009
C208  C     C_3   0.583089 0.700072 0.260984 -0.865027
H134  H     H_    0.586832 0.683816 0.297763 0.216581
H135  H     H_    0.546232 0.712591 0.230583 0.257048
H136  H     H_    0.584317 0.683195 0.229068 0.252460

loop_
_geom_bond_atom_site_label_1
_geom_bond_atom_site_label_2
_ccdc_geom_bond_type
C6    C32   S    
C5    O9    A    
C7    C29   S    
O42   Zn6   S    
C142  C146  S    
C34   C42   S    
C136  C140  A    
C124  C142  A    
C110  C118  S    
C79   C87   A    
C145  C146  T    
C170  C176  A    
C188  H78   S    
C6    O50   A    
C135  C139  A    
O49   Zn13  S    
C26   C50   T    
C63   H55   S    
C195  H101  S    
C64   C112  A    
C139  C152  S    
C82   H58   S    
C3    O47   A    
C79   C90   S    
C18   C187  S    
C20   C44   S    
O2    Zn12  S    
O19   Zn15  S    
C186  H73   S    
C23   C197  S    
C130  H18   S    
C36   C44   S    
C141  C145  S    
C97   C105  A    
O24   Zn12  S    
C155  O33   A    
C10   C41   S    
C82   C98   A    
C93   O41   A    
C90   O14   A    
C122  H10   S    
C73   C81   A    
C198  H103  S    
C14   C45   S    
C196  H100  S    
C166  C174  A    
C24   C199  S    
C84   C100  A    
C34   H41   S    
C190  H83   S    
C99   H67   S    
O2    Zn2   S    
C57   C65   A    
C112  C120  S    
C97   H65   S    
C90   O38   A    
C12   C40   S    
C101  H69   S    
C183  C184  T    
C13   C33   S    
O22   Zn10  S    
C16   C20   S    
C123  C141  A    
C186  H75   S    
C84   H60   S    
C127  C143  A    
O31   Zn1   S    
C128  C144  A    
C160  C178  A    
C178  C182  S    
C87   C103  A    
C197  H106  S    
C67   C203  S    
C63   C71   A    
C133  C139  A    
C153  O29   A    
C201  H113  S    
C16   H40   S    
C37   C45   S    
C130  C138  A    
C162  H6    S    
C3    O7    A    
C39   C47   S    
C188  H80   S    
C40   C48   S    
C92   O40   A    
O5    Zn3   S    
C59   H51   S    
C190  H84   S    
O1    Zn9   S    
C200  H108  S    
C87   H63   S    
C169  H29   S    
C204  H122  S    
O2    Zn10  S    
C98   C106  A    
O35   Zn5   S    
C10   C38   S    
C66   C202  S    
C61   C69   A    
C205  H126  S    
C158  C178  A    
C33   C41   S    
C80   C88   A    
C207  H131  S    
C166  H26   S    
C9    C21   S    
C2    O6    A    
O44   Zn8   S    
C11   C23   S    
C159  C167  A    
C185  H77   S    
C98   H66   S    
C199  H111  S    
C160  C168  A    
C63   C111  A    
C64   H56   S    
O13   Zn9   S    
C126  C134  A    
C23   C36   S    
O15   Zn11  S    
C208  H134  S    
C172  H32   S    
C101  C109  A    
C12   H36   S    
C198  H105  S    
C180  C184  S    
C202  H117  S    
C155  C176  S    
C156  C175  S    
C69   C77   A    
C147  C148  T    
C190  H85   S    
C165  H25   S    
C71   C79   A    
C206  H128  S    
C191  H91   S    
C70   C206  S    
C168  C174  A    
C131  H19   S    
C30   C54   T    
C62   C70   A    
O46   Zn10  S    
C105  C113  S    
C157  H1    S    
O36   Zn6   S    
C18   C42   S    
C192  H89   S    
C81   H57   S    
C66   C74   A    
C124  C132  A    
C111  C119  S    
C159  H3    S    
C199  C200  S    
C72   C208  S    
C59   C67   A    
C25   C49   T    
O38   Zn2   S    
C6    O10   A    
C201  H115  S    
C154  O32   A    
C149  O21   A    
C161  C179  A    
C35   C43   S    
C162  C180  A    
O52   Zn16  S    
C129  H17   S    
C126  H14   S    
C189  H86   S    
C77   C85   A    
C85   H61   S    
C71   C207  S    
C15   C48   S    
O1    Zn11  S    
C16   C47   S    
C195  C196  S    
C88   C104  A    
C129  C137  A    
C27   C51   T    
C38   H45   S    
C21   C45   S    
C138  C149  S    
C204  H124  S    
C100  C108  A    
C23   C47   S    
C24   C48   S    
O25   Zn13  S    
C187  C188  S    
C207  H133  S    
C157  C165  A    
C104  C112  A    
C157  C177  A    
O29   Zn3   S    
O30   Zn4   S    
C59   C107  A    
C93   O17   A    
C5    O49   A    
C88   H64   S    
C4    O8    A    
C124  H12   S    
C156  O34   A    
C11   C44   S    
C94   O42   A    
C208  H136  S    
C7    O11   A    
O50   Zn14  S    
C193  H97   S    
C42   C50   S    
C36   H43   S    
C163  C179  A    
C96   O20   A    
C137  C150  S    
C164  C172  A    
C67   C75   A    
O7    Zn1   S    
C86   C102  A    
C11   H35   S    
C206  H130  S    
C22   C195  S    
C135  H23   S    
C200  H110  S    
C9    H33   S    
O20   Zn16  S    
O3    Zn15  S    
C13   H37   S    
C164  C180  A    
C187  H81   S    
C14   C34   S    
C68   C76   A    
C12   C24   S    
O17   Zn13  S    
C13   C17   S    
O12   Zn6   S    
C39   H48   S    
C72   C80   A    
O11   Zn5   S    
C205  H125  S    
C16   C36   S    
C192  H90   S    
C195  H102  S    
C125  C143  A    
C177  C181  S    
C126  C144  A    
C154  O30   A    
C17   C38   S    
C149  O23   A    
C38   C46   S    
C114  C117  T    
C19   C40   S    
C194  H93   S    
O4    Zn6   S    
C160  H4    S    
C186  H74   S    
O16   Zn12  S    
C164  H8    S    
C20   C191  S    
C152  O28   A    
C171  H31   S    
O3    Zn7   S    
C103  H71   S    
C57   C105  A    
C76   C84   A    
C198  H104  S    
C193  C194  S    
C109  C117  S    
C181  C182  T    
C10   C22   S    
C15   C19   S    
C196  H99   S    
C89   O37   A    
C127  C135  A    
C128  C136  A    
C92   O16   A    
C134  H22   S    
C132  C138  A    
O14   Zn10  S    
C83   H59   S    
C95   O19   A    
C156  O36   A    
C103  C111  A    
C4    O48   A    
C41   C49   S    
C80   C89   S    
C15   C35   S    
C14   C18   S    
C163  C171  A    
C46   C54   S    
C60   C108  A    
C144  C148  S    
C167  C173  A    
O37   Zn1   S    
O33   Zn7   S    
C83   C99   A    
O34   Zn8   S    
C123  H11   S    
O3    Zn13  S    
C74   C82   A    
C158  H2    S    
C121  H9    S    
C19   C43   S    
C188  H79   S    
C189  H87   S    
C201  H114  S    
C132  H20   S    
C35   H44   S    
C121  C141  A    
C3    C25   S    
C33   H42   S    
C205  H127  S    
C192  H88   S    
O4    Zn16  S    
C20   C39   S    
C21   C34   S    
C153  C174  S    
C45   C53   S    
C127  H15   S    
O9    Zn7   S    
O10   Zn8   S    
C128  H16   S    
C17   C185  S    
C131  C137  A    
C76   C93   S    
C57   H49   S    
C189  C190  S    
C162  C170  A    
O4    Zn8   S    
C169  C175  A    
C185  H76   S    
C199  H112  S    
C40   H47   S    
C140  C151  S    
O8    Zn2   S    
O3    Zn5   S    
C22   C46   S    
C102  C110  A    
C158  C166  A    
C136  H24   S    
C202  H116  S    
C123  C131  A    
C121  C129  A    
C58   H50   S    
C94   O18   A    
C4    C26   S    
C191  H92   S    
C170  H30   S    
C99   C107  A    
C8    O52   A    
C62   H54   S    
C8    C30   S    
C108  C116  S    
O47   Zn11  S    
C75   C83   A    
C43   C51   S    
C19   C189  S    
C91   O39   A    
C152  O26   A    
C15   H39   S    
C185  C186  S    
C150  O24   A    
C167  H27   S    
C60   C68   A    
C203  H120  S    
C73   C96   S    
C31   C55   T    
C165  C173  A    
C32   C56   T    
C75   C94   S    
O6    Zn4   S    
O4    Zn14  S    
C77   C92   S    
C70   C78   A    
C21   C193  S    
C168  H28   S    
C197  C198  S    
C60   H52   S    
C8    O12   A    
C61   C109  A    
C151  O25   A    
C68   C204  S    
C143  C147  S    
C204  H123  S    
C9    C42   S    
C29   C53   T    
C106  C114  S    
C89   O13   A    
O45   Zn9   S    
C18   C37   S    
C12   C43   S    
C91   O15   A    
C207  H132  S    
C134  C140  A    
C13   C46   S    
O48   Zn12  S    
C133  H21   S    
C65   C73   A    
C96   O44   A    
O1    Zn1   S    
C58   C66   A    
O39   Zn3   S    
O40   Zn4   S    
C208  H135  S    
O21   Zn9   S    
C193  H96   S    
O43   Zn7   S    
C202  H118  S    
C78   C86   A    
O23   Zn11  S    
C125  H13   S    
C86   H62   S    
C1    O45   A    
C159  C177  A    
O32   Zn2   S    
C206  H129  S    
C179  C183  S    
C161  C169  A    
C200  H109  S    
C37   H46   S    
C24   C35   S    
O26   Zn14  S    
C161  H5    S    
C187  H82   S    
C171  C175  A    
C2    O46   A    
C58   C106  A    
C150  O22   A    
C153  O31   A    
C151  O27   A    
C203  H121  S    
C62   C110  A    
O28   Zn16  S    
C9    C37   S    
O51   Zn15  S    
C11   C39   S    
C107  C115  S    
C1    O5    A    
C194  H94   S    
C122  C142  A    
C69   C205  S    
C85   C101  A    
C10   H34   S    
C47   C55   S    
C125  C133  A    
C48   C56   S    
C22   C33   S    
C154  C173  S    
C155  O35   A    
C95   O43   A    
C74   C95   S    
C14   H38   S    
C100  H68   S    
C163  H7    S    
C78   C91   S    
O18   Zn14  S    
C194  H95   S    
C196  H98   S    
C102  H70   S    
C104  H72   S    
C116  C119  T    
C197  H107  S    
C61   H53   S    
O1    Zn3   S    
O41   Zn5   S    
O2    Zn4   S    
C28   C52   T    
C44   C52   S    
C191  C192  S    
C203  H119  S    
C81   C97   A    
C64   C72   A    
C17   C41   S    
O27   Zn15  S    
C7    O51   A    
C113  C118  T    
C172  C176  A    
C115  C120  T    
C1    C27   S    
C2    C28   S    
C122  C130  A    
C65   C201  S    
C5    C31   S    
