data_mof_unit_63161.cif
_audit_creation_date              2012-12-10T17:05:02-0500
_audit_creation_method            fapswitch 2.2
_symmetry_space_group_name_H-M    P1
_symmetry_Int_Tables_number       1
_space_group_crystal_system       triclinic
_cell_length_a                    15.05662
_cell_length_b                    15.101173
_cell_length_c                    19.485417
_cell_angle_alpha                 88.810677
_cell_angle_beta                  91.129733
_cell_angle_gamma                 89.630497
_cell_volume                      4428.53065948

loop_
_atom_site_label
_atom_site_type_symbol
_atom_type_description
_atom_site_fract_x
_atom_site_fract_y
_atom_site_fract_z
_atom_type_partial_charge
C1    C     C_R   0.485339 0.260333 0.509431 0.784718
C2    C     C_2   0.490917 0.459118 0.019951 -0.239191
C3    C     C_2   0.479566 0.531811 0.980065 -0.247384
C4    C     C_R   0.514505 0.739752 0.488785 0.793561
C5    C     C_R   0.485587 0.517079 0.761901 -0.045651
C6    C     C_R   0.483320 0.164132 0.514559 -0.029118
C7    C     C_R   0.517965 0.835633 0.480727 -0.005838
C8    C     C_R   0.495557 0.963701 0.405781 -0.235892
C9    C     C_R   0.506813 0.873091 0.414865 -0.197728
C10   C     C_R   0.521360 0.889655 0.537844 -0.267891
C11   C     C_R   0.508463 0.981141 0.529487 0.152471
C12   C     C_R   0.493213 0.464903 0.095023 0.205254
C13   C     C_R   0.493668 0.019352 0.462816 0.155631
C14   C     C_R   0.477656 0.111713 0.455198 0.026017
C15   C     C_R   0.496099 0.125018 0.579746 -0.233594
C16   C     C_R   0.259866 0.513688 0.488859 0.800365
C17   C     C_R   0.507969 0.034232 0.587253 -0.224892
C18   C     C_R   0.163372 0.522743 0.487081 -0.015628
C19   C     C_R   0.835421 0.479184 0.515155 0.008813
C20   C     C_R   0.967364 0.388843 0.532285 -0.215165
C21   C     C_R   0.875402 0.397739 0.532879 -0.196728
C22   C     C_R   0.886861 0.551848 0.495863 -0.276611
C23   C     C_R   0.549248 0.408068 0.133911 -0.180917
C24   C     C_R   0.978961 0.542665 0.492679 0.184508
C25   C     C_R   0.019512 0.460740 0.511831 0.175745
C26   C     C_R   0.111505 0.451781 0.509680 -0.272128
C27   C     C_R   0.122937 0.603072 0.466171 -0.199094
C28   C     C_R   0.739523 0.486152 0.511458 0.789438
C29   C     C_R   0.031098 0.613308 0.469602 -0.220114
C30   C     C_R   0.490132 0.510971 0.687257 0.798619
C31   C     C_R   0.508502 0.488902 0.312438 0.790084
C32   C     C_R   0.505016 0.480832 0.237697 -0.001956
C33   C     C_R   0.447234 0.535943 0.198642 -0.210462
C34   C     C_R   0.555517 0.416196 0.205009 -0.200721
C35   C     C_R   0.440897 0.527667 0.128028 -0.164098
C36   C     C_3   0.450065 0.153122 0.385572 -0.427406
C37   C     C_3   0.353837 0.129412 0.366300 -0.361738
C38   C     C_3   0.327004 0.168514 0.296003 -0.878387
C39   C     C_R   0.524417 0.593950 0.866365 0.111197
C40   C     C_R   0.527142 0.587550 0.795281 -0.179731
C41   C     C_R   0.440251 0.452955 0.800226 -0.213372
C42   C     C_R   0.438159 0.458124 0.871301 -0.185688
C43   C     C_R   0.480831 0.527840 0.904963 0.155248
H1    H     H_    0.406239 0.585241 0.222610 0.164475
H2    H     H_    0.997519 0.325606 0.546627 0.142107
H3    H     H_    0.561673 0.638142 0.766175 0.172400
H4    H     H_    0.000933 0.676175 0.454251 0.142465
H5    H     H_    0.835284 0.341226 0.547175 0.142370
H6    H     H_    0.854878 0.614085 0.480943 0.136467
H7    H     H_    0.407355 0.398294 0.775395 0.166439
H8    H     H_    0.475272 0.596465 0.003110 0.150429
H9    H     H_    0.589337 0.358717 0.109122 0.130179
H10   H     H_    0.599645 0.372115 0.234251 0.161339
H11   H     H_    0.504810 0.395573 0.997102 0.153668
H12   H     H_    0.402654 0.407887 0.899989 0.145255
H13   H     H_    0.394622 0.570174 0.099430 0.132860
H14   H     H_    0.332264 0.241869 0.295971 0.260952
H15   H     H_    0.370417 0.141755 0.255804 0.261516
H16   H     H_    0.257157 0.150701 0.283616 0.252149
H17   H     H_    0.345068 0.056533 0.365324 0.230672
H18   H     H_    0.308576 0.156094 0.405391 0.225488
H19   H     H_    0.453417 0.226236 0.384925 0.217645
H20   H     H_    0.496759 0.132647 0.345386 0.198777
H21   H     H_    0.614982 0.641672 0.934117 0.193065
H22   H     H_    0.521224 0.704113 0.923750 0.175329
H23   H     H_    0.499867 0.165507 0.624984 0.155216
H24   H     H_    0.486882 0.988373 0.353678 0.151087
H25   H     H_    0.518570 0.005682 0.638278 0.148230
H26   H     H_    0.504801 0.831622 0.370124 0.154418
H27   H     H_    0.529424 0.860066 0.588811 0.147733
H28   H     H_    0.142783 0.389406 0.525166 0.154981
H29   H     H_    0.162565 0.658575 0.448981 0.160806
N1    N     N_3   0.568422 0.666797 0.898132 -0.472538
O1    O     O_3   0.500000 0.500000 0.500000 -0.479821
O2    O     O_R   0.437070 0.459640 0.654640 -0.645032
O3    O     O_R   0.556790 0.436390 0.349710 -0.648292
O4    O     O_R   0.547170 0.557950 0.655150 -0.647782
O5    O     O_R   0.458970 0.546010 0.340500 -0.651018
O6    O     O_R   0.306870 0.560460 0.447950 -0.646856
O7    O     O_R   0.697260 0.434930 0.470830 -0.638552
O8    O     O_R   0.434240 0.306870 0.546470 -0.642161
O9    O     O_R   0.561630 0.697750 0.534750 -0.640918
O10   O     O_R   0.542340 0.296600 0.470110 -0.648750
O11   O     O_R   0.461800 0.698790 0.448670 -0.647625
O12   O     O_R   0.296600 0.461110 0.533510 -0.641385
O13   O     O_R   0.699270 0.543500 0.547710 -0.636543
Zn1   Zn    Zn3+2 0.433070 0.575010 0.435400 0.960391
Zn2   Zn    Zn3+2 0.418400 0.433070 0.557650 0.963944
Zn3   Zn    Zn3+2 0.575700 0.573520 0.558390 0.968483
Zn4   Zn    Zn3+2 0.572830 0.418400 0.448560 0.961391

loop_
_geom_bond_atom_site_label_1
_geom_bond_atom_site_label_2
_ccdc_geom_bond_type
O5    Zn1   S    
C7    C10   A    
C8    C13   A    
C27   C29   A    
C41   C42   A    
C18   C26   A    
O11   Zn1   S    
C2    C12   S    
O6    Zn1   S    
C23   H9    S    
C40   H3    S    
C12   C23   A    
O4    Zn3   S    
O9    Zn3   S    
C29   H4    S    
O1    Zn3   S    
C36   C37   S    
C19   C21   A    
C9    H26   S    
C14   C36   S    
C20   C25   A    
C1    O8    A    
H22   N1    S    
C7    C9    A    
C24   C29   A    
C6    C15   A    
C38   H15   S    
C30   O4    A    
C8    C9    A    
H21   N1    S    
O1    Zn1   S    
C36   H20   S    
C20   H2    S    
C21   H5    S    
C13   C14   A    
C26   H28   S    
C4    C7    S    
C36   H19   S    
C1    C6    S    
C37   H17   S    
C19   C22   A    
C24   C25   A    
C2    H11   S    
C39   C40   A    
C3    H8    S    
C39   C43   A    
C25   C26   A    
C15   H23   S    
C32   C34   A    
C37   C38   S    
C42   H12   S    
C6    C14   A    
C38   H14   S    
C31   C32   S    
C4    O11   A    
C23   C34   A    
C3    C43   S    
C12   C35   A    
C19   C28   S    
C8    H24   S    
C22   H6    S    
C10   H27   S    
C28   O13   A    
C16   O12   A    
C22   C24   A    
C42   C43   A    
C41   H7    S    
C31   O5    A    
C5    C30   S    
O12   Zn2   S    
C15   C17   A    
O10   Zn4   S    
C5    C41   A    
C11   C17   A    
C17   H25   S    
C35   H13   S    
C33   H1    S    
C18   C27   A    
O13   Zn3   S    
C37   H18   S    
C1    O10   A    
C16   O6    A    
C32   C33   A    
O1    Zn4   S    
C2    C3    D    
C30   O2    A    
C11   C13   A    
C31   O3    A    
C33   C35   A    
C39   N1    S    
O7    Zn4   S    
C28   O7    A    
O8    Zn2   S    
C10   C11   A    
C38   H16   S    
O2    Zn2   S    
C4    O9    A    
C20   C21   A    
C34   H10   S    
C16   C18   S    
C5    C40   A    
O1    Zn2   S    
C27   H29   S    
O3    Zn4   S    
