data_mof_unit_25618.cif
_audit_creation_date              2012-12-10T17:19:55-0500
_audit_creation_method            fapswitch 2.2
_symmetry_space_group_name_H-M    P1
_symmetry_Int_Tables_number       1
_space_group_crystal_system       triclinic
_cell_length_a                    9.640829
_cell_length_b                    10.752491
_cell_length_c                    15.402638
_cell_angle_alpha                 86.828018
_cell_angle_beta                  73.730224
_cell_angle_gamma                 89.569256
_cell_volume                      1530.33918578

loop_
_atom_site_label
_atom_site_type_symbol
_atom_type_description
_atom_site_fract_x
_atom_site_fract_y
_atom_site_fract_z
_atom_type_partial_charge
C1    C     C_R   0.000759 0.262882 0.499385 0.781693
C2    C     C_R   0.668992 0.567306 0.900547 0.117063
C3    C     C_R   0.765273 0.619259 0.943946 0.073348
C4    C     C_R   0.517694 0.561727 0.944290 -0.007804
C5    C     C_R   0.470152 0.571318 0.039624 0.060038
C6    C     C_R   0.569252 0.615787 0.083319 -0.192343
C7    C     C_R   0.711690 0.643978 0.035779 -0.234075
C8    C     C_R   0.411986 0.549308 0.896297 -0.054728
C9    C     C_R   0.270540 0.515099 0.944036 -0.213534
C10   C     C_R   0.225893 0.509985 0.038322 0.125472
C11   C     C_R   0.324424 0.539570 0.087313 0.088564
C12   C     C_R   0.917686 0.505135 0.671997 0.803289
C13   C     C_R   0.080932 0.481525 0.083989 -0.196269
C14   C     C_R   0.032660 0.480325 0.178137 -0.192927
C15   C     C_R   0.274149 0.533208 0.182527 -0.257897
C16   C     C_R   0.142935 0.141969 0.333333 -0.163470
C17   C     C_R   0.205970 0.082816 0.253547 -0.122578
C18   C     C_R   0.199090 0.953626 0.252310 -0.142066
C19   C     C_R   0.130539 0.882815 0.331093 -0.202980
C20   C     C_R   0.068895 0.940693 0.413066 0.098442
C21   C     C_R   0.072895 0.071958 0.413865 0.100174
C22   C     C_R   0.003645 0.129319 0.494929 -0.091328
C23   C     C_R   0.999942 0.737184 0.498714 0.779014
C24   C     C_R   0.931798 0.058709 0.573106 -0.181548
C25   C     C_R   0.930943 0.930205 0.572870 -0.148090
C26   C     C_R   0.000313 0.871306 0.494102 -0.091665
C27   C     C_R   0.696738 0.666715 0.380038 -0.122295
C28   C     C_R   0.650670 0.749690 0.321827 -0.204614
C29   C     C_R   0.507396 0.751090 0.322451 -0.219638
C30   C     C_R   0.409605 0.668860 0.380753 -0.126922
C31   C     C_R   0.451128 0.583102 0.441682 0.195755
C32   C     C_R   0.600401 0.582530 0.441473 0.198166
C33   C     C_R   0.551972 0.420015 0.554411 -0.005441
C34   C     C_R   0.082459 0.501136 0.327584 0.746402
C35   C     C_R   0.404046 0.418137 0.554857 0.040985
C36   C     C_R   0.871337 0.534033 0.768101 -0.102531
C37   C     C_R   0.129453 0.504881 0.227985 -0.054077
C38   C     C_R   0.911907 0.643026 0.893963 -0.032996
C39   C     C_R   0.962642 0.599140 0.806317 -0.164842
C40   C     C_R   0.726896 0.515671 0.816520 -0.186426
Cu1   Cu    Cu3+1 0.140660 0.499990 0.500010 0.925146
Cu2   Cu    Cu3+1 0.859340 0.500010 0.499990 0.950976
H1    H     H_    0.779668 0.678679 0.074140 0.129582
H2    H     H_    0.004415 0.461259 0.046699 0.139710
H3    H     H_    0.877746 0.103437 0.634806 0.147871
H4    H     H_    0.148761 0.242445 0.331196 0.137602
H5    H     H_    0.259018 0.137554 0.192240 0.146963
H6    H     H_    0.246441 0.908088 0.190008 0.144694
H7    H     H_    0.124260 0.783066 0.326897 0.104056
H8    H     H_    0.877074 0.876243 0.634542 0.165625
H9    H     H_    0.590765 0.356129 0.599003 0.185298
H10   H     H_    0.809093 0.671990 0.373683 0.192557
H11   H     H_    0.727106 0.812962 0.275584 0.155139
H12   H     H_    0.346300 0.547884 0.223126 0.152029
H13   H     H_    0.471798 0.815380 0.276593 0.160675
H14   H     H_    0.303324 0.675582 0.374433 0.192555
H15   H     H_    0.920305 0.458540 0.211872 0.161775
H16   H     H_    0.191558 0.500073 0.907455 0.188306
H17   H     H_    0.072557 0.619259 0.766279 0.219271
H18   H     H_    0.658991 0.461326 0.787376 0.144737
H19   H     H_    0.538808 0.634909 0.153973 0.144990
N1    N     N_R   0.648320 0.501210 0.499140 -0.223571
N2    N     N_R   0.352470 0.501290 0.499110 -0.247842
O1    O     O_R   0.118810 0.319640 0.500010 -0.600724
O2    O     O_R   0.881240 0.319660 0.500000 -0.567305
O3    O     O_R   0.055570 0.499980 0.629840 -0.605815
O4    O     O_R   0.818000 0.500010 0.629830 -0.560063
O5    O     O_R   0.118760 0.680340 0.500000 -0.585156
O6    O     O_R   0.881190 0.680360 0.499990 -0.580043
O7    O     O_R   0.182000 0.499990 0.370170 -0.601092
O8    O     O_R   0.944430 0.500020 0.370160 -0.598188
C41   C     C_2   0.308852 0.324480 0.618042 0.431804
H20   H     H_    0.193737 0.325002 0.631297 0.134772
O9    O     O_2   0.359588 0.242866 0.658092 -0.557663
C42   C     C_2   0.011051 0.720782 0.927907 0.338987
H21   H     H_    0.980449 0.753804 0.995584 0.072046
O10   O     O_2   0.129893 0.752343 0.878798 -0.523372
C43   C     C_2   0.435986 0.594623 0.800065 0.900486
O11   O     O_2   0.522736 0.678781 0.767360 -0.566953
O12   O     O_R   0.352423 0.546862 0.748542 -0.778629
H22   H     H_    0.371206 0.591999 0.686777 0.333444

loop_
_geom_bond_atom_site_label_1
_geom_bond_atom_site_label_2
_ccdc_geom_bond_type
C16   C21   A    
C40   H18   S    
C34   C37   S    
Cu1   Cu2   S    
C23   O6    A    
C19   C20   A    
C4    C8    A    
C24   H3    S    
C6    H19   S    
C28   C29   A    
C5    C11   A    
C3    C7    A    
C38   C39   A    
C43   O12   S    
C16   C17   A    
C18   C19   A    
C9    H16   S    
C23   C26   S    
C25   H8    S    
C15   C37   A    
C11   C15   A    
C3    C38   A    
C8    C9    A    
Cu2   O2    S    
C1    O2    A    
C12   O3    A    
C7    H1    S    
C12   C36   S    
C9    C10   A    
Cu2   N1    S    
C41   H20   S    
C1    C22   S    
C21   C22   A    
C8    C43   S    
Cu1   O5    S    
C38   C42   S    
C12   O4    A    
C15   H12   S    
C31   N2    A    
C36   C40   A    
C24   C25   A    
C41   O9    D    
C16   H4    S    
C43   O11   D    
C33   N1    A    
C29   H13   S    
C25   C26   A    
C30   H14   S    
Cu2   O6    S    
C23   O5    A    
C2    C4    A    
C42   H21   S    
C29   C30   A    
C19   H7    S    
C31   C32   A    
C30   C31   A    
C39   H17   S    
C17   C18   A    
C42   O10   D    
C6    C7    A    
C35   C41   S    
Cu2   O4    S    
C22   C24   A    
Cu1   N2    S    
C1    O1    A    
C27   H10   S    
C14   H15   S    
C34   O7    A    
C27   C32   A    
C36   C39   A    
C17   H5    S    
O12   H22   S    
C10   C13   A    
C18   H6    S    
C28   H11   S    
Cu1   O3    S    
C33   H9    S    
C2    C3    A    
C32   N1    A    
C14   C37   A    
C5    C6    A    
C20   C26   A    
Cu2   O8    S    
C33   C35   A    
C10   C11   A    
C2    C40   A    
C4    C5    A    
C20   C21   A    
C27   C28   A    
C35   N2    A    
Cu1   O1    S    
C13   C14   A    
C34   O8    A    
C13   H2    S    
Cu1   O7    S    
