data_mof_unit_25135.cif
_audit_creation_date              2012-12-10T19:11:32-0500
_audit_creation_method            fapswitch 2.2
_symmetry_space_group_name_H-M    P1
_symmetry_Int_Tables_number       1
_space_group_crystal_system       triclinic
_cell_length_a                    7.775982
_cell_length_b                    9.090356
_cell_length_c                    17.203497
_cell_angle_alpha                 89.893967
_cell_angle_beta                  85.386218
_cell_angle_gamma                 90.016148
_cell_volume                      1212.11129733

loop_
_atom_site_label
_atom_site_type_symbol
_atom_type_description
_atom_site_fract_x
_atom_site_fract_y
_atom_site_fract_z
_atom_type_partial_charge
C1    C     C_R   0.499986 0.779996 0.500220 0.897508
C2    C     C_R   0.499972 0.219992 0.500056 0.822091
C3    C     C_1   0.499979 0.934614 0.500230 -0.088103
C4    C     C_1   0.499935 0.065355 0.500166 -0.122241
C5    C     C_R   0.476760 0.499144 0.650692 0.833793
C6    C     C_R   0.523093 0.504897 0.349369 0.847386
C7    C     C_R   0.463194 0.480219 0.735358 -0.154534
C8    C     C_R   0.539746 0.510035 0.264116 -0.124748
C9    C     C_R   0.579543 0.382464 0.766542 -0.167565
C10   C     C_R   0.671100 0.425933 0.224862 -0.232756
C11   C     C_R   0.573936 0.358038 0.846280 -0.041188
C12   C     C_R   0.688827 0.421963 0.143875 -0.029818
C13   C     C_R   0.454525 0.433766 0.895998 0.031560
C14   C     C_R   0.576300 0.503064 0.101464 0.047944
C15   C     C_R   0.334268 0.527999 0.865792 -0.088476
C16   C     C_R   0.450981 0.593136 0.139649 -0.190405
C17   C     C_R   0.336992 0.552743 0.785445 0.322393
C18   C     C_R   0.429846 0.597157 0.220931 0.339938
C19   C     C_2   0.461078 0.422678 0.980422 0.254102
C20   C     C_2   0.586680 0.493049 0.016503 0.185364
Cu1   Cu    Cu3+1 0.330920 0.500000 0.500000 1.133352
Cu2   Cu    Cu3+1 0.669080 0.500000 0.500000 1.074357
H1    H     H_    0.242162 0.585360 0.905466 0.228932
H2    H     H_    0.368132 0.658352 0.105415 0.212871
H3    H     H_    0.787037 0.353121 0.114279 0.187909
H4    H     H_    0.665332 0.283096 0.869479 0.184922
H5    H     H_    0.674818 0.324043 0.728898 0.178766
H6    H     H_    0.757374 0.360009 0.257035 0.173909
N1    N     N_1   0.923170 0.500000 0.500010 -0.008130
N2    N     N_1   0.076830 0.500000 0.499990 0.007912
O1    O     O_R   0.357240 0.711600 0.500000 -0.525755
O2    O     O_R   0.642760 0.288400 0.500000 -0.590226
O3    O     O_R   0.642760 0.711600 0.500000 -0.581597
O4    O     O_R   0.357240 0.288400 0.500000 -0.582912
O5    O     O_R   0.340660 0.500000 0.613590 -0.532810
O6    O     O_R   0.659340 0.500000 0.386410 -0.585649
O7    O     O_R   0.626230 0.500000 0.613600 -0.580124
O8    O     O_R   0.373770 0.500000 0.386400 -0.531196
S1    S     S_3+6 0.268970 0.715098 0.265281 0.047955
O9    O     O_2   0.342633 0.802480 0.328795 -0.272733
O10   O     O_2   0.204502 0.819914 0.206470 -0.231227
O11   O     O_3   0.102228 0.614117 0.304144 -0.488939
H7    H     H_    0.059686 0.560021 0.259578 0.338016
S2    S     S_3+6 0.187854 0.679942 0.750967 0.075279
O12   O     O_2   0.048429 0.596576 0.714330 -0.218352
O13   O     O_2   0.106630 0.771122 0.816890 -0.200293
O14   O     O_3   0.287432 0.792118 0.683737 -0.526164
H8    H     H_    0.383864 0.836457 0.709847 0.337178
S3    S     S_3+6 0.760587 0.588449 0.965297 0.057085
O15   O     O_2   0.884794 0.478998 0.927025 -0.213885
O16   O     O_2   0.695465 0.686669 0.903686 -0.252986
O17   O     O_3   0.865737 0.690991 0.027578 -0.439057
H9    H     H_    0.782309 0.768071 0.046110 0.363226
S4    S     S_3+6 0.290272 0.324409 0.032100 0.035563
O18   O     O_2   0.204378 0.224870 0.977255 -0.196661
O19   O     O_2   0.359687 0.233105 0.095528 -0.277735
O20   O     O_3   0.143418 0.444557 0.071322 -0.499041
H10   H     H_    0.111126 0.407830 0.124740 0.355991

loop_
_geom_bond_atom_site_label_1
_geom_bond_atom_site_label_2
_ccdc_geom_bond_type
C1    C3    S    
C2    C4    S    
C18   S1    S    
C6    O8    A    
N1    N2    T    
Cu1   O5    S    
Cu2   N1    S    
C5    O7    A    
C9    C11   A    
Cu1   N2    S    
Cu2   O2    S    
C19   C20   D    
S2    O14   S    
C12   H3    S    
S3    O17   S    
C2    O4    A    
C15   H1    S    
O20   H10   S    
C17   S2    S    
C1    O3    A    
S1    O10   D    
C16   C18   A    
Cu1   Cu2   S    
O17   H9    S    
C11   C13   A    
Cu1   O1    S    
C20   S3    S    
C10   C12   A    
C5    O5    A    
C19   S4    S    
C2    O2    A    
C12   C14   A    
S1    O11   S    
S4    O19   D    
C13   C15   A    
C14   C16   A    
O11   H7    S    
C13   C19   S    
C3    C4    T    
C7    C9    A    
C1    O1    A    
Cu2   O6    S    
S2    O12   D    
C9    H5    S    
C14   C20   S    
C16   H2    S    
S3    O15   D    
C10   H6    S    
S1    O9    D    
C15   C17   A    
Cu2   O3    S    
C5    C7    S    
C6    C8    S    
Cu1   O4    S    
S2    O13   D    
C11   H4    S    
C7    C17   A    
S4    O18   D    
Cu2   O7    S    
C8    C10   A    
C8    C18   A    
Cu1   O8    S    
O14   H8    S    
C6    O6    A    
S3    O16   D    
S4    O20   S    
