data_mof_unit_28573.cif
_audit_creation_date              2012-12-11T14:38:17-0500
_audit_creation_method            fapswitch 2.2
_symmetry_space_group_name_H-M    P1
_symmetry_Int_Tables_number       1
_space_group_crystal_system       triclinic
_cell_length_a                    19.548512
_cell_length_b                    11.125496
_cell_length_c                    19.622375
_cell_angle_alpha                 90.080951
_cell_angle_beta                  96.779017
_cell_angle_gamma                 89.711756
_cell_volume                      4237.71859065

loop_
_atom_site_label
_atom_site_type_symbol
_atom_type_description
_atom_site_fract_x
_atom_site_fract_y
_atom_site_fract_z
_atom_type_partial_charge
C1    C     C_R   0.727533 0.947723 0.357344 0.528605
C2    C     C_R   0.272765 0.948104 0.642473 0.532716
C3    C     C_R   0.227532 0.447723 0.357343 0.529465
C4    C     C_R   0.772764 0.448103 0.642473 0.531773
C5    C     C_3   0.672963 0.441721 0.460086 -0.265472
C6    C     C_3   0.327867 0.439486 0.539941 -0.265510
C7    C     C_3   0.172961 0.941720 0.460089 -0.265507
C8    C     C_3   0.827863 0.939492 0.539944 -0.265480
C9    C     C_3   0.816025 0.457507 0.534552 -0.198592
C10   C     C_3   0.185122 0.458598 0.465523 -0.196415
C11   C     C_3   0.316026 0.957511 0.534550 -0.198546
C12   C     C_3   0.685120 0.958593 0.465522 -0.196454
C13   C     C_3   0.755640 0.275017 0.562777 -0.258112
C14   C     C_3   0.244445 0.274143 0.437202 -0.258269
C15   C     C_3   0.255644 0.775019 0.562776 -0.258086
C16   C     C_3   0.744450 0.774143 0.437202 -0.258317
C17   C     C_3   0.754881 0.411093 0.571577 0.035675
C18   C     C_3   0.245882 0.410093 0.428289 0.035718
C19   C     C_3   0.254883 0.911095 0.571577 0.035415
C20   C     C_3   0.745883 0.910093 0.428289 0.035962
C21   C     C_3   0.734764 0.364018 0.440522 0.044647
C22   C     C_3   0.265891 0.363250 0.559480 0.044166
C23   C     C_3   0.234762 0.864021 0.440522 0.044401
C24   C     C_3   0.765888 0.863252 0.559480 0.044441
C25   C     C_3   0.801189 0.442612 0.457404 0.169250
C26   C     C_3   0.199775 0.443539 0.542618 0.167899
C27   C     C_3   0.301186 0.942620 0.457403 0.169155
C28   C     C_3   0.699770 0.943535 0.542617 0.167992
C29   C     C_3   0.732850 0.250993 0.486631 -0.268791
C30   C     C_3   0.267985 0.250130 0.513229 -0.267865
C31   C     C_3   0.232851 0.750996 0.486632 -0.268714
C32   C     C_3   0.767982 0.750130 0.513231 -0.267941
C33   C     C_3   0.423074 0.273810 0.974153 -0.240126
C34   C     C_3   0.447249 0.274005 0.051384 -0.234107
C35   C     C_3   0.052934 0.772619 0.948563 -0.234113
C36   C     C_3   0.077059 0.772568 0.025819 -0.240494
C37   C     C_3   0.444511 0.051593 0.969091 -0.231796
C38   C     C_3   0.563748 0.193546 0.027788 -0.228810
C39   C     C_3   0.936335 0.694871 0.972235 -0.227999
C40   C     C_3   0.055464 0.550778 0.030928 -0.232092
C41   C     C_3   0.540090 0.195356 0.950703 -0.224808
C42   C     C_3   0.468134 0.050805 0.047246 -0.239867
C43   C     C_3   0.031744 0.549922 0.952798 -0.239690
C44   C     C_3   0.960006 0.696532 0.049314 -0.224280
C45   C     C_R   0.559686 0.182870 0.347614 0.528348
C46   C     C_R   0.464236 0.179833 0.661805 0.541246
C47   C     C_R   0.059701 0.682871 0.347616 0.532487
C48   C     C_R   0.964236 0.679833 0.661804 0.531578
C49   C     C_3   0.461355 0.174925 0.937530 0.044912
C50   C     C_3   0.501666 0.173207 0.069056 0.051846
C51   C     C_3   0.998368 0.672898 0.930951 0.053859
C52   C     C_3   0.038734 0.674627 0.062475 0.043178
C53   C     C_1   0.762303 0.427346 0.904467 -0.007761
C54   C     C_1   0.237655 0.427721 0.095356 -0.018479
C55   C     C_1   0.262325 0.927798 0.904630 -0.018758
C56   C     C_1   0.737683 0.927211 0.095537 -0.007189
C57   C     C_1   0.747843 0.406725 0.034563 -0.050177
C58   C     C_1   0.251020 0.409082 0.964839 -0.058549
C59   C     C_1   0.248761 0.908940 0.035104 -0.057966
C60   C     C_1   0.752047 0.906628 0.965434 -0.050700
C61   C     C_1   0.754063 0.416138 0.963953 -0.047913
C62   C     C_1   0.245446 0.417438 0.035660 -0.056684
C63   C     C_1   0.254456 0.917446 0.964298 -0.056305
C64   C     C_1   0.745888 0.915982 0.036041 -0.048040
C65   C     C_1   0.743168 0.392455 0.094631 -0.011187
C66   C     C_1   0.255780 0.394630 0.904749 -0.021752
C67   C     C_1   0.244000 0.894502 0.095184 -0.021219
C68   C     C_1   0.756709 0.892370 0.905357 -0.011651
C69   C     C_R   0.727119 0.322294 0.368279 0.560453
C70   C     C_R   0.273115 0.321827 0.631824 0.573624
C71   C     C_R   0.227119 0.822295 0.368279 0.561813
C72   C     C_R   0.773114 0.821830 0.631824 0.572218
C73   C     C_R   0.722140 0.954152 0.163314 0.543792
C74   C     C_R   0.277786 0.954037 0.836707 0.533759
C75   C     C_R   0.222196 0.454095 0.163302 0.534171
C76   C     C_R   0.777838 0.454091 0.836697 0.543049
C77   C     C_R   0.529529 0.179071 0.142101 0.544982
C78   C     C_R   0.438973 0.182218 0.863077 0.549879
C79   C     C_R   0.061128 0.681884 0.136939 0.551999
C80   C     C_R   0.970463 0.678849 0.857911 0.536669
C81   C     C_R   0.735970 0.358495 0.163700 0.560647
C82   C     C_R   0.263704 0.359157 0.835980 0.549251
C83   C     C_R   0.236227 0.859252 0.163981 0.552351
C84   C     C_R   0.763991 0.858323 0.836288 0.557648
C85   C     C_1   0.489620 0.170070 0.596690 -0.017594
C86   C     C_1   0.537075 0.173642 0.414048 -0.028730
C87   C     C_1   0.989629 0.670068 0.596693 -0.016018
C88   C     C_1   0.037096 0.673641 0.414054 -0.029876
C89   C     C_1   0.521494 0.167011 0.471367 -0.054742
C90   C     C_1   0.505063 0.165178 0.539249 -0.048488
C91   C     C_1   0.021514 0.667008 0.471373 -0.054862
C92   C     C_1   0.005078 0.665175 0.539254 -0.048000
C93   C     C_3   0.681245 0.459312 0.539722 -0.113196
C94   C     C_3   0.319904 0.455962 0.460163 -0.112592
C95   C     C_3   0.181247 0.959313 0.539726 -0.112870
C96   C     C_3   0.819903 0.955966 0.460166 -0.112986
Cr1   Cr    Cr6+3 0.765780 0.160710 0.267420 1.016258
Cr2   Cr    Cr6+3 0.234220 0.160710 0.732580 1.010175
Cr3   Cr    Cr6+3 0.265780 0.660710 0.267420 1.007902
Cr4   Cr    Cr6+3 0.734220 0.660710 0.732580 1.018382
Cr5   Cr    Cr6+3 0.612200 0.009560 0.248850 1.015789
Cr6   Cr    Cr6+3 0.387800 0.009560 0.751150 1.013014
Cr7   Cr    Cr6+3 0.112200 0.509560 0.248850 1.015837
Cr8   Cr    Cr6+3 0.887800 0.509560 0.751150 1.013704
Cr9   Cr    Cr6+3 0.616030 0.323720 0.248510 1.007552
Cr10  Cr    Cr6+3 0.383970 0.323720 0.751490 1.005121
Cr11  Cr    Cr6+3 0.116030 0.823720 0.248510 1.004719
Cr12  Cr    Cr6+3 0.883970 0.823720 0.751490 1.008575
H1    H     H_    0.675049 0.554228 0.550714 0.153961
H2    H     H_    0.325777 0.550949 0.449266 0.152839
H3    H     H_    0.175056 0.054231 0.550714 0.154040
H4    H     H_    0.825780 0.050950 0.449263 0.152759
H5    H     H_    0.678653 0.222080 0.483156 0.101029
H6    H     H_    0.322298 0.220572 0.516239 0.106861
H7    H     H_    0.178653 0.722084 0.483161 0.100863
H8    H     H_    0.822295 0.720569 0.516249 0.107073
H9    H     H_    0.863628 0.408140 0.554163 0.150973
H10   H     H_    0.137120 0.411221 0.445861 0.151855
H11   H     H_    0.363629 0.908141 0.554159 0.150944
H12   H     H_    0.637119 0.911213 0.445858 0.151876
H13   H     H_    0.366790 0.256433 0.965937 0.114605
H14   H     H_    0.469120 0.363978 0.065676 0.150155
H15   H     H_    0.031217 0.862962 0.934151 0.150090
H16   H     H_    0.133372 0.754390 0.034123 0.114129
H17   H     H_    0.431979 0.364260 0.952765 0.148209
H18   H     H_    0.402462 0.260335 0.080637 0.121644
H19   H     H_    0.097725 0.757656 0.919366 0.119832
H20   H     H_    0.068077 0.863311 0.047131 0.147879
H21   H     H_    0.388243 0.034777 0.959903 0.125752
H22   H     H_    0.589600 0.280277 0.042693 0.138135
H23   H     H_    0.910641 0.782124 0.957349 0.138813
H24   H     H_    0.111714 0.532985 0.040033 0.125811
H25   H     H_    0.423233 0.034293 0.075888 0.125466
H26   H     H_    0.554141 0.283406 0.929485 0.147964
H27   H     H_    0.945995 0.784935 0.070559 0.148942
H28   H     H_    0.076573 0.532182 0.924103 0.124225
H29   H     H_    0.567773 0.124106 0.924773 0.133348
H30   H     H_    0.505578 0.976006 0.059397 0.144912
H31   H     H_    0.994178 0.475875 0.940744 0.145086
H32   H     H_    0.932287 0.625922 0.075221 0.135081
H33   H     H_    0.602841 0.120943 0.039353 0.124619
H34   H     H_    0.470907 0.977219 0.944456 0.148245
H35   H     H_    0.029088 0.477051 0.055633 0.148398
H36   H     H_    0.897108 0.623118 0.960665 0.124860
H37   H     H_    0.623030 0.398105 0.441880 0.140009
H38   H     H_    0.377728 0.395229 0.558656 0.143871
H39   H     H_    0.123027 0.898104 0.441885 0.139640
H40   H     H_    0.877724 0.895237 0.558659 0.144278
H41   H     H_    0.671231 0.530406 0.434089 0.097337
H42   H     H_    0.329543 0.528586 0.565614 0.096312
H43   H     H_    0.171226 0.030405 0.434091 0.097470
H44   H     H_    0.829536 0.028592 0.565615 0.096157
H45   H     H_    0.330598 0.049058 0.549531 0.081072
H46   H     H_    0.671403 0.050539 0.450744 0.070892
H47   H     H_    0.830596 0.549055 0.549531 0.081431
H48   H     H_    0.171408 0.550544 0.450745 0.070582
H49   H     H_    0.286769 0.033274 0.437495 0.132480
H50   H     H_    0.714391 0.033931 0.562652 0.132519
H51   H     H_    0.786776 0.533266 0.437493 0.132631
H52   H     H_    0.214400 0.533934 0.562652 0.132390
H53   H     H_    0.807766 0.236405 0.578069 0.119276
H54   H     H_    0.192008 0.237251 0.422521 0.119796
H55   H     H_    0.307771 0.736408 0.578066 0.119419
H56   H     H_    0.692016 0.737245 0.422515 0.119665
H57   H     H_    0.720454 0.231248 0.595616 0.117082
H58   H     H_    0.278907 0.228724 0.404004 0.117770
H59   H     H_    0.220460 0.731247 0.595617 0.116588
H60   H     H_    0.778919 0.728732 0.404008 0.118305
H61   H     H_    0.761819 0.178645 0.468354 0.102375
H62   H     H_    0.239700 0.178149 0.531752 0.101200
H63   H     H_    0.261819 0.678648 0.468353 0.102462
H64   H     H_    0.739694 0.678152 0.531752 0.101106
O1    O     O_R   0.783100 0.287550 0.345460 -0.460290
O2    O     O_R   0.216900 0.287550 0.654540 -0.462788
O3    O     O_R   0.283100 0.787550 0.345460 -0.459403
O4    O     O_R   0.716900 0.787550 0.654540 -0.463691
O5    O     O_R   0.554710 0.081900 0.170950 -0.498601
O6    O     O_R   0.445290 0.081900 0.829050 -0.501393
O7    O     O_R   0.054710 0.581900 0.170950 -0.495073
O8    O     O_R   0.945290 0.581900 0.829050 -0.502923
O9    O     O_R   0.545650 0.284910 0.163740 -0.520392
O10   O     O_R   0.454350 0.284910 0.836260 -0.519521
O11   O     O_R   0.045650 0.784910 0.163740 -0.515006
O12   O     O_R   0.954350 0.784910 0.836260 -0.523018
O13   O     O_R   0.677950 0.374280 0.185410 -0.492436
O14   O     O_R   0.322050 0.374280 0.814590 -0.506134
O15   O     O_R   0.177950 0.874280 0.185410 -0.506220
O16   O     O_R   0.822050 0.874280 0.814590 -0.492262
O17   O     O_3   0.664670 0.164660 0.254930 -0.287430
O18   O     O_3   0.335330 0.164660 0.745070 -0.290390
O19   O     O_3   0.164670 0.664660 0.254930 -0.304542
O20   O     O_3   0.835330 0.664660 0.745070 -0.273461
O21   O     O_R   0.760020 0.037400 0.337700 -0.532085
O22   O     O_R   0.239980 0.037400 0.662300 -0.529771
O23   O     O_R   0.260020 0.537400 0.337700 -0.530500
O24   O     O_R   0.739980 0.537400 0.662300 -0.531375
O25   O     O_R   0.666600 0.921990 0.332020 -0.530894
O26   O     O_R   0.333400 0.921990 0.667980 -0.526019
O27   O     O_R   0.166600 0.421990 0.332020 -0.530044
O28   O     O_R   0.833400 0.421990 0.667980 -0.527003
O29   O     O_R   0.557260 0.082670 0.312540 -0.479915
O30   O     O_R   0.442740 0.082670 0.687460 -0.486173
O31   O     O_R   0.057260 0.582670 0.312540 -0.472274
O32   O     O_R   0.942740 0.582670 0.687460 -0.491918
O33   O     O_R   0.548410 0.285740 0.316480 -0.523382
O34   O     O_R   0.451590 0.285740 0.683520 -0.526410
O35   O     O_R   0.048410 0.785740 0.316480 -0.516619
O36   O     O_R   0.951590 0.785740 0.683520 -0.531262
O37   O     O_R   0.680500 0.375040 0.327000 -0.518978
O38   O     O_R   0.319500 0.375040 0.673000 -0.510232
O39   O     O_R   0.180500 0.875040 0.327000 -0.518353
O40   O     O_R   0.819500 0.875040 0.673000 -0.510957
O41   O     O_R   0.780350 0.286720 0.192720 -0.498876
O42   O     O_R   0.219650 0.286720 0.807280 -0.501295
O43   O     O_R   0.280350 0.786720 0.192720 -0.499392
O44   O     O_R   0.719650 0.786720 0.807280 -0.500849
O45   O     O_R   0.757470 0.036630 0.196110 -0.497311
O46   O     O_R   0.242530 0.036630 0.803890 -0.499875
O47   O     O_R   0.257470 0.536630 0.196110 -0.498719
O48   O     O_R   0.742530 0.536630 0.803890 -0.498589
O49   O     O_R   0.663840 0.921160 0.179280 -0.508943
O50   O     O_R   0.336160 0.921160 0.820720 -0.516439
O51   O     O_R   0.163840 0.421160 0.179280 -0.516037
O52   O     O_R   0.836160 0.421160 0.820720 -0.509540
O53   O     O_3   0.860205 0.414210 0.423685 -0.530931
C97   C     C_3   0.898906 0.313407 0.450093 -0.079413
H65   H     H_    0.868733 0.246245 0.474857 0.092838
H66   H     H_    0.942353 0.343925 0.487233 0.098458
H67   H     H_    0.921141 0.268221 0.407306 0.144484
O54   O     O_3   0.140640 0.416842 0.576245 -0.535712
C98   C     C_3   0.101700 0.317003 0.549677 -0.081966
H68   H     H_    0.131933 0.248590 0.525413 0.095116
H69   H     H_    0.058644 0.348471 0.512175 0.100857
H70   H     H_    0.078844 0.273143 0.592302 0.143140
O55   O     O_3   0.360200 0.914231 0.423678 -0.531839
C99   C     C_3   0.398903 0.813426 0.450079 -0.079890
H71   H     H_    0.368732 0.746255 0.474838 0.093210
H72   H     H_    0.442350 0.843940 0.487220 0.098615
H73   H     H_    0.421140 0.768251 0.407288 0.144098
O56   O     O_3   0.640635 0.916829 0.576241 -0.534900
C100  C     C_3   0.601696 0.816993 0.549668 -0.081551
H74   H     H_    0.631929 0.748584 0.525400 0.094786
H75   H     H_    0.558640 0.848466 0.512167 0.100665
H76   H     H_    0.578839 0.773125 0.592290 0.143535
C101  C     C_3   0.621681 0.401361 0.573930 -0.270881
C102  C     C_3   0.559083 0.484562 0.572075 -0.455573
H77   H     H_    0.551483 0.533291 0.522624 0.129025
H78   H     H_    0.567580 0.551856 0.614023 0.144569
H79   H     H_    0.512227 0.432190 0.578902 0.164117
H80   H     H_    0.606436 0.316070 0.548272 0.161114
H81   H     H_    0.638284 0.379399 0.628611 0.163992
C103  C     C_3   0.379692 0.395031 0.426402 -0.265589
C104  C     C_3   0.438728 0.482034 0.419587 -0.451157
H82   H     H_    0.448039 0.538576 0.466181 0.122624
H83   H     H_    0.425053 0.542215 0.374881 0.150490
H84   H     H_    0.486354 0.431658 0.411913 0.168018
H85   H     H_    0.400070 0.315243 0.456043 0.158159
H86   H     H_    0.361385 0.362848 0.373820 0.165084
C105  C     C_3   0.121689 0.901364 0.573945 -0.271017
C106  C     C_3   0.059123 0.984623 0.572181 -0.456120
H87   H     H_    0.051507 0.033451 0.522762 0.129246
H88   H     H_    0.067672 0.051834 0.614169 0.144143
H89   H     H_    0.012258 0.932276 0.579008 0.164058
H90   H     H_    0.106399 0.816129 0.548248 0.161012
H91   H     H_    0.138315 0.879297 0.628607 0.162813
C107  C     C_3   0.879695 0.895030 0.426416 -0.265416
C108  C     C_3   0.938775 0.981989 0.419702 -0.450380
H92   H     H_    0.948058 0.038454 0.466329 0.122305
H93   H     H_    0.925163 0.042245 0.375019 0.150990
H94   H     H_    0.986398 0.931583 0.412051 0.168181
H95   H     H_    0.900023 0.815173 0.456023 0.158280
H96   H     H_    0.861408 0.862956 0.373807 0.166408

loop_
_geom_bond_atom_site_label_1
_geom_bond_atom_site_label_2
_ccdc_geom_bond_type
C58   C62   S    
C39   C51   S    
C101  H80   S    
C67   C83   S    
C8    C24   S    
C9    H47   S    
Cr11  O15   S    
C42   H30   S    
C9    H9    S    
C14   C18   S    
C2    O22   A    
C35   C36   S    
C8    C96   S    
Cr12  O36   S    
C83   O15   A    
Cr3   O43   S    
Cr7   O19   S    
C9    C25   S    
C70   O2    A    
C36   H20   S    
C16   H56   S    
C95   C105  S    
C96   H4    S    
C11   C19   S    
C28   H50   S    
C31   H63   S    
C48   O36   A    
C82   O14   A    
C42   H25   S    
C10   H10   S    
C38   H22   S    
C13   C29   S    
C74   O50   A    
C8    H44   S    
C10   C18   S    
C15   C19   S    
Cr5   O17   S    
C107  H95   S    
Cr6   O26   S    
C104  H82   S    
Cr2   O2    S    
C108  H94   S    
Cr5   O25   S    
Cr11  O39   S    
C33   C49   S    
C6    C22   S    
Cr3   O23   S    
Cr11  O19   S    
Cr9   O37   S    
C49   C78   S    
Cr2   O22   S    
C3    C18   S    
C46   O34   A    
C100  H74   S    
C26   H52   S    
C103  C104  S    
Cr1   O21   S    
C37   C42   S    
C97   H67   S    
C51   C80   S    
Cr10  O10   S    
C21   C25   S    
C59   C67   T    
C43   C51   S    
C12   H12   S    
C5    H41   S    
C13   H57   S    
C58   C66   T    
C40   C43   S    
C81   O41   A    
C37   H21   S    
C11   C27   S    
C6    C94   S    
C55   C63   T    
C25   H51   S    
C77   O9    A    
O55   C99   S    
C56   C64   T    
C43   H31   S    
C101  H81   S    
C23   C27   S    
C14   H58   S    
C30   H62   S    
Cr11  O35   S    
C36   C52   S    
C27   O55   S    
Cr5   O29   S    
C46   C85   S    
Cr7   O51   S    
C34   H18   S    
C44   C52   S    
C44   H27   S    
Cr1   O17   S    
C40   H24   S    
C20   C96   S    
C75   O51   A    
C34   H14   S    
C45   O29   A    
C82   O42   A    
C87   C92   T    
C33   H13   S    
Cr8   O28   S    
Cr6   O6    S    
C15   H59   S    
C102  H79   S    
Cr4   O20   S    
C69   O1    A    
C14   C30   S    
C106  H89   S    
C31   H7    S    
C41   H26   S    
Cr12  O40   S    
C103  H85   S    
O53   C97   S    
C7    H39   S    
Cr4   O24   S    
C96   C107  S    
C102  H78   S    
C78   O6    A    
C34   C50   S    
C5    H37   S    
C37   H34   S    
Cr12  O12   S    
C99   H72   S    
C103  H86   S    
C68   C84   S    
Cr9   O17   S    
Cr1   O1    S    
Cr10  O14   S    
C38   C41   S    
C106  H88   S    
C99   H71   S    
C10   H48   S    
C91   C92   S    
C81   O13   A    
C27   H49   S    
Cr2   O42   S    
C54   C62   T    
C40   C52   S    
C21   C29   S    
C15   C31   S    
C94   H2    S    
C3    O23   A    
C71   O3    A    
Cr11  O11   S    
C77   O5    A    
C100  H75   S    
C69   O37   A    
C23   C31   S    
C14   H54   S    
C1    O21   A    
C24   C32   S    
Cr4   O4    S    
C105  H91   S    
C23   C71   S    
C66   C82   S    
C37   C49   S    
C72   O40   A    
C65   C81   S    
C74   O46   A    
C88   C91   T    
C75   O47   A    
C16   C20   S    
C57   C65   T    
C12   C20   S    
C22   C70   S    
C33   H17   S    
C33   C34   S    
C48   C87   S    
C47   O31   A    
C98   H69   S    
C78   O10   A    
Cr7   O27   S    
C32   H8    S    
C3    O27   A    
C13   H53   S    
C73   O45   A    
Cr4   O48   S    
C107  H96   S    
C93   C101  S    
Cr2   O18   S    
C42   C50   S    
C7    H43   S    
C4    C17   S    
Cr8   O32   S    
C9    C17   S    
C5    C93   S    
C15   H55   S    
Cr3   O47   S    
C105  H90   S    
C71   O39   A    
Cr2   O46   S    
C35   C51   S    
C18   C94   S    
C38   H33   S    
Cr1   O45   S    
C59   C63   S    
C84   O16   A    
C53   C76   S    
C17   C93   S    
Cr10  O18   S    
C53   C61   T    
C105  C106  S    
C52   C79   S    
C50   C77   S    
C80   O8    A    
C35   H19   S    
C19   C95   S    
C24   C72   S    
C104  H83   S    
C30   H6    S    
Cr5   O49   S    
C4    O24   A    
C29   H5    S    
C102  H77   S    
Cr4   O44   S    
C1    C20   S    
C45   O33   A    
C56   C73   S    
C22   C30   S    
C11   H11   S    
C36   H16   S    
C2    C19   S    
C2    O26   A    
C41   H29   S    
Cr12  O16   S    
C1    O25   A    
C24   C28   S    
C12   H46   S    
C106  H87   S    
C86   C89   T    
C94   C103  S    
Cr10  O34   S    
C104  H84   S    
C83   O43   A    
C85   C90   T    
C57   C61   S    
C39   C44   S    
C38   C50   S    
Cr9   O33   S    
C47   O35   A    
C16   C32   S    
C41   C49   S    
C7    C95   S    
C48   O32   A    
C73   O49   A    
Cr9   O13   S    
C43   H28   S    
C99   H73   S    
C13   C17   S    
C60   C64   S    
C108  H92   S    
Cr9   O9    S    
C47   C88   S    
C100  H76   S    
C35   H15   S    
C45   C86   S    
Cr6   O30   S    
Cr10  O38   S    
C55   C74   S    
C95   H3    S    
C8    H40   S    
Cr3   O19   S    
C108  H93   S    
C10   C26   S    
Cr8   O8    S    
C7    C23   S    
C39   H23   S    
C16   H60   S    
C6    H38   S    
Cr6   O50   S    
C25   O53   S    
O56   C100  S    
Cr6   O18   S    
C79   O11   A    
C29   H61   S    
C98   H70   S    
Cr7   O7    S    
C80   O12   A    
C32   H64   S    
O54   C98   S    
C72   O4    A    
Cr7   O31   S    
Cr3   O3    S    
Cr5   O5    S    
C107  C108  S    
C11   H45   S    
C54   C75   S    
C6    H42   S    
C76   O52   A    
C4    O28   A    
C79   O7    A    
C5    C21   S    
C39   H36   S    
C60   C68   T    
C44   H32   S    
C97   H65   S    
C22   C26   S    
C40   H35   S    
C21   C69   S    
C98   H68   S    
C76   O48   A    
Cr1   O41   S    
C70   O38   A    
C12   C28   S    
C89   C90   S    
C101  C102  S    
Cr8   O52   S    
C26   O54   S    
C28   O56   S    
C97   H66   S    
C84   O44   A    
C93   H1    S    
C46   O30   A    
Cr12  O20   S    
Cr8   O20   S    
