data_mof_unit_67247.cif
_audit_creation_date              2012-12-11T18:15:43-0500
_audit_creation_method            fapswitch 2.2
_symmetry_space_group_name_H-M    P1
_symmetry_Int_Tables_number       1
_space_group_crystal_system       triclinic
_cell_length_a                    20.145826
_cell_length_b                    20.209558
_cell_length_c                    8.477625
_cell_angle_alpha                 90.156843
_cell_angle_beta                  92.028375
_cell_angle_gamma                 89.920996
_cell_volume                      3449.38687272

loop_
_atom_site_label
_atom_site_type_symbol
_atom_type_description
_atom_site_fract_x
_atom_site_fract_y
_atom_site_fract_z
_atom_type_partial_charge
Ba1   Ba    Ba6+2 0.999980 0.452130 0.155200 1.240125
Ba2   Ba    Ba6+2 0.999980 0.547870 0.655200 1.531039
Ba3   Ba    Ba6+2 0.499980 0.952130 0.155200 1.253866
Ba4   Ba    Ba6+2 0.499980 0.047870 0.655200 0.782698
C1    C     C_3   0.937035 0.150139 0.307643 -0.345532
C2    C     C_R   0.111197 0.661991 0.181231 -0.141040
C3    C     C_3   0.827707 0.066379 0.546699 -0.421155
C4    C     C_3   0.004834 0.083641 0.707410 -0.009201
C5    C     C_3   0.930174 0.823549 0.027060 0.107781
C6    C     C_3   0.507652 0.594865 0.690060 0.006741
C7    C     C_3   0.463486 0.374497 0.219653 0.255294
C8    C     C_3   0.109714 0.119741 0.064307 0.069632
C9    C     C_3   0.041687 0.975412 0.297598 0.210157
C10   C     C_3   0.570866 0.579202 0.071812 0.421586
C11   C     C_3   0.586755 0.451449 0.461908 0.180896
C12   C     C_R   0.612315 0.838847 0.681588 -0.412268
C13   C     C_R   0.614064 0.160180 0.174917 -0.418722
C14   C     C_R   0.126682 0.286696 0.576664 0.014337
C15   C     C_R   0.122921 0.715120 0.080646 0.076631
C16   C     C_R   0.623226 0.785258 0.581774 0.106975
C17   C     C_R   0.625975 0.213232 0.073832 0.147092
C18   C     C_R   0.175496 0.240013 0.617840 -0.147456
C19   C     C_R   0.169270 0.763638 0.125326 -0.155954
C20   C     C_R   0.671467 0.738449 0.623790 -0.314898
C21   C     C_3   0.051046 0.895125 0.706420 -0.376935
C22   C     C_R   0.672908 0.261374 0.116746 -0.195261
C23   C     C_R   0.212730 0.245478 0.760925 0.054436
C24   C     C_R   0.206155 0.758961 0.268591 -0.013285
C25   C     C_R   0.708324 0.742970 0.767549 0.000446
C26   C     C_R   0.708886 0.257302 0.261089 -0.055126
C27   C     C_R   0.202887 0.300915 0.860904 0.005633
C28   C     C_R   0.196375 0.703769 0.368309 -0.051445
C29   C     C_R   0.697933 0.797675 0.869049 0.073090
C30   C     C_R   0.697606 0.203224 0.363618 0.080592
C31   C     C_R   0.793533 0.696587 0.952422 -0.012741
C32   C     C_3   0.428009 0.655685 0.320309 -0.202411
C33   C     C_R   0.796488 0.301828 0.442513 -0.015263
C34   C     C_R   0.299734 0.200884 0.943555 -0.088457
C35   C     C_R   0.295914 0.801973 0.446846 -0.116787
C36   C     C_R   0.779193 0.748188 0.059452 0.116246
C37   C     C_R   0.783949 0.248747 0.545940 0.012864
C38   C     C_R   0.289796 0.256202 0.043667 -0.045865
C39   C     C_R   0.284666 0.747915 0.548289 -0.011740
C40   C     C_R   0.845347 0.650226 0.993467 -0.005355
C41   C     C_R   0.848366 0.347778 0.485014 0.073259
C42   C     C_R   0.349468 0.152821 0.988012 0.102468
C43   C     C_3   0.439561 0.352583 0.815813 -0.293368
C44   C     C_R   0.347788 0.848207 0.488370 0.131930
C45   C     C_R   0.880863 0.657452 0.137233 -0.191886
C46   C     C_R   0.886391 0.338157 0.623998 -0.317402
C47   C     C_R   0.387263 0.161873 0.128215 -0.319333
C48   C     C_R   0.385793 0.838827 0.627689 -0.260897
C49   C     C_3   0.985754 0.181830 0.849888 0.625562
C50   C     C_3   0.977832 0.807791 0.279270 0.988012
C51   C     C_3   0.492683 0.684873 0.861210 0.808313
C52   C     C_3   0.517381 0.294590 0.380047 0.688133
C53   C     C_R   0.863153 0.705070 0.246961 0.026487
C54   C     C_R   0.153413 0.349406 0.816543 -0.020854
C55   C     C_R   0.870714 0.288486 0.729020 0.004203
C56   C     C_R   0.374520 0.214120 0.230472 0.052261
C57   C     C_R   0.371616 0.787802 0.731024 -0.112594
C58   C     C_R   0.811695 0.749490 0.209253 -0.088203
C59   C     C_R   0.820240 0.243419 0.690084 -0.123439
C60   C     C_R   0.326759 0.261504 0.187345 -0.110664
C61   C     C_R   0.321920 0.742000 0.691045 0.000809
C62   C     C_R   0.755718 0.693697 0.809516 -0.100893
C63   C     C_R   0.756471 0.306552 0.302552 -0.080692
C64   C     C_R   0.259590 0.195977 0.803976 -0.033215
C65   C     C_R   0.148293 0.653780 0.322831 0.117056
C66   C     C_R   0.254594 0.807514 0.309533 -0.005255
C67   C     C_3   0.058517 0.196599 0.896988 0.474012
C68   C     C_3   0.031236 0.861629 0.289964 0.138616
C69   C     C_3   0.562794 0.680493 0.940461 0.235250
C70   C     C_3   0.570696 0.338401 0.460491 0.257624
C71   C     C_3   0.813480 0.457281 0.829804 0.483208
C72   C     C_3   0.807451 0.535269 0.291285 0.293467
C73   C     C_3   0.309984 0.960610 0.811900 0.318535
C74   C     C_3   0.309177 0.039069 0.302332 0.413292
C75   C     C_3   0.751155 0.414864 0.812972 0.161148
C76   C     C_R   0.650707 0.847850 0.821125 0.086332
C77   C     C_3   0.741598 0.567878 0.237242 0.403339
C78   C     C_3   0.249343 0.916660 0.827180 0.386526
C79   C     C_3   0.257551 0.090943 0.347990 0.044877
C80   C     C_3   0.241292 0.492025 0.073004 0.809611
C81   C     C_3   0.224918 0.489732 0.566293 0.817381
C82   C     C_3   0.743030 0.988094 0.074094 0.745862
C83   C     C_3   0.726272 0.992254 0.570983 0.791204
C84   C     C_3   0.310600 0.460165 0.048372 -0.140697
C85   C     C_3   0.272322 0.535855 0.656397 -0.028044
C86   C     C_3   0.809906 0.952313 0.044684 -0.161948
C87   C     C_R   0.649795 0.152918 0.318766 0.087185
C88   C     C_3   0.774749 0.039860 0.654490 -0.121432
C89   C     C_3   0.971800 0.215015 0.349121 0.371645
C90   C     C_3   0.084465 0.828545 0.735790 0.428688
C91   C     C_3   0.466728 0.718242 0.361719 0.209170
C92   C     C_3   0.473309 0.286429 0.850463 0.246374
C93   C     C_R   0.241998 0.304915 0.001824 0.037643
C94   C     C_R   0.235371 0.700816 0.508718 0.009817
C95   C     C_R   0.733595 0.798623 0.015420 -0.166652
C96   C     C_R   0.734322 0.202058 0.507120 -0.072469
C97   C     C_3   0.642883 0.425526 0.892957 0.121666
C98   C     C_R   0.115066 0.339987 0.677211 -0.253925
C99   C     C_3   0.699387 0.572376 0.489865 0.232929
C100  C     C_3   0.183937 0.947337 0.036861 0.227479
C101  C     C_3   0.185220 0.052010 0.535955 0.329769
C102  C     C_3   0.245816 0.607328 0.020587 0.007021
C103  C     C_3   0.229743 0.386646 0.440089 0.315745
C104  C     C_3   0.754851 0.103180 0.025081 0.283020
C105  C     C_3   0.729817 0.887406 0.452866 0.103665
C106  C     C_3   0.369946 0.507771 0.048854 -0.532048
C107  C     C_3   0.327456 0.562737 0.555535 -0.588427
C108  C     C_3   0.872999 0.993714 0.072920 -0.379478
H1    H     H_    0.957958 0.251029 0.255175 0.140925
H2    H     H_    0.746471 0.622511 0.231005 -0.075198
H3    H     H_    0.239961 0.336237 0.484123 0.040929
H4    H     H_    0.252889 0.388662 0.325742 -0.001030
H5    H     H_    0.175386 0.395232 0.424324 0.017923
H6    H     H_    0.706970 0.107954 0.957180 0.052116
H7    H     H_    0.796910 0.096797 0.946979 0.020041
H8    H     H_    0.764154 0.150652 0.087283 0.048136
H9    H     H_    0.738752 0.837641 0.502372 0.088497
H10   H     H_    0.753253 0.887515 0.338187 0.062452
H11   H     H_    0.675529 0.896401 0.436152 0.080501
H12   H     H_    0.370851 0.538236 0.941125 0.182016
H13   H     H_    0.206203 0.937273 0.757373 -0.065646
H14   H     H_    0.370876 0.539477 0.155857 0.182117
H15   H     H_    0.416721 0.479437 0.049540 0.134174
H16   H     H_    0.306776 0.587971 0.448831 0.204947
H17   H     H_    0.357436 0.598879 0.626050 0.144238
H18   H     H_    0.360313 0.521847 0.518061 0.186218
H19   H     H_    0.880133 0.029047 0.975601 0.166130
H20   H     H_    0.872218 0.020097 0.187860 0.165681
H21   H     H_    0.916996 0.960832 0.076081 0.160922
H22   H     H_    0.805067 0.091221 0.441582 0.163729
H23   H     H_    0.859049 0.102819 0.613012 0.117146
H24   H     H_    0.276643 0.120802 0.450487 0.074402
H25   H     H_    0.859679 0.025279 0.506487 0.187829
H26   H     H_    0.050104 0.056135 0.746300 0.056482
H27   H     H_    0.018923 0.119384 0.614959 0.054255
H28   H     H_    0.970046 0.047065 0.652898 0.116455
H29   H     H_    0.882606 0.834946 0.963623 0.079435
H30   H     H_    0.942333 0.771465 0.997173 0.108683
H31   H     H_    0.967430 0.858624 0.983458 0.090083
H32   H     H_    0.551524 0.568479 0.741411 0.024808
H33   H     H_    0.524280 0.632265 0.604522 0.072072
H34   H     H_    0.477360 0.557213 0.625499 0.113148
H35   H     H_    0.219566 0.464293 0.167914 0.054738
H36   H     H_    0.441598 0.389989 0.332517 0.107267
H37   H     H_    0.421148 0.366731 0.135494 0.027961
H38   H     H_    0.494827 0.415283 0.176967 0.012863
H39   H     H_    0.160717 0.127954 0.022360 0.074827
H40   H     H_    0.084960 0.078519 0.999119 0.069932
H41   H     H_    0.113156 0.104740 0.189273 0.153592
H42   H     H_    0.036532 0.983792 0.168201 0.024345
H43   H     H_    0.094675 0.967953 0.333098 0.039925
H44   H     H_    0.024109 0.020510 0.358133 0.067868
H45   H     H_    0.616782 0.567020 0.008908 -0.046869
H46   H     H_    0.181435 0.477703 0.637524 -0.044859
H47   H     H_    0.526709 0.555522 0.014382 0.018027
H48   H     H_    0.575492 0.557610 0.191442 0.076111
H49   H     H_    0.593078 0.452665 0.332169 0.057195
H50   H     H_    0.635666 0.445791 0.524498 0.054198
H51   H     H_    0.564983 0.499322 0.496429 0.039849
H52   H     H_    0.720711 0.961286 0.170002 0.060126
H53   H     H_    0.683470 0.981708 0.645434 -0.016143
H54   H     H_    0.309558 0.429977 0.938891 0.070303
H55   H     H_    0.244085 0.575510 0.710516 0.041136
H56   H     H_    0.809515 0.930673 0.924239 0.085375
H57   H     H_    0.133606 0.836844 0.795538 -0.008373
H58   H     H_    0.747117 0.079794 0.709396 0.049141
H59   H     H_    0.321358 0.425053 0.145958 -0.004983
H60   H     H_    0.296515 0.507886 0.753216 0.062310
H61   H     H_    0.814817 0.909746 0.126204 0.077214
H62   H     H_    0.801163 0.013666 0.751892 0.091780
H63   H     H_    0.953944 0.233130 0.463830 -0.072277
H64   H     H_    0.091307 0.803874 0.620328 0.059158
H65   H     H_    0.453282 0.734816 0.481339 0.015113
H66   H     H_    0.459196 0.269097 0.968629 0.074678
H67   H     H_    0.943036 0.114682 0.405990 0.067318
H68   H     H_    0.451293 0.755983 0.273047 0.132210
H69   H     H_    0.044662 0.921899 0.819246 0.085887
H70   H     H_    0.374119 0.667244 0.310842 0.061329
H71   H     H_    0.385840 0.348839 0.839108 0.072747
H72   H     H_    0.883236 0.159308 0.283962 0.087890
H73   H     H_    0.001291 0.887848 0.648653 0.205136
H74   H     H_    0.443570 0.634836 0.206682 0.169895
H75   H     H_    0.444935 0.367058 0.691268 0.190166
H76   H     H_    0.092703 0.174067 0.811523 -0.158656
H77   H     H_    0.053063 0.866547 0.171466 0.021837
H78   H     H_    0.600107 0.659684 0.860360 -0.000795
H79   H     H_    0.454978 0.250191 0.761232 0.131275
H80   H     H_    0.613043 0.341665 0.379451 -0.028816
H81   H     H_    0.077596 0.376090 0.642840 0.083033
H82   H     H_    0.076058 0.624218 0.143361 0.074844
H83   H     H_    0.575923 0.875775 0.645662 0.133413
H84   H     H_    0.578368 0.122755 0.138113 0.159666
H85   H     H_    0.185365 0.200564 0.535748 0.089463
H86   H     H_    0.178161 0.803594 0.045078 0.104884
H87   H     H_    0.681066 0.700139 0.540347 0.122804
H88   H     H_    0.681917 0.301518 0.036234 0.119406
H89   H     H_    0.800576 0.787665 0.293240 0.088551
H90   H     H_    0.765011 0.361849 0.812695 0.022758
H91   H     H_    0.809143 0.204507 0.772781 0.070434
H92   H     H_    0.318604 0.302206 0.266895 0.026561
H93   H     H_    0.311787 0.702369 0.772477 0.014099
H94   H     H_    0.921393 0.624017 0.166983 0.067285
H95   H     H_    0.925692 0.372571 0.656656 0.088704
H96   H     H_    0.424703 0.125760 0.162670 0.086930
H97   H     H_    0.424237 0.874040 0.661197 0.087506
H98   H     H_    0.235338 0.345600 0.081128 0.041186
H99   H     H_    0.227537 0.662291 0.590062 0.081507
H100  H     H_    0.726172 0.838039 0.097685 0.055311
H101  H     H_    0.728846 0.550632 0.115725 0.055641
H102  H     H_    0.724259 0.165396 0.591626 0.109535
H103  H     H_    0.762863 0.653114 0.730379 0.086993
H104  H     H_    0.762303 0.347691 0.223212 0.159592
H105  H     H_    0.263997 0.153697 0.727337 0.086437
H106  H     H_    0.260449 0.848954 0.232506 0.140605
H107  H     H_    0.958447 0.127412 0.201572 0.197743
H108  H     H_    0.081805 0.925558 0.629015 0.061607
H109  H     H_    0.436810 0.617614 0.411452 0.050181
H110  H     H_    0.462588 0.392144 0.889911 0.071224
H111  H     H_    0.973532 0.205003 0.733352 -1.040687
H112  H     H_    0.259779 0.867557 0.775381 -0.043658
H113  H     H_    0.000896 0.763332 0.224514 -0.884512
H114  H     H_    0.495462 0.718671 0.757651 -0.231974
H115  H     H_    0.542270 0.245872 0.370427 -0.022202
H116  H     H_    0.065595 0.250681 0.889405 0.002941
H117  H     H_    0.071914 0.846147 0.373435 0.036103
H118  H     H_    0.579370 0.732006 0.964002 0.065440
H119  H     H_    0.590060 0.313525 0.568990 0.075276
H120  H     H_    0.840413 0.455802 0.718202 -0.141706
H121  H     H_    0.837943 0.527242 0.186773 -0.057507
H122  H     H_    0.322657 0.964081 0.686388 -0.072333
H123  H     H_    0.250825 0.126567 0.249300 0.065181
H124  H     H_    0.306784 0.032180 0.172813 -0.004723
H125  H     H_    0.845443 0.437264 0.927469 0.073131
H126  H     H_    0.834713 0.568332 0.376078 -0.028444
H127  H     H_    0.351926 0.938097 0.881777 0.079442
H128  H     H_    0.358997 0.058101 0.339770 -0.007092
H129  H     H_    0.630934 0.380548 0.821928 0.112667
H130  H     H_    0.630040 0.470593 0.823483 0.033717
H131  H     H_    0.611909 0.424969 0.998603 0.084685
H132  H     H_    0.715895 0.530538 0.565609 0.073835
H133  H     H_    0.737746 0.611501 0.501214 -0.013671
H134  H     H_    0.726820 0.426310 0.696179 0.021542
H135  H     H_    0.651873 0.590905 0.535252 0.019835
H136  H     H_    0.136091 0.926439 0.992350 -0.002169
H137  H     H_    0.188493 0.999687 0.999462 0.052494
H138  H     H_    0.183754 0.946884 0.167413 0.084250
H139  H     H_    0.152637 0.008796 0.551103 0.018701
H140  H     H_    0.231738 0.042050 0.605624 0.068486
H141  H     H_    0.159352 0.095444 0.584558 -0.016072
H142  H     H_    0.197541 0.608958 0.953589 0.096298
H143  H     H_    0.287595 0.603335 0.941407 0.092234
H144  H     H_    0.253217 0.655390 0.080974 0.098205
O1    O     O_2   0.130070 0.404060 0.104920 -0.492572
O2    O     O_3   0.957814 0.792071 0.433160 -0.560367
O3    O     O_3   0.448860 0.708169 0.975445 -0.594848
O4    O     O_3   0.460033 0.290527 0.471322 -0.649735
O5    O     O_3   0.924190 0.533610 0.949240 -0.455210
O6    O     O_3   0.924190 0.466390 0.449240 -0.433653
O7    O     O_3   0.424190 0.033610 0.949240 -0.452900
O8    O     O_3   0.424190 0.966390 0.449240 -0.448493
O9    O     O_3   0.075780 0.466370 0.861070 -0.415400
O10   O     O_3   0.075780 0.533630 0.361070 -0.457252
O11   O     O_3   0.575780 0.966370 0.861070 -0.412454
O12   O     O_2   0.130070 0.595940 0.604920 -0.482651
O13   O     O_3   0.575780 0.033630 0.361070 -0.436796
O14   O     O_3   0.022320 0.344950 0.359800 -0.482149
O15   O     O_3   0.022320 0.655050 0.859800 -0.422022
O16   O     O_3   0.522320 0.844950 0.359800 -0.481897
O17   O     O_3   0.522320 0.155050 0.859800 -0.478312
O18   O     O_2   0.128242 0.286697 0.246034 -0.448526
O19   O     O_2   0.134958 0.701973 0.755056 -0.532844
O20   O     O_2   0.626709 0.784207 0.250558 -0.467866
O21   O     O_2   0.629426 0.209225 0.745581 -0.485397
O22   O     O_3   0.199530 0.488568 0.934087 -0.679749
O23   O     O_2   0.630070 0.904060 0.104920 -0.448140
O24   O     O_3   0.204660 0.518498 0.421152 -0.648515
O25   O     O_3   0.700219 0.987761 0.936603 -0.665414
O26   O     O_3   0.704439 0.018068 0.423482 -0.599502
O27   O     O_3   0.040899 0.204983 0.358368 -0.573970
O28   O     O_3   0.043526 0.790037 0.829259 -0.607979
O29   O     O_3   0.535410 0.705735 0.358106 -0.545746
O30   O     O_3   0.542463 0.294028 0.844448 -0.621586
O31   O     O_2   0.869860 0.403670 0.205810 -0.458570
O32   O     O_2   0.869860 0.596330 0.705810 -0.415427
O33   O     O_2   0.369860 0.903670 0.205810 -0.421673
O34   O     O_2   0.630070 0.095940 0.604920 -0.463084
O35   O     O_2   0.369860 0.096330 0.705810 -0.448320
O36   O     O_3   0.977590 0.344880 0.951200 -0.459865
O37   O     O_3   0.977590 0.655120 0.451200 -0.430715
O38   O     O_3   0.477590 0.844880 0.951200 -0.460043
O39   O     O_3   0.477590 0.155120 0.451200 -0.449648
O40   O     O_2   0.863282 0.297833 0.051260 -0.506855
O41   O     O_2   0.875568 0.715275 0.580300 -0.489133
O42   O     O_2   0.364195 0.797447 0.054315 -0.442673
O43   O     O_2   0.368685 0.208669 0.560114 -0.497509
O44   O     O_3   0.710353 0.426816 0.942680 -0.603521
O45   O     O_3   0.793065 0.475826 0.366136 -0.578335
O46   O     O_3   0.688355 0.550210 0.333083 -0.657625
O47   O     O_3   0.237298 0.907742 0.988760 -0.635176
O48   O     O_3   0.195411 0.060796 0.373337 -0.661223
O49   O     O_3   0.246660 0.557263 0.136025 -0.656484
O50   O     O_3   0.262296 0.431428 0.542601 -0.703503
O51   O     O_3   0.752321 0.052675 0.138938 -0.689656
O52   O     O_3   0.762967 0.933221 0.551815 -0.650041
O53   O     O_3   0.974880 0.112547 0.839925 -0.630445
O54   O     O_3   0.922298 0.832603 0.190442 -0.654101
O55   O     O_3   0.469059 0.622034 0.810252 -0.594942
O56   O     O_3   0.794041 0.522205 0.861968 -0.642120
O57   O     O_3   0.501700 0.315819 0.224408 -0.676496
O58   O     O_3   0.072200 0.178385 0.055309 -0.574768
O59   O     O_3   0.002501 0.921381 0.342014 -0.607163
O60   O     O_3   0.562064 0.648024 0.087879 -0.608798
O61   O     O_3   0.543675 0.400211 0.503445 -0.663676
O62   O     O_3   0.294298 0.978528 0.373117 -0.614775
O63   O     O_3   0.293563 0.023284 0.868472 -0.656343
O64   O     O_3   0.945234 0.206743 0.969215 -0.605697
P1    P     P_3+3 0.136530 0.426510 0.931350 0.975281
P2    P     P_3+3 0.915923 0.715661 0.428173 1.071461
P3    P     P_3+3 0.415056 0.785381 0.925133 1.016390
P4    P     P_3+3 0.418054 0.216865 0.425986 0.994552
P5    P     P_3+3 0.083277 0.715784 0.881200 0.889362
P6    P     P_3+3 0.080657 0.281594 0.384983 0.927609
P7    P     P_3+3 0.581070 0.217583 0.881424 0.998268
P8    P     P_3+3 0.578402 0.780357 0.388077 1.066880
P9    P     P_3+3 0.136530 0.573490 0.431350 0.978837
P10   P     P_3+3 0.636530 0.926510 0.931350 0.970326
P11   P     P_3+3 0.636530 0.073490 0.431350 0.965757
P12   P     P_3+3 0.863410 0.426100 0.379280 0.982644
P13   P     P_3+3 0.863410 0.573900 0.879280 0.928031
P14   P     P_3+3 0.363410 0.926100 0.379280 0.997247
P15   P     P_3+3 0.363410 0.073900 0.879280 0.983079
P16   P     P_3+3 0.914326 0.285721 0.922570 0.937399

loop_
_geom_bond_atom_site_label_1
_geom_bond_atom_site_label_2
_ccdc_geom_bond_type
C17   C22   A    
O14   P6    S    
C104  H8    S    
O16   P8    S    
C101  H141  S    
C5    H31   S    
O63   P15   S    
Ba2   O15   S    
C105  O52   S    
C96   H102  S    
C66   H106  S    
O45   P12   S    
C46   C55   A    
C51   H114  S    
C11   H51   S    
C48   C57   A    
C80   O49   S    
O10   P9    S    
O24   P9    S    
C78   H112  S    
C25   C29   A    
C4    H26   S    
C62   H103  S    
C85   H55   S    
C23   C64   A    
C91   H65   S    
C88   H58   S    
O40   P16   D    
C9    O59   S    
C49   O53   S    
C70   O61   S    
C10   O60   S    
O29   P8    S    
C60   H92   S    
Ba2   P13   S    
C52   O4    S    
C8    H41   S    
O15   P5    S    
C100  H138  S    
C23   C27   A    
C75   H134  S    
C24   C28   A    
C56   P4    S    
C43   H71   S    
C68   H117  S    
C38   C93   A    
C3    H25   S    
C16   P8    S    
C31   C62   A    
C7    O57   S    
Ba3   P14   S    
C99   H135  S    
O56   P13   S    
C12   C76   A    
C14   P6    S    
C15   C19   A    
C58   H89   S    
C7    H38   S    
Ba3   O23   S    
C12   C16   A    
Ba2   O12   S    
O37   P2    S    
C37   C96   A    
C29   C76   A    
C101  H139  S    
C21   H73   S    
C17   P7    S    
C79   H123  S    
C18   C23   A    
C50   O2    S    
C81   H46   S    
C37   C59   A    
C33   C41   A    
C49   C67   S    
C38   C60   A    
C2    H82   S    
C92   H79   S    
C80   H35   S    
Ba4   P11   S    
C11   H49   S    
C87   P11   S    
C80   C84   S    
Ba3   O38   S    
C70   H119  S    
C68   O59   S    
C49   H111  S    
C94   H99   S    
C55   C59   A    
C4    H28   S    
C56   C60   A    
C31   C36   A    
Ba4   O35   S    
C12   H83   S    
C105  H9    S    
Ba2   O6    S    
C41   C46   A    
C3    C88   S    
C28   C94   A    
C108  H19   S    
C9    H42   S    
C57   C61   A    
C44   C48   A    
C45   H94   S    
C74   H124  S    
C21   H108  S    
C71   C75   S    
O18   P6    D    
C2    C65   A    
C8    H40   S    
C18   H85   S    
C13   C87   A    
O30   P7    S    
C9    H44   S    
C1    H107  S    
Ba4   O11   S    
C2    C15   A    
C99   H133  S    
C59   H91   S    
Ba4   O17   S    
C73   C78   S    
C7    H36   S    
C61   H93   S    
C45   C53   A    
C14   C98   A    
C30   C87   A    
C1    H67   S    
C80   O22   S    
C77   H2    S    
C22   H88   S    
C1    H72   S    
C69   H78   S    
C84   H59   S    
O12   P9    D    
O8    P14   S    
Ba2   O37   S    
C63   H104  S    
C7    H37   S    
O9    P1    S    
C103  O50   S    
C26   C30   A    
C102  H144  S    
C105  H11   S    
C88   H62   S    
C83   O52   S    
C42   C47   A    
C89   H63   S    
C76   P10   S    
C29   C95   A    
C50   H113  S    
C92   O30   S    
Ba4   O8    S    
C99   H132  S    
C6    H32   S    
C19   C24   A    
C97   H130  S    
C79   H24   S    
O27   P6    S    
C6    H34   S    
C40   P13   S    
C106  H14   S    
C22   C26   A    
C49   O64   S    
Ba1   O5    S    
O5    P13   S    
Ba3   Ba4   S    
O7    P15   S    
C44   P14   S    
Ba3   P10   S    
C86   H56   S    
C14   C18   A    
O3    P3    S    
C101  H140  S    
C5    H30   S    
C84   H54   S    
Ba3   O13   S    
C10   H47   S    
C8    O58   S    
C64   H105  S    
C83   O26   S    
C32   C91   S    
O31   P12   D    
C33   C63   A    
C73   H122  S    
C51   O3    S    
C33   C37   A    
C71   H120  S    
Ba4   O34   S    
C103  H4    S    
C34   C42   A    
Ba1   O6    S    
C51   C69   S    
C91   H68   S    
O38   P3    S    
Ba4   P15   S    
Ba3   O8    S    
C107  H16   S    
C13   H84   S    
C47   C56   A    
C43   H75   S    
C32   H109  S    
C81   O50   S    
C67   H116  S    
C102  H142  S    
O28   P5    S    
Ba4   O39   S    
C19   H86   S    
O33   P14   D    
C72   H126  S    
O25   P10   S    
C51   O55   S    
C20   C25   A    
C54   P1    S    
C106  H12   S    
C74   C79   S    
C107  H17   S    
C99   O46   S    
Ba1   O10   S    
O13   P11   S    
O43   P4    D    
C100  H136  S    
C55   P16   S    
C30   C96   A    
C43   C92   S    
C54   C98   A    
C67   H76   S    
O34   P11   D    
C84   C106  S    
C21   C90   S    
C83   C88   S    
C104  H7    S    
C72   O45   S    
Ba1   O1    S    
C24   C66   A    
C52   C70   S    
C10   H45   S    
C69   O60   S    
C3    H22   S    
O36   P16   S    
O4    P4    S    
C81   C85   S    
C5    O54   S    
C91   O29   S    
C72   C77   S    
C50   O54   S    
O22   P1    S    
C39   C61   A    
C75   H90   S    
C89   H1    S    
C108  H20   S    
C82   O51   S    
C34   C64   A    
C100  O47   S    
C82   C86   S    
C48   H97   S    
C71   H125  S    
C32   H70   S    
O23   P10   D    
C98   H81   S    
Ba1   O31   S    
C52   O57   S    
Ba2   O32   S    
C100  H137  S    
C52   H115  S    
O62   P14   S    
O11   P10   S    
Ba1   P1    S    
O6    P12   S    
O41   P2    D    
C27   C93   A    
C13   C17   A    
C67   O58   S    
C73   H127  S    
O20   P8    D    
C103  H5    S    
C90   H64   S    
C35   C44   A    
C40   C45   A    
O39   P4    S    
C57   P3    S    
C11   H50   S    
C39   C94   A    
C86   C108  S    
C108  H21   S    
C77   O46   S    
C36   C95   A    
C11   O61   S    
C53   C58   A    
C78   H13   S    
C79   O48   S    
C6    O55   S    
C86   H61   S    
Ba2   P9    S    
O21   P7    D    
C4    H27   S    
C27   C54   A    
C34   C38   A    
C90   H57   S    
C105  H10   S    
C15   P5    S    
Ba2   O5    S    
C73   O63   S    
C36   C58   A    
Ba1   Ba2   S    
C9    H43   S    
C107  H18   S    
O32   P13   D    
Ba1   P12   S    
C82   O25   S    
C16   C20   A    
C104  O51   S    
C4    O53   S    
O1    P1    D    
C72   H121  S    
C97   H129  S    
C106  H15   S    
C46   H95   S    
O64   P16   S    
C8    H39   S    
C69   H118  S    
C21   H69   S    
C95   H100  S    
C77   H101  S    
C93   H98   S    
C104  H6    S    
C20   H87   S    
C97   O44   S    
C5    H29   S    
C47   H96   S    
C35   C39   A    
Ba1   O14   S    
Ba2   O9    S    
Ba3   O16   S    
Ba1   O36   S    
C10   H48   S    
C101  O48   S    
C3    H23   S    
C102  O49   S    
C53   P2    S    
O26   P11   S    
C81   O24   S    
C50   C68   S    
C31   C40   A    
C103  H3    S    
C41   P12   S    
C70   H80   S    
C71   O56   S    
C43   H110  S    
O17   P7    S    
Ba3   O7    S    
O42   P3    D    
O19   P5    D    
Ba3   O33   S    
C68   H77   S    
C89   O27   S    
C78   O47   S    
C90   O28   S    
C74   H128  S    
C102  H143  S    
C26   C63   A    
C85   H60   S    
O2    P2    S    
C75   O44   S    
C1    C89   S    
C65   P9    S    
C28   C65   A    
C85   C107  S    
C74   O62   S    
C42   P15   S    
Ba4   O7    S    
O35   P15   D    
C35   C66   A    
C32   H74   S    
C97   H131  S    
C83   H53   S    
C6    H33   S    
C25   C62   A    
C82   H52   S    
C92   H66   S    
