data_mof_unit_5972.cif
_audit_creation_date              2012-12-11T15:12:19-0500
_audit_creation_method            fapswitch 2.2
_symmetry_space_group_name_H-M    P1
_symmetry_Int_Tables_number       1
_space_group_crystal_system       triclinic
_cell_length_a                    31.271291
_cell_length_b                    22.646399
_cell_length_c                    18.04004
_cell_angle_alpha                 90.0
_cell_angle_beta                  124.057287
_cell_angle_gamma                 89.999984
_cell_volume                      10584.332366

loop_
_atom_site_label
_atom_site_type_symbol
_atom_type_description
_atom_site_fract_x
_atom_site_fract_y
_atom_site_fract_z
_atom_type_partial_charge
C1    C     C_R   0.533316 0.608506 0.708512 -0.224760
C2    C     C_R   0.256799 0.659202 0.523382 -0.275857
C3    C     C_R   0.332157 0.269108 0.998655 -0.407197
C4    C     C_R   0.859572 0.307616 0.146873 -0.450694
C5    C     C_R   0.167843 0.769111 0.001349 -0.407197
C6    C     C_R   0.140428 0.307615 0.853128 -0.450692
C7    C     C_R   0.832157 0.769107 0.998656 -0.407199
C8    C     C_R   0.275579 0.765702 0.097839 0.098210
C9    C     C_R   0.750263 0.318066 0.051480 0.084323
C10   C     C_R   0.724420 0.765699 0.902165 0.098209
C11   C     C_R   0.249737 0.318065 0.948521 0.084323
C12   C     C_R   0.775579 0.265701 0.097837 0.098210
C13   C     C_R   0.265146 0.320891 0.524058 -0.274703
C14   C     C_R   0.250263 0.818067 0.051481 0.084322
C15   C     C_R   0.224420 0.265700 0.902163 0.098210
C16   C     C_R   0.749737 0.818064 0.948522 0.084323
C17   C     C_R   0.781629 0.366988 0.062218 -0.310928
C18   C     C_R   0.248199 0.723114 0.112079 -0.312521
C19   C     C_R   0.218371 0.366987 0.937783 -0.310929
C20   C     C_R   0.751801 0.723110 0.887927 -0.312519
C21   C     C_R   0.281629 0.866988 0.062218 -0.310926
C22   C     C_R   0.748199 0.223112 0.112076 -0.312521
C23   C     C_R   0.718372 0.866987 0.937783 -0.310930
C24   C     C_R   0.743201 0.659201 0.476619 -0.275857
C25   C     C_R   0.251801 0.223112 0.887925 -0.312521
C26   C     C_R   0.835469 0.362204 0.110915 0.869445
C27   C     C_R   0.195146 0.725335 0.065922 0.870660
C28   C     C_R   0.164531 0.362204 0.889085 0.869447
C29   C     C_R   0.804854 0.725331 0.934085 0.870657
C30   C     C_R   0.335469 0.862204 0.110914 0.869445
C31   C     C_R   0.695146 0.225333 0.065919 0.870659
C32   C     C_R   0.664531 0.862204 0.889085 0.869445
C33   C     C_R   0.304854 0.225333 0.934082 0.870658
C34   C     C_R   0.594585 0.577891 0.423253 -0.136067
C35   C     C_R   0.234855 0.820892 0.475944 -0.274702
C36   C     C_R   0.410269 0.411324 0.578358 -0.096215
C37   C     C_R   0.405415 0.577891 0.576747 -0.136052
C38   C     C_R   0.589732 0.411324 0.421641 -0.096214
C39   C     C_R   0.094585 0.077891 0.423253 -0.136060
C40   C     C_R   0.910269 0.911324 0.578358 -0.096215
C41   C     C_R   0.905415 0.077891 0.576747 -0.136058
C42   C     C_R   0.089732 0.911324 0.421641 -0.096215
C43   C     C_R   0.395068 0.608558 0.292143 0.800312
C44   C     C_R   0.612005 0.404652 0.732838 0.818635
C45   C     C_R   0.604932 0.608559 0.707855 0.800310
C46   C     C_R   0.756799 0.159201 0.523382 -0.275856
C47   C     C_R   0.387995 0.404652 0.267162 0.818636
C48   C     C_R   0.895068 0.108558 0.292144 0.800311
C49   C     C_R   0.112005 0.904652 0.732838 0.818635
C50   C     C_R   0.104932 0.108558 0.707856 0.800311
C51   C     C_R   0.887995 0.904652 0.267162 0.818635
C52   C     C_R   0.578095 0.639884 0.735892 -0.003993
C53   C     C_R   0.410802 0.382967 0.224380 0.042801
C54   C     C_R   0.421904 0.639882 0.264104 -0.003994
C55   C     C_R   0.589198 0.382967 0.775620 0.042801
C56   C     C_R   0.078096 0.139883 0.735894 -0.003993
C57   C     C_R   0.765147 0.820891 0.524059 -0.274706
C58   C     C_R   0.910802 0.882967 0.224381 0.042802
C59   C     C_R   0.921904 0.139883 0.264105 -0.003993
C60   C     C_R   0.089198 0.882968 0.775620 0.042801
C61   C     C_R   0.643991 0.587126 0.494905 0.053356
C62   C     C_R   0.363805 0.393084 0.506597 0.070023
C63   C     C_R   0.356009 0.587126 0.505095 0.053351
C64   C     C_R   0.636195 0.393084 0.493402 0.070023
C65   C     C_R   0.143991 0.087126 0.494905 0.053354
C66   C     C_R   0.863806 0.893084 0.506598 0.070022
C67   C     C_R   0.856009 0.087126 0.505095 0.053353
C68   C     C_R   0.243201 0.159201 0.476619 -0.275857
C69   C     C_R   0.136195 0.893085 0.493402 0.070025
C70   C     C_R   0.656488 0.290550 0.500827 0.675953
C71   C     C_R   0.332227 0.688951 0.490913 0.700071
C72   C     C_R   0.343513 0.290550 0.499174 0.675954
C73   C     C_R   0.667774 0.688951 0.509090 0.700057
C74   C     C_R   0.156488 0.790551 0.500826 0.675953
C75   C     C_R   0.832227 0.188951 0.490912 0.700066
C76   C     C_R   0.843513 0.790550 0.499173 0.675955
C77   C     C_R   0.167773 0.188951 0.509088 0.700066
C78   C     C_R   0.664575 0.348231 0.485556 -0.434141
C79   C     C_R   0.728271 0.261586 0.493945 -0.108031
C80   C     C_R   0.325773 0.631444 0.509802 -0.418431
C81   C     C_R   0.335425 0.348231 0.514444 -0.434141
C82   C     C_R   0.674227 0.631444 0.490199 -0.418426
C83   C     C_R   0.164575 0.848232 0.485556 -0.434141
C84   C     C_R   0.825773 0.131444 0.509802 -0.418430
C85   C     C_R   0.835425 0.848231 0.514444 -0.434141
C86   C     C_R   0.174227 0.131444 0.490198 -0.418429
C87   C     C_R   0.701125 0.363788 0.468992 0.767930
C88   C     C_R   0.290175 0.616124 0.528884 0.736034
C89   C     C_R   0.298875 0.363788 0.531008 0.767929
C90   C     C_R   0.261828 0.718022 0.501430 -0.102817
C91   C     C_R   0.709825 0.616124 0.471116 0.736034
C92   C     C_R   0.201126 0.863789 0.468993 0.767930
C93   C     C_R   0.790175 0.116125 0.528884 0.736034
C94   C     C_R   0.798875 0.863788 0.531009 0.767929
C95   C     C_R   0.209825 0.116124 0.471117 0.736033
C96   C     C_3   0.503768 0.301297 0.831193 0.336079
C97   C     C_3   0.448772 0.283690 0.758074 -0.852152
C98   C     C_3   0.502491 0.746177 0.386631 0.274999
C99   C     C_3   0.524283 0.807278 0.423950 -0.725190
C100  C     C_3   0.496232 0.301296 0.168808 0.336079
C101  C     C_R   0.271729 0.261586 0.506055 -0.108031
C102  C     C_3   0.551228 0.283689 0.241927 -0.852150
C103  C     C_3   0.497515 0.746181 0.613354 0.275019
C104  C     C_3   0.475740 0.807288 0.576039 -0.725276
C105  C     C_3   0.003768 0.801297 0.831193 0.336082
C106  C     C_3   0.948772 0.783690 0.758073 -0.852154
C107  C     C_3   0.002488 0.246179 0.386638 0.275009
C108  C     C_3   0.024273 0.307282 0.423956 -0.725225
C109  C     C_3   0.996232 0.801296 0.168808 0.336081
C110  C     C_3   0.051228 0.783690 0.241926 -0.852151
C111  C     C_3   0.997513 0.246179 0.613361 0.275010
C112  C     C_R   0.459817 0.406587 0.268013 -0.185010
C113  C     C_R   0.738173 0.718021 0.498573 -0.102815
C114  C     C_3   0.975729 0.307283 0.576044 -0.725236
C115  C     C_3   0.733148 0.587970 0.680695 0.225659
C116  C     C_3   0.773877 0.574345 0.778339 -0.592549
C117  C     C_3   0.277126 0.376208 0.317023 0.323473
C118  C     C_3   0.232181 0.386122 0.220397 -0.689428
C119  C     C_3   0.266852 0.587970 0.319306 0.225661
C120  C     C_3   0.226123 0.574345 0.221661 -0.592546
C121  C     C_3   0.722874 0.376208 0.682977 0.323474
C122  C     C_3   0.767819 0.386122 0.779603 -0.689430
C123  C     C_3   0.233148 0.087970 0.680695 0.225662
C124  C     C_R   0.228271 0.761586 0.493946 -0.108032
C125  C     C_3   0.273877 0.074345 0.778339 -0.592548
C126  C     C_3   0.777126 0.876208 0.317023 0.323474
C127  C     C_3   0.732181 0.886122 0.220397 -0.689431
C128  C     C_3   0.766852 0.087970 0.319305 0.225661
C129  C     C_3   0.726123 0.074345 0.221661 -0.592548
C130  C     C_3   0.222874 0.876208 0.682978 0.323472
C131  C     C_3   0.267819 0.886123 0.779604 -0.689427
C132  C     C_3   0.830674 0.415654 0.532046 0.328488
C133  C     C_3   0.819649 0.452349 0.590334 -0.767301
C134  C     C_3   0.236976 0.583179 0.651406 0.343262
C135  C     C_R   0.761827 0.218021 0.501429 -0.102816
C136  C     C_3   0.235419 0.519280 0.675735 -0.753967
C137  C     C_3   0.169326 0.415654 0.467954 0.328487
C138  C     C_3   0.180351 0.452349 0.409666 -0.767301
C139  C     C_3   0.763024 0.583179 0.348594 0.343261
C140  C     C_3   0.764581 0.519280 0.324264 -0.753966
C141  C     C_3   0.330676 0.915654 0.532051 0.328485
C142  C     C_3   0.319650 0.952349 0.590338 -0.767302
C143  C     C_3   0.736977 0.083179 0.651407 0.343259
C144  C     C_3   0.735420 0.019280 0.675737 -0.753965
C145  C     C_3   0.669327 0.915654 0.467958 0.328488
C146  C     C_R   0.771730 0.761586 0.506056 -0.108032
C147  C     C_3   0.680351 0.952348 0.409669 -0.767300
C148  C     C_3   0.263025 0.083178 0.348596 0.343262
C149  C     C_3   0.264582 0.019279 0.324267 -0.753967
C150  C     C_3   0.316906 0.813164 0.354421 0.348134
C151  C     C_3   0.355977 0.834202 0.335468 -0.856732
C152  C     C_3   0.601125 0.149460 0.451738 0.351280
C153  C     C_3   0.556878 0.135000 0.461126 -0.747267
C154  C     C_3   0.683100 0.813163 0.645590 0.348136
C155  C     C_3   0.644033 0.834209 0.664546 -0.856744
C156  C     C_3   0.398876 0.149461 0.548265 0.351280
C157  C     C_R   0.238173 0.218021 0.498572 -0.102816
C158  C     C_3   0.443123 0.135001 0.538878 -0.747265
C159  C     C_3   0.816903 0.313164 0.354415 0.348134
C160  C     C_3   0.855972 0.334206 0.335461 -0.856738
C161  C     C_3   0.101125 0.649461 0.451736 0.351280
C162  C     C_3   0.056877 0.635001 0.461124 -0.747266
C163  C     C_3   0.183098 0.313163 0.645586 0.348134
C164  C     C_3   0.144029 0.334206 0.664540 -0.856738
C165  C     C_3   0.898875 0.649460 0.548264 0.351278
C166  C     C_3   0.943123 0.635000 0.538875 -0.747265
C167  C     C_R   0.688339 0.246148 0.505313 -0.244089
C168  C     C_R   0.300226 0.733072 0.486067 -0.226181
C169  C     C_R   0.311662 0.246148 0.494688 -0.244090
C170  C     C_R   0.699776 0.733072 0.513937 -0.226179
C171  C     C_R   0.188339 0.746149 0.505313 -0.244088
C172  C     C_R   0.466683 0.608505 0.291485 -0.224775
C173  C     C_R   0.800225 0.233072 0.486065 -0.226181
C174  C     C_R   0.811662 0.746148 0.494687 -0.244089
C175  C     C_R   0.199775 0.233072 0.513935 -0.226182
C176  C     C_R   0.775554 0.336171 0.467711 0.430173
C177  C     C_R   0.218051 0.644645 0.537308 0.387691
C178  C     C_R   0.224446 0.336171 0.532289 0.430173
C179  C     C_R   0.781949 0.644645 0.462692 0.387692
C180  C     C_R   0.275556 0.836171 0.467714 0.430167
C181  C     C_R   0.718051 0.144645 0.537309 0.387693
C182  C     C_R   0.724447 0.836171 0.532292 0.430177
C183  C     C_R   0.540183 0.406587 0.731987 -0.185011
C184  C     C_R   0.281950 0.144645 0.462693 0.387690
C185  C     C_R   0.305381 0.791402 0.465074 0.378018
C186  C     C_R   0.682105 0.187372 0.523398 0.404839
C187  C     C_R   0.694623 0.791401 0.534934 0.378003
C188  C     C_R   0.317896 0.187372 0.476603 0.404840
C189  C     C_R   0.805379 0.291402 0.465070 0.378011
C190  C     C_R   0.182104 0.687373 0.523397 0.404839
C191  C     C_R   0.194621 0.291401 0.534930 0.378010
C192  C     C_R   0.817896 0.687372 0.476603 0.404838
C193  C     C_R   0.404007 0.696339 0.216053 -0.317967
C194  C     C_R   0.033316 0.108505 0.708514 -0.224768
C195  C     C_R   0.614136 0.348117 0.858629 -0.286861
C196  C     C_R   0.595991 0.696340 0.783942 -0.317971
C197  C     C_R   0.385864 0.348116 0.141371 -0.286860
C198  C     C_R   0.904008 0.196340 0.216055 -0.317969
C199  C     C_R   0.114136 0.848117 0.858630 -0.286859
C200  C     C_R   0.095992 0.196340 0.783945 -0.317967
C201  C     C_R   0.885864 0.848116 0.141372 -0.286862
C202  C     C_R   0.413809 0.800830 0.198101 0.726793
C203  C     C_R   0.614241 0.263253 0.940063 0.677524
C204  C     C_R   0.586190 0.800833 0.801891 0.726788
C205  C     C_R   0.959817 0.906587 0.268013 -0.185010
C206  C     C_R   0.385759 0.263252 0.059938 0.677526
C207  C     C_R   0.913810 0.300831 0.198105 0.726789
C208  C     C_R   0.114241 0.763254 0.940064 0.677525
C209  C     C_R   0.086190 0.300831 0.801895 0.726789
C210  C     C_R   0.885759 0.763251 0.059940 0.677526
C211  C     C_R   0.436105 0.746106 0.238450 0.316081
C212  C     C_R   0.586991 0.302710 0.868704 0.271463
C213  C     C_R   0.563894 0.746109 0.761539 0.316084
C214  C     C_R   0.413009 0.302710 0.131296 0.271461
C215  C     C_R   0.936106 0.246107 0.238455 0.316083
C216  C     C_R   0.966684 0.108505 0.291486 -0.224768
C217  C     C_R   0.086991 0.802711 0.868706 0.271461
C218  C     C_R   0.063894 0.246107 0.761544 0.316082
C219  C     C_R   0.913009 0.802709 0.131297 0.271462
C220  C     C_R   0.350988 0.702426 0.156017 0.785344
C221  C     C_R   0.666213 0.358736 0.925767 0.748519
C222  C     C_R   0.649010 0.702426 0.843983 0.785343
C223  C     C_R   0.333787 0.358736 0.074234 0.748518
C224  C     C_R   0.850989 0.202426 0.156017 0.785344
C225  C     C_R   0.166213 0.858737 0.925768 0.748516
C226  C     C_R   0.149011 0.202426 0.843983 0.785343
C227  C     C_R   0.040183 0.906587 0.731987 -0.185011
C228  C     C_R   0.833787 0.858735 0.074234 0.748518
C229  C     C_R   0.328489 0.758363 0.133800 -0.250854
C230  C     C_R   0.695000 0.317512 0.995241 -0.237156
C231  C     C_R   0.671510 0.758362 0.866201 -0.250849
C232  C     C_R   0.305000 0.317511 0.004760 -0.237156
C233  C     C_R   0.828490 0.258363 0.133800 -0.250851
C234  C     C_R   0.195000 0.817513 0.995242 -0.237155
C235  C     C_R   0.171510 0.258362 0.866200 -0.250852
C236  C     C_R   0.805000 0.817510 0.004761 -0.237155
C237  C     C_R   0.645450 0.575458 0.571789 0.680624
C238  C     C_R   0.734854 0.320891 0.475942 -0.274704
C239  C     C_R   0.358218 0.411968 0.428184 0.597421
C240  C     C_R   0.354550 0.575458 0.428211 0.680620
C241  C     C_R   0.641782 0.411968 0.571816 0.597422
C242  C     C_R   0.145450 0.075458 0.571789 0.680621
C243  C     C_R   0.858218 0.911968 0.428184 0.597422
C244  C     C_R   0.854550 0.075458 0.428211 0.680621
C245  C     C_R   0.141782 0.911968 0.571816 0.597419
C246  C     C_R   0.359572 0.807615 0.146871 -0.450694
C247  C     C_R   0.667843 0.269109 0.001346 -0.407196
C248  C     C_R   0.640428 0.807616 0.853126 -0.450691
F1    F     F_    0.688225 0.407899 0.918508 -0.668955
F2    F     F_    0.589186 0.214977 0.942418 -0.613439
F3    F     F_    0.554859 0.847496 0.785927 -0.609987
F4    F     F_    0.410814 0.214977 0.057583 -0.613439
F5    F     F_    0.945140 0.347494 0.214067 -0.609988
F6    F     F_    0.089186 0.714979 0.942421 -0.613440
F7    F     F_    0.054860 0.347494 0.785933 -0.609989
F8    F     F_    0.910814 0.714975 0.057585 -0.613438
F9    F     F_    0.350916 0.625962 0.282678 -0.698854
F10   F     F_    0.661363 0.396479 0.759938 -0.663043
F11   F     F_    0.649084 0.625962 0.717321 -0.698856
F12   F     F_    0.321452 0.653169 0.118445 -0.655634
F13   F     F_    0.338637 0.396479 0.240062 -0.663043
F14   F     F_    0.850916 0.125962 0.282678 -0.698855
F15   F     F_    0.161363 0.896480 0.759939 -0.663042
F16   F     F_    0.149084 0.125962 0.717322 -0.698855
F17   F     F_    0.838637 0.896479 0.240062 -0.663042
F18   F     F_    0.618920 0.279307 0.515214 -0.670036
F19   F     F_    0.369112 0.700492 0.474990 -0.695083
F20   F     F_    0.381081 0.279307 0.484787 -0.670036
F21   F     F_    0.630889 0.700492 0.525014 -0.695088
F22   F     F_    0.118919 0.779307 0.515212 -0.670036
F23   F     F_    0.311775 0.407899 0.081492 -0.668956
F24   F     F_    0.869111 0.200492 0.474988 -0.695086
F25   F     F_    0.881080 0.779306 0.484786 -0.670036
F26   F     F_    0.130889 0.200492 0.525011 -0.695086
F27   F     F_    0.704475 0.421134 0.450261 -0.626657
F28   F     F_    0.287123 0.558838 0.548084 -0.641151
F29   F     F_    0.295525 0.421134 0.549738 -0.626657
F30   F     F_    0.712876 0.558838 0.451915 -0.641151
F31   F     F_    0.204476 0.921134 0.450263 -0.626656
F32   F     F_    0.787124 0.058838 0.548085 -0.641151
F33   F     F_    0.795525 0.921134 0.549740 -0.626657
F34   F     F_    0.678544 0.653169 0.881557 -0.655638
F35   F     F_    0.212877 0.058838 0.451916 -0.641150
F36   F     F_    0.863568 0.411210 0.122348 -0.617456
F37   F     F_    0.170696 0.682008 0.080532 -0.656520
F38   F     F_    0.136432 0.411210 0.877652 -0.617458
F39   F     F_    0.829304 0.682002 0.919477 -0.656516
F40   F     F_    0.363568 0.911209 0.122346 -0.617457
F41   F     F_    0.670696 0.182005 0.080528 -0.656518
F42   F     F_    0.636433 0.911210 0.877651 -0.617456
F43   F     F_    0.329304 0.182004 0.919473 -0.656518
F44   F     F_    0.188225 0.907900 0.918508 -0.668954
F45   F     F_    0.821454 0.153169 0.118444 -0.655636
F46   F     F_    0.811775 0.907899 0.081493 -0.668956
F47   F     F_    0.178546 0.153169 0.881556 -0.655636
F48   F     F_    0.445140 0.847493 0.214061 -0.609990
H1    H     H_    0.503708 0.620543 0.719090 0.184005
H2    H     H_    0.267771 0.687832 0.160017 0.232330
H3    H     H_    0.240137 0.873456 0.643735 0.046803
H4    H     H_    0.203813 0.833766 0.679538 0.126152
H5    H     H_    0.254044 0.893747 0.823612 0.316527
H6    H     H_    0.293268 0.846661 0.804193 0.180933
H7    H     H_    0.290883 0.924688 0.783675 0.221060
H8    H     H_    0.849597 0.444603 0.508836 0.125727
H9    H     H_    0.859245 0.380555 0.573976 0.086952
H10   H     H_    0.801987 0.424285 0.616774 0.229828
H11   H     H_    0.856216 0.471166 0.647559 0.196672
H12   H     H_    0.793024 0.489121 0.550780 0.334399
H13   H     H_    0.233666 0.410633 0.960607 0.247373
H14   H     H_    0.216738 0.610808 0.673726 0.114125
H15   H     H_    0.278210 0.597060 0.688060 0.097410
H16   H     H_    0.256477 0.490823 0.656204 0.315412
H17   H     H_    0.254032 0.515385 0.749032 0.195083
H18   H     H_    0.194797 0.503988 0.640605 0.236732
H19   H     H_    0.150403 0.444602 0.491165 0.125727
H20   H     H_    0.140755 0.380555 0.426024 0.086951
H21   H     H_    0.198013 0.424285 0.383226 0.229828
H22   H     H_    0.143783 0.471166 0.352442 0.196672
H23   H     H_    0.206976 0.489121 0.449220 0.334399
H24   H     H_    0.732229 0.687828 0.839990 0.232332
H25   H     H_    0.783262 0.610808 0.326274 0.114126
H26   H     H_    0.721790 0.597060 0.311940 0.097411
H27   H     H_    0.743522 0.490823 0.343795 0.315412
H28   H     H_    0.745968 0.515385 0.250967 0.195084
H29   H     H_    0.805202 0.503988 0.359394 0.236733
H30   H     H_    0.349599 0.944603 0.508841 0.125728
H31   H     H_    0.359246 0.880555 0.573981 0.086959
H32   H     H_    0.301987 0.924286 0.616777 0.229828
H33   H     H_    0.356217 0.971166 0.647563 0.196673
H34   H     H_    0.293025 0.989122 0.550783 0.334399
H35   H     H_    0.266334 0.910634 0.039394 0.247373
H36   H     H_    0.716739 0.110809 0.673727 0.114125
H37   H     H_    0.778211 0.097061 0.688061 0.097411
H38   H     H_    0.756478 0.990823 0.656207 0.315411
H39   H     H_    0.754033 0.015386 0.749035 0.195084
H40   H     H_    0.694798 0.003989 0.640609 0.236732
H41   H     H_    0.650405 0.944603 0.491169 0.125726
H42   H     H_    0.640756 0.880555 0.426028 0.086945
H43   H     H_    0.698013 0.924284 0.383228 0.229827
H44   H     H_    0.643784 0.971165 0.352445 0.196672
H45   H     H_    0.706977 0.989121 0.449222 0.334400
H46   H     H_    0.767771 0.187831 0.160014 0.232331
H47   H     H_    0.283263 0.110807 0.326276 0.114126
H48   H     H_    0.221791 0.097060 0.311941 0.097411
H49   H     H_    0.243523 0.990822 0.343797 0.315413
H50   H     H_    0.245969 0.015384 0.250970 0.195083
H51   H     H_    0.305204 0.003987 0.359397 0.236733
H52   H     H_    0.285680 0.846900 0.327160 0.094979
H53   H     H_    0.300154 0.770527 0.318852 0.104455
H54   H     H_    0.383143 0.797956 0.347783 0.246013
H55   H     H_    0.335372 0.848326 0.264748 0.203433
H56   H     H_    0.377927 0.872536 0.378722 0.258522
H57   H     H_    0.733667 0.910632 0.960607 0.247374
H58   H     H_    0.612227 0.108264 0.432782 0.092408
H59   H     H_    0.587131 0.182667 0.397253 0.104645
H60   H     H_    0.544424 0.175471 0.478883 0.280723
H61   H     H_    0.523674 0.117348 0.396889 0.210681
H62   H     H_    0.569366 0.101320 0.514260 0.238877
H63   H     H_    0.714330 0.846894 0.672852 0.094975
H64   H     H_    0.699848 0.770524 0.681157 0.104464
H65   H     H_    0.616863 0.797966 0.652232 0.246003
H66   H     H_    0.664640 0.848333 0.735266 0.203437
H67   H     H_    0.622086 0.872544 0.621292 0.258523
H68   H     H_    0.232229 0.187830 0.839987 0.232331
H69   H     H_    0.387774 0.108264 0.567222 0.092409
H70   H     H_    0.412869 0.182668 0.602749 0.104646
H71   H     H_    0.455577 0.175471 0.521120 0.280722
H72   H     H_    0.476328 0.117349 0.603114 0.210682
H73   H     H_    0.430635 0.101320 0.485744 0.238876
H74   H     H_    0.785675 0.346897 0.327154 0.094977
H75   H     H_    0.800153 0.270525 0.318847 0.104459
H76   H     H_    0.883140 0.297961 0.347775 0.246008
H77   H     H_    0.835366 0.348329 0.264741 0.203435
H78   H     H_    0.877921 0.372540 0.378715 0.258523
H79   H     H_    0.580647 0.580348 0.353289 0.142089
H80   H     H_    0.112227 0.608264 0.432780 0.092409
H81   H     H_    0.087131 0.682668 0.397251 0.104646
H82   H     H_    0.044423 0.675472 0.478880 0.280723
H83   H     H_    0.023673 0.617349 0.396887 0.210682
H84   H     H_    0.069365 0.601321 0.514257 0.238876
H85   H     H_    0.214326 0.346896 0.672847 0.094977
H86   H     H_    0.199848 0.270525 0.681153 0.104459
H87   H     H_    0.116860 0.297961 0.652226 0.246007
H88   H     H_    0.164635 0.348329 0.735260 0.203436
H89   H     H_    0.122080 0.372540 0.621286 0.258523
H90   H     H_    0.424863 0.407256 0.648387 0.125355
H91   H     H_    0.887773 0.608264 0.567221 0.092408
H92   H     H_    0.912869 0.682667 0.602748 0.104646
H93   H     H_    0.955577 0.675470 0.521118 0.280722
H94   H     H_    0.976327 0.617348 0.603112 0.210681
H95   H     H_    0.930635 0.601319 0.485742 0.238877
H96   H     H_    0.419353 0.580348 0.646711 0.142086
H97   H     H_    0.485751 0.405277 0.246589 0.147439
H98   H     H_    0.575137 0.407256 0.351613 0.125355
H99   H     H_    0.080647 0.080348 0.353289 0.142087
H100  H     H_    0.924863 0.907256 0.648387 0.125355
H101  H     H_    0.919353 0.080348 0.646711 0.142087
H102  H     H_    0.075137 0.907256 0.351613 0.125354
H103  H     H_    0.504244 0.348832 0.847105 0.039263
H104  H     H_    0.515312 0.275162 0.891826 0.149288
H105  H     H_    0.446547 0.235161 0.747809 0.258013
H106  H     H_    0.422095 0.296501 0.777592 0.206350
H107  H     H_    0.436540 0.305856 0.694302 0.258243
H108  H     H_    0.496291 0.620541 0.280906 0.184009
H109  H     H_    0.532910 0.712981 0.427773 0.187845
H110  H     H_    0.470333 0.736523 0.394903 0.032194
H111  H     H_    0.493326 0.840977 0.389728 0.247558
H112  H     H_    0.540275 0.808362 0.496453 0.200212
H113  H     H_    0.555493 0.818028 0.414284 0.293961
H114  H     H_    0.495756 0.348832 0.152895 0.039263
H115  H     H_    0.484688 0.275161 0.108175 0.149288
H116  H     H_    0.553453 0.235161 0.252192 0.258012
H117  H     H_    0.577905 0.296500 0.222409 0.206350
H118  H     H_    0.563460 0.305856 0.305699 0.258243
H119  H     H_    0.514249 0.405277 0.753411 0.147439
H120  H     H_    0.467089 0.712994 0.572204 0.187861
H121  H     H_    0.529674 0.736513 0.605089 0.032205
H122  H     H_    0.506704 0.840977 0.610270 0.247566
H123  H     H_    0.459754 0.808372 0.503539 0.200182
H124  H     H_    0.444528 0.818051 0.585697 0.293977
H125  H     H_    0.004243 0.848833 0.847104 0.039262
H126  H     H_    0.015312 0.775163 0.891826 0.149288
H127  H     H_    0.946547 0.735161 0.747809 0.258013
H128  H     H_    0.922095 0.796501 0.777591 0.206350
H129  H     H_    0.936541 0.805856 0.694301 0.258243
H130  H     H_    0.003709 0.120542 0.719092 0.184007
H131  H     H_    0.032909 0.212986 0.427784 0.187850
H132  H     H_    0.970329 0.236519 0.394906 0.032198
H133  H     H_    0.993313 0.340977 0.389729 0.247562
H134  H     H_    0.040262 0.308366 0.496457 0.200197
H135  H     H_    0.055485 0.318037 0.414295 0.293969
H136  H     H_    0.995756 0.848831 0.152894 0.039262
H137  H     H_    0.984688 0.775161 0.108174 0.149288
H138  H     H_    0.053453 0.735161 0.252192 0.258013
H139  H     H_    0.077905 0.796500 0.222407 0.206351
H140  H     H_    0.063460 0.805857 0.305698 0.258243
H141  H     H_    0.985751 0.905277 0.246589 0.147439
H142  H     H_    0.967091 0.212988 0.572215 0.187852
H143  H     H_    0.029671 0.236519 0.605093 0.032199
H144  H     H_    0.006689 0.340977 0.610271 0.247564
H145  H     H_    0.959740 0.308367 0.503542 0.200196
H146  H     H_    0.944517 0.318039 0.585705 0.293969
H147  H     H_    0.726284 0.636497 0.675125 0.102895
H148  H     H_    0.748586 0.573809 0.641048 0.104289
H149  H     H_    0.782260 0.526393 0.787139 0.232375
H150  H     H_    0.809983 0.598549 0.800179 0.221535
H151  H     H_    0.760026 0.587884 0.820601 0.291697
H152  H     H_    0.996291 0.120542 0.280908 0.184007
H153  H     H_    0.259863 0.373457 0.356265 0.046805
H154  H     H_    0.296187 0.333766 0.320463 0.126151
H155  H     H_    0.245956 0.393745 0.176388 0.316526
H156  H     H_    0.206732 0.346661 0.195808 0.180932
H157  H     H_    0.209117 0.424689 0.216325 0.221061
H158  H     H_    0.273715 0.636497 0.324876 0.102892
H159  H     H_    0.251414 0.573808 0.358953 0.104291
H160  H     H_    0.217741 0.526394 0.212860 0.232374
H161  H     H_    0.190017 0.598549 0.199822 0.221535
H162  H     H_    0.239973 0.587885 0.179399 0.291697
H163  H     H_    0.014249 0.905278 0.753411 0.147439
H164  H     H_    0.740137 0.373456 0.643735 0.046804
H165  H     H_    0.703813 0.333766 0.679538 0.126153
H166  H     H_    0.754044 0.393747 0.823612 0.316527
H167  H     H_    0.793268 0.346660 0.804193 0.180934
H168  H     H_    0.790883 0.424688 0.783674 0.221061
H169  H     H_    0.226284 0.136497 0.675125 0.102892
H170  H     H_    0.248586 0.073809 0.641047 0.104290
H171  H     H_    0.282259 0.026393 0.787139 0.232375
H172  H     H_    0.309983 0.098549 0.800179 0.221535
H173  H     H_    0.260026 0.087884 0.820601 0.291697
H174  H     H_    0.766334 0.410633 0.039393 0.247373
H175  H     H_    0.759863 0.873457 0.356266 0.046805
H176  H     H_    0.796187 0.833766 0.320464 0.126151
H177  H     H_    0.745956 0.893745 0.176388 0.316527
H178  H     H_    0.706732 0.846661 0.195808 0.180933
H179  H     H_    0.709117 0.924689 0.216325 0.221062
H180  H     H_    0.773716 0.136497 0.324875 0.102893
H181  H     H_    0.751414 0.073809 0.358953 0.104290
H182  H     H_    0.717740 0.026393 0.212861 0.232374
H183  H     H_    0.690017 0.098550 0.199821 0.221535
H184  H     H_    0.739974 0.087885 0.179399 0.291697
N1    N     N_R   0.532970 0.559900 0.665210 -0.096590
N2    N     N_R   0.402100 0.440070 0.454470 -0.107437
N3    N     N_R   0.402100 0.559930 0.454470 -0.110550
N4    N     N_R   0.597900 0.440070 0.545530 -0.107437
N5    N     N_R   0.097900 0.059930 0.545530 -0.110550
N6    N     N_R   0.902100 0.940070 0.454470 -0.107437
N7    N     N_R   0.902100 0.059930 0.454470 -0.110550
N8    N     N_R   0.097900 0.940070 0.545530 -0.107437
N9    N     N_R   0.567170 0.559950 0.454460 -0.099312
N10   N     N_R   0.432830 0.440050 0.545540 -0.088765
N11   N     N_R   0.432830 0.559950 0.545540 -0.099311
N12   N     N_R   0.467030 0.440100 0.334790 -0.094866
N13   N     N_R   0.567170 0.440050 0.454460 -0.088765
N14   N     N_R   0.067170 0.059950 0.454460 -0.099312
N15   N     N_R   0.932830 0.940050 0.545540 -0.088765
N16   N     N_R   0.932830 0.059950 0.545540 -0.099312
N17   N     N_R   0.067170 0.940050 0.454460 -0.088765
N18   N     N_R   0.421470 0.559970 0.334770 -0.128204
N19   N     N_R   0.578530 0.440030 0.665230 -0.135083
N20   N     N_R   0.578530 0.559970 0.665230 -0.128204
N21   N     N_R   0.421470 0.440030 0.334770 -0.135084
N22   N     N_R   0.921470 0.059970 0.334770 -0.128204
N23   N     N_R   0.467030 0.559900 0.334790 -0.096589
N24   N     N_R   0.078530 0.940030 0.665230 -0.135083
N25   N     N_R   0.078530 0.059970 0.665230 -0.128204
N26   N     N_R   0.921470 0.940030 0.334770 -0.135084
N27   N     N_R   0.532970 0.440100 0.665210 -0.094867
N28   N     N_R   0.032970 0.059900 0.665210 -0.096590
N29   N     N_R   0.967030 0.940100 0.334790 -0.094867
N30   N     N_R   0.967030 0.059900 0.334790 -0.096590
N31   N     N_R   0.032970 0.940100 0.665210 -0.094867
N32   N     N_R   0.597900 0.559930 0.545530 -0.110551
Ni1   Ni    Ni4+2 0.483030 0.500000 0.604430 0.187733
Ni2   Ni    Ni4+2 0.516970 0.500000 0.395570 0.187733
Ni3   Ni    Ni4+2 0.983030 0.000000 0.604430 0.187733
Ni4   Ni    Ni4+2 0.016970 0.000000 0.395570 0.187733
Ni5   Ni    Ni4+2 0.587400 0.500000 0.604430 0.340012
Ni6   Ni    Ni4+2 0.412600 0.500000 0.395570 0.340012
Ni7   Ni    Ni4+2 0.087400 0.000000 0.604430 0.340012
Ni8   Ni    Ni4+2 0.912600 0.000000 0.395570 0.340012
O1    O     O_3   0.536120 0.290764 0.800756 -0.567719
O2    O     O_3   0.312133 0.423984 0.346659 -0.570389
O3    O     O_3   0.312156 0.556291 0.346316 -0.574264
O4    O     O_3   0.687867 0.423984 0.653340 -0.570390
O5    O     O_3   0.187844 0.056291 0.653684 -0.574264
O6    O     O_3   0.812133 0.923984 0.346659 -0.570389
O7    O     O_3   0.812156 0.056291 0.346316 -0.574265
O8    O     O_3   0.187867 0.923985 0.653341 -0.570389
O9    O     O_3   0.783917 0.394494 0.455525 -0.593662
O10   O     O_3   0.212503 0.587494 0.557914 -0.592368
O11   O     O_3   0.216083 0.394493 0.544475 -0.593661
O12   O     O_3   0.489021 0.741553 0.297645 -0.583869
O13   O     O_3   0.787496 0.587493 0.442086 -0.592368
O14   O     O_3   0.283918 0.894494 0.455529 -0.593663
O15   O     O_3   0.712504 0.087493 0.557916 -0.592368
O16   O     O_3   0.716085 0.894493 0.544478 -0.593660
O17   O     O_3   0.287497 0.087493 0.442087 -0.592368
O18   O     O_3   0.341928 0.805887 0.447654 -0.591592
O19   O     O_3   0.642973 0.171877 0.533866 -0.573632
O20   O     O_3   0.658076 0.805886 0.552356 -0.591603
O21   O     O_3   0.357028 0.171876 0.466137 -0.573632
O22   O     O_3   0.841926 0.305887 0.447649 -0.591599
O23   O     O_3   0.463880 0.290763 0.199245 -0.567719
O24   O     O_3   0.142973 0.671877 0.533864 -0.573632
O25   O     O_3   0.158075 0.305887 0.552352 -0.591599
O26   O     O_3   0.857027 0.671876 0.466135 -0.573631
O27   O     O_3   0.510978 0.741558 0.702336 -0.583857
O28   O     O_3   0.036120 0.790764 0.800757 -0.567719
O29   O     O_3   0.989022 0.241556 0.297654 -0.583864
O30   O     O_3   0.963881 0.790763 0.199246 -0.567719
O31   O     O_3   0.010978 0.241556 0.702345 -0.583863
O32   O     O_3   0.687844 0.556291 0.653684 -0.574265

loop_
_geom_bond_atom_site_label_1
_geom_bond_atom_site_label_2
_ccdc_geom_bond_type
C193  C220  A    
C126  C127  S    
C7    C29   A    
C218  O31   S    
C200  C218  A    
C131  H6    S    
C103  O27   S    
C52   C196  S    
C151  H54   S    
C132  H9    S    
C66   C85   S    
C143  O15   S    
N24   N31   A    
C41   C67   A    
C47   F13   S    
C45   N20   A    
C49   C60   A    
C32   C248  A    
C137  H19   S    
C75   F24   S    
C135  C173  A    
C46   C181  A    
C35   C124  A    
C144  H38   S    
C61   C82   S    
C134  O10   S    
C193  C211  A    
C145  O16   S    
C132  O9    S    
C143  C144  S    
C142  H34   S    
C115  H147  S    
C127  H177  S    
C228  F46   S    
C1    N1    A    
C34   H79   S    
C2    C90   A    
C133  H11   S    
C241  N4    A    
N9    N32   A    
C11   C15   A    
C122  H167  S    
C139  O13   S    
C10   C20   A    
C129  H182  S    
C158  H73   S    
C170  C187  A    
C71   F19   S    
C2    C177  A    
C231  C248  A    
C206  F4    S    
C99   H112  S    
C21   H35   S    
C42   N17   A    
C47   C53   A    
C156  H70   S    
C106  H127  S    
C206  C214  A    
C105  O28   S    
C87   C238  A    
C140  H28   S    
C114  H144  S    
C120  H160  S    
C38   C64   A    
N5    Ni7   S    
C183  N27   A    
C68   C95   A    
C74   C83   A    
C109  H137  S    
C179  O13   S    
C186  O19   S    
C163  H85   S    
C64   C241  A    
C58   C205  A    
C154  H64   S    
C239  N2    A    
C34   C61   A    
C82   C91   A    
C25   H68   S    
C130  H4    S    
C113  C146  A    
C91   F30   S    
C224  C233  A    
C223  F23   S    
C203  F2    S    
C159  H74   S    
C154  O20   S    
C165  H92   S    
N30   Ni4   S    
C139  C140  S    
C225  F44   S    
C22   C31   A    
C109  H136  S    
C164  H89   S    
C148  C149  S    
C154  C155  S    
C164  H88   S    
C134  H14   S    
C147  H43   S    
C71   C168  A    
C69   C245  A    
C62   C81   S    
C95   F35   S    
C109  O30   S    
C123  H170  S    
C7    C210  A    
N4    Ni5   S    
C14   C21   A    
C21   C30   A    
C208  C217  A    
C7    C236  A    
C68   C184  A    
C117  H154  S    
C30   C246  A    
C155  H66   S    
C220  F12   S    
C158  H72   S    
C144  H40   S    
C108  H134  S    
C42   H102  S    
C67   C244  A    
C113  C170  A    
C136  H17   S    
N3    N11   A    
C153  H60   S    
C152  O19   S    
C53   C197  S    
C19   H13   S    
C156  C158  S    
C130  C131  S    
C80   C88   A    
C10   C16   A    
C70   C167  A    
C209  F7    S    
C120  H161  S    
C240  O3    S    
C176  C189  A    
C129  H184  S    
C146  C174  A    
C102  H117  S    
C76   F25   S    
C107  H132  S    
C39   H99   S    
C148  O17   S    
C44   F10   S    
C171  C190  A    
C98   C99   S    
N13   Ni2   S    
C243  N6    A    
C162  H84   S    
C79   C167  A    
C73   C170  A    
C112  N12   A    
C76   C85   A    
C160  H76   S    
C197  C214  A    
N28   Ni3   S    
C56   C200  S    
C78   C87   A    
N7    Ni8   S    
C237  O32   S    
C105  C106  S    
N29   Ni4   S    
C110  H140  S    
C202  C211  A    
C128  C129  S    
C74   F22   S    
C37   H96   S    
C163  O25   S    
C50   N25   A    
C98   O12   S    
C220  C229  A    
C225  C234  A    
C131  H7    S    
C116  H151  S    
C151  H55   S    
C212  O1    S    
C75   C84   A    
C15   C25   A    
C66   C243  A    
C13   C178  A    
C51   F17   S    
C72   F20   S    
C191  O25   S    
C8    C229  A    
C156  O21   S    
C116  H150  S    
C5    C27   A    
C112  H97   S    
C6    C28   A    
C221  C230  A    
C177  O10   S    
C107  C108  S    
N14   Ni4   S    
C26   F36   S    
C114  H146  S    
N11   Ni1   S    
C160  H77   S    
C84   C93   A    
C28   F38   S    
C115  O32   S    
C11   C232  A    
C149  H49   S    
C96   C97   S    
C96   H103  S    
C87   F27   S    
N21   Ni6   S    
C99   H113  S    
C89   F29   S    
C57   C182  A    
C105  H125  S    
C70   F18   S    
C63   C80   S    
C22   H46   S    
C12   C233  A    
C153  H62   S    
C126  H175  S    
C164  H87   S    
C54   C172  A    
C188  O21   S    
C192  O26   S    
C145  H42   S    
C86   C95   A    
C45   C52   A    
C118  H157  S    
C50   C56   A    
C210  C219  A    
C44   N19   A    
C9    C230  A    
C98   H109  S    
C244  O7    S    
C174  C192  A    
C97   H106  S    
C139  H26   S    
C104  H123  S    
C202  F48   S    
C162  H82   S    
C200  C226  A    
N25   Ni7   S    
C19   C28   A    
C100  O23   S    
C74   C171  A    
C138  H22   S    
C56   C194  A    
C159  H75   S    
C172  H108  S    
C141  O14   S    
C16   C23   A    
C57   C94   A    
C166  H94   S    
C110  H138  S    
C103  C104  S    
N22   Ni8   S    
C48   C59   A    
C177  C190  A    
C141  H31   S    
C90   C168  A    
C125  H173  S    
C131  H5    S    
C197  C223  A    
C77   C86   A    
C181  C186  A    
C31   F41   S    
N18   N23   A    
C155  H67   S    
C5    C234  A    
C72   C169  A    
C76   C174  A    
C195  C212  A    
C117  C118  S    
C136  H16   S    
C125  H172  S    
N16   Ni3   S    
C203  C212  A    
C9    C12   A    
C133  H10   S    
C103  H121  S    
C211  O12   S    
C122  H168  S    
C203  C247  A    
C152  C153  S    
C239  O2    S    
C149  H51   S    
C181  O15   S    
C150  C151  S    
C227  N31   A    
C79   C238  A    
C142  H32   S    
C111  H142  S    
C230  C247  A    
C25   C33   A    
C106  H128  S    
C20   H24   S    
N10   Ni1   S    
C176  C238  A    
C24   C91   A    
C41   H101  S    
C36   H90   S    
C201  C228  A    
C39   C65   A    
C219  O30   S    
C199  C217  A    
C43   F9    S    
C222  F34   S    
C161  C162  S    
C65   C86   S    
C6    C209  A    
C50   F16   S    
C118  H155  S    
C11   C19   A    
C143  H37   S    
C148  H48   S    
C100  H115  S    
C1    H1    S    
C23   H57   S    
C106  H129  S    
C152  H58   S    
C123  C125  S    
C75   C173  A    
C3    C33   A    
C59   C198  S    
C161  H80   S    
C150  H52   S    
C37   C63   A    
C46   C135  A    
C204  F3    S    
C165  H91   S    
C121  H164  S    
C101  C169  A    
C72   C81   A    
C134  H15   S    
N24   Ni7   S    
C81   C89   A    
C35   C92   A    
C137  H20   S    
N26   N29   A    
C243  O6    S    
C101  C157  A    
C29   F39   S    
C40   C66   A    
C57   C146  A    
C38   N13   A    
C30   F40   S    
C115  H148  S    
C215  O29   S    
C64   C78   S    
C198  C215  A    
C123  H169  S    
C111  H143  S    
C96   H104  S    
C145  C147  S    
N6    Ni8   S    
C244  N7    A    
C38   H98   S    
C202  C246  A    
N31   Ni3   S    
C117  H153  S    
C155  H65   S    
N8    N17   A    
N19   N27   A    
C63   C240  A    
C59   C216  A    
C136  H18   S    
C167  C186  A    
C194  H130  S    
C39   N14   A    
C8    C18   A    
C127  H178  S    
C165  O26   S    
C36   C62   A    
C198  C224  A    
C148  H47   S    
C133  H12   S    
C27   F37   S    
C119  H158  S    
C120  H162  S    
C122  H166  S    
C245  N8    A    
C159  C160  S    
C129  H183  S    
C102  H118  S    
C207  C215  A    
C143  H36   S    
N18   Ni6   S    
C51   C58   A    
C107  H131  S    
C201  C219  A    
C121  C122  S    
C94   F33   S    
C221  F1    S    
C40   N15   A    
C18   H2    S    
C104  H122  S    
C213  O27   S    
C140  H27   S    
C209  C218  A    
C36   N10   A    
C68   C157  A    
C73   C82   A    
C4    C207  A    
C195  C221  A    
C137  C138  S    
C48   N22   A    
C90   C124  A    
C77   F26   S    
C169  C188  A    
C184  O17   S    
C163  H86   S    
C4    C26   A    
C119  C120  S    
N9    Ni2   S    
C154  H63   S    
C79   C135  A    
C185  O18   S    
C128  H180  S    
C217  O28   S    
N12   Ni2   S    
C226  F47   S    
N2    N10   A    
C161  O24   S    
C130  H3    S    
C227  H163  S    
C23   C32   A    
C123  O5    S    
C242  N5    A    
N1    Ni1   S    
C189  O22   S    
N27   Ni1   S    
C5    C208  A    
C124  C171  A    
C48   F14   S    
C10   C231  A    
C111  C114  S    
C190  O24   S    
C43   N18   A    
C207  F5    S    
C205  H141  S    
C1    C52   A    
C159  O22   S    
C111  O31   S    
C62   C239  A    
C147  H44   S    
C242  O5    S    
C245  O8    S    
C132  H8    S    
C15   C235  A    
C126  O6    S    
C55   C183  A    
C172  N23   A    
C137  O11   S    
C115  C116  S    
N3    Ni6   S    
C160  H78   S    
C32   F42   S    
N17   Ni4   S    
C55   C195  S    
C6    C235  A    
C165  C166  S    
C178  C191  A    
N8    Ni7   S    
C12   C22   A    
C156  H69   S    
C70   C78   A    
C130  O8    S    
C4    C233  A    
C163  C164  S    
C158  H71   S    
C116  H149  S    
C144  H39   S    
C119  O3    S    
C108  H133  S    
C183  H119  S    
C49   F15   S    
C241  O4    S    
C240  N3    A    
N1    N20   A    
C83   C92   A    
C153  H61   S    
C126  H176  S    
C17   C26   A    
N15   Ni3   S    
C145  H41   S    
C175  C191  A    
C128  O7    S    
C194  N28   A    
C16   C236  A    
C17   H174  S    
C102  H116  S    
C47   N21   A    
C205  N29   A    
C98   H110  S    
C100  H114  S    
C96   O1    S    
C93   F32   S    
C216  N30   A    
C43   C54   A    
C60   C199  S    
C97   H105  S    
C179  C192  A    
C139  H25   S    
C58   C201  S    
C132  C133  S    
C128  H181  S    
C104  H124  S    
C140  H29   S    
C107  O29   S    
C2    C88   A    
C162  H83   S    
C121  H165  S    
C152  H59   S    
C214  O23   S    
N2    Ni6   S    
C138  H23   S    
C24   C113  A    
C77   C175  A    
C54   C193  S    
C166  H95   S    
C31   C247  A    
N6    N15   A    
C208  F6    S    
C110  H139  S    
C40   H100  S    
C71   C80   A    
C33   F43   S    
C45   F11   S    
C20   C29   A    
C49   N24   A    
C141  H30   S    
C151  H56   S    
C216  H152  S    
C134  C136  S    
N22   N30   A    
C34   N9    A    
C204  C213  A    
C42   C69   A    
C226  C235  A    
C184  C188  A    
N7    N16   A    
C41   N16   A    
C178  O11   S    
C69   C83   S    
C85   C94   A    
C237  N32   A    
C187  O20   S    
C210  F8    S    
C176  O9    S    
C24   C179  A    
C100  C102  S    
C125  H171  S    
C127  H179  S    
C161  H81   S    
C199  C225  A    
N26   Ni8   S    
C204  C248  A    
C114  H145  S    
C157  C175  A    
C119  H159  S    
C229  C246  A    
C53   C112  A    
C9    C17   A    
C222  C231  A    
C149  H50   S    
C103  H120  S    
C13   C101  A    
C108  H135  S    
C142  H33   S    
C14   C234  A    
N23   Ni2   S    
C105  H126  S    
C150  O18   S    
C35   C180  A    
C51   N26   A    
N25   N28   A    
C8    C14   A    
C168  C185  A    
C13   C89   A    
C224  F45   S    
C3    C206  A    
N12   N21   A    
C18   C27   A    
C3    C232  A    
C118  H156  S    
C65   C242  A    
C117  O2    S    
C60   C227  A    
C61   C237  A    
C92   F31   S    
C88   F28   S    
N4    N13   A    
C73   F21   S    
C141  C142  S    
C196  C213  A    
C97   H107  S    
C46   C93   A    
C99   H111  S    
C121  O4    S    
C173  C189  A    
C37   N11   A    
C44   C55   A    
C182  C187  A    
C150  H53   S    
C228  C236  A    
C138  H21   S    
C180  C185  A    
C223  C232  A    
C67   C84   S    
C180  O14   S    
C166  H93   S    
C109  C110  S    
C182  O16   S    
N20   Ni5   S    
N19   Ni5   S    
N5    N14   A    
N32   Ni5   S    
C196  C222  A    
C147  H45   S    
