data_mof_unit_36915.cif
_audit_creation_date              2012-10-26T21:20:11-0400
_audit_creation_method            fapswitch 2.2
_symmetry_space_group_name_H-M    P1
_symmetry_Int_Tables_number       1
_space_group_crystal_system       triclinic
_cell_length_a                    12.979713
_cell_length_b                    10.823646
_cell_length_c                    9.510314
_cell_angle_alpha                 90.136682
_cell_angle_beta                  96.641451
_cell_angle_gamma                 90.531064
_cell_volume                      1327.05223966

loop_
_atom_site_label
_atom_site_type_symbol
_atom_type_description
_atom_site_fract_x
_atom_site_fract_y
_atom_site_fract_z
_atom_type_partial_charge
C1    C     C_R   0.499867 0.262061 0.499844 0.540813
C2    C     C_R   0.699592 0.496272 0.527171 0.539514
C3    C     C_R   0.812686 0.488357 0.544076 -0.002116
C4    C     C_R   0.187314 0.511662 0.455927 -0.002132
C5    C     C_R   0.022074 0.566693 0.326188 -0.138156
C6    C     C_R   0.977923 0.433325 0.673823 -0.138204
C7    C     C_R   0.130096 0.562177 0.333516 -0.021392
C8    C     C_R   0.869900 0.437830 0.666480 -0.021414
C9    C     C_R   0.135590 0.468051 0.567469 -0.144940
C10   C     C_R   0.864411 0.531985 0.432547 -0.144906
C11   C     C_R   0.028528 0.475332 0.560739 0.031044
C12   C     C_R   0.500138 0.737939 0.500157 0.540769
C13   C     C_R   0.971472 0.524694 0.439274 0.031078
C14   C     C_R   0.512924 0.063746 0.375370 -0.135428
C15   C     C_R   0.487089 0.936255 0.624632 -0.135440
C16   C     C_R   0.513233 0.935956 0.375624 -0.150088
C17   C     C_R   0.486781 0.064044 0.624377 -0.150091
C18   C     C_R   0.820097 0.385526 0.785987 0.057425
C19   C     C_R   0.753497 0.282276 0.765317 -0.052553
C20   C     C_R   0.705237 0.234903 0.878019 -0.097146
C21   C     C_R   0.723915 0.289246 0.012110 -0.102571
C22   C     C_R   0.791611 0.390388 0.034013 -0.110164
C23   C     C_R   0.500183 0.871765 0.500193 0.019080
C24   C     C_R   0.839833 0.438360 0.921626 -0.078921
C25   C     C_R   0.179883 0.614480 0.213986 0.057452
C26   C     C_R   0.159955 0.561815 0.078283 -0.079076
C27   C     C_R   0.208092 0.609863 0.965853 -0.110244
C28   C     C_R   0.275896 0.710905 0.987774 -0.102616
C29   C     C_R   0.294784 0.765062 0.121932 -0.097139
C30   C     C_R   0.246602 0.717629 0.234676 -0.052392
C31   C     C_R   0.499828 0.128235 0.499808 0.019089
C32   C     C_R   0.433079 0.424670 0.064161 0.351853
C33   C     C_R   0.566922 0.575330 0.935839 0.351868
C34   C     C_R   0.433589 0.425150 0.914438 -0.034680
C35   C     C_R   0.566413 0.574849 0.085563 -0.034742
C36   C     C_R   0.300408 0.503735 0.472829 0.539478
Cu1   Cu    Cu3+1 0.500000 0.500020 0.640660 0.996864
Cu2   Cu    Cu3+1 0.500000 0.499980 0.359340 0.996811
H1    H     H_    0.821112 0.572689 0.339998 0.109285
H2    H     H_    0.619166 0.634347 0.151814 0.095125
H3    H     H_    0.738274 0.239480 0.661823 0.095840
H4    H     H_    0.653375 0.156065 0.861454 0.102312
H5    H     H_    0.686150 0.252845 0.099110 0.112503
H6    H     H_    0.806307 0.431946 0.137928 0.106976
H7    H     H_    0.891494 0.517414 0.939826 0.099143
H8    H     H_    0.108190 0.482853 0.060059 0.099136
H9    H     H_    0.193215 0.568474 0.861882 0.107054
H10   H     H_    0.313584 0.747378 0.900737 0.112494
H11   H     H_    0.346724 0.843827 0.138504 0.102308
H12   H     H_    0.178889 0.427373 0.660035 0.109340
H13   H     H_    0.261965 0.760312 0.338212 0.095848
H14   H     H_    0.322354 0.301924 0.053031 0.281842
H15   H     H_    0.677658 0.698062 0.946972 0.281813
H16   H     H_    0.977634 0.605280 0.233172 0.096839
H17   H     H_    0.022358 0.394738 0.766845 0.096855
H18   H     H_    0.523479 0.111775 0.278172 0.136738
H19   H     H_    0.476532 0.888225 0.721829 0.136748
H20   H     H_    0.524252 0.887685 0.278666 0.119623
H21   H     H_    0.475765 0.112316 0.721335 0.119634
H22   H     H_    0.380836 0.365650 0.848186 0.095143
N1    N     N_R   0.500030 0.500030 0.852080 -0.213360
N2    N     N_R   0.499970 0.499970 0.147920 -0.213384
O1    O     O_R   0.499990 0.319660 0.618740 -0.524851
O2    O     O_3   0.634077 0.650770 0.872557 -0.659855
O3    O     O_R   0.500010 0.680340 0.381260 -0.524883
O4    O     O_R   0.499990 0.319630 0.381170 -0.461145
O5    O     O_R   0.500010 0.680370 0.618830 -0.461140
O6    O     O_R   0.349000 0.499990 0.599490 -0.530818
O7    O     O_R   0.651000 0.500010 0.400510 -0.530842
O8    O     O_R   0.348990 0.499960 0.361920 -0.434547
O9    O     O_R   0.651010 0.500040 0.638080 -0.434525
O10   O     O_3   0.365924 0.349228 0.127443 -0.659836

loop_
_geom_bond_atom_site_label_1
_geom_bond_atom_site_label_2
_ccdc_geom_bond_type
C8    C18   S    
Cu1   N1    S    
C30   H13   S    
Cu2   O8    S    
C25   C30   A    
C29   C30   A    
H14   O10   S    
C6    C8    A    
C16   C23   A    
C2    O7    A    
C9    C11   A    
C12   O3    A    
C14   C31   A    
C14   H18   S    
C19   C20   A    
C7    C25   S    
Cu2   O3    S    
C1    C31   S    
C6    H17   S    
C27   C28   A    
C36   O6    A    
C2    C3    S    
C25   C26   A    
Cu2   O7    S    
C5    C7    A    
C32   O10   S    
C3    C10   A    
C29   H11   S    
C21   C22   A    
C34   H22   S    
C20   H4    S    
C15   H19   S    
C12   C23   S    
C19   H3    S    
C26   C27   A    
Cu1   Cu2   S    
C17   H21   S    
C33   O2    S    
C18   C24   A    
C24   H7    S    
C1    O1    A    
C15   C23   A    
C28   C29   A    
Cu1   O1    S    
C36   O8    A    
C1    O4    A    
C35   N2    A    
C22   C24   A    
C4    C7    A    
C17   C31   A    
C12   O5    A    
C14   C16   A    
C3    C8    A    
Cu1   O9    S    
C26   H8    S    
C35   H2    S    
C2    O9    A    
Cu1   O6    S    
Cu1   O5    S    
C5    H16   S    
C11   C13   A    
C20   C21   A    
C33   N1    A    
C18   C19   A    
C27   H9    S    
C6    C11   A    
C15   C17   A    
C28   H10   S    
C16   H20   S    
C32   N2    A    
C33   C35   A    
C4    C9    A    
C21   H5    S    
C5    C13   A    
H15   O2    S    
C34   N1    A    
C22   H6    S    
C9    H12   S    
Cu2   O4    S    
C4    C36   S    
C10   H1    S    
Cu2   N2    S    
C10   C13   A    
C32   C34   A    
