data_mof_unit_49446.cif
_audit_creation_date              2012-12-11T16:44:12-0500
_audit_creation_method            fapswitch 2.2
_symmetry_space_group_name_H-M    P1
_symmetry_Int_Tables_number       1
_space_group_crystal_system       triclinic
_cell_length_a                    27.175869
_cell_length_b                    7.192047
_cell_length_c                    22.785622
_cell_angle_alpha                 90.001316
_cell_angle_beta                  101.690841
_cell_angle_gamma                 90.002493
_cell_volume                      4361.06678902

loop_
_atom_site_label
_atom_site_type_symbol
_atom_type_description
_atom_site_fract_x
_atom_site_fract_y
_atom_site_fract_z
_atom_type_partial_charge
O1    O     O_R   0.707300 0.594030 0.176840 -0.541652
O2    O     O_R   0.292700 0.405970 0.823160 -0.538193
O3    O     O_R   0.792700 0.094030 0.323160 -0.541642
O4    O     O_R   0.207300 0.905970 0.676840 -0.538182
O5    O     O_R   0.697330 0.262360 0.295660 -0.518236
O6    O     O_R   0.302670 0.737640 0.704340 -0.517609
O7    O     O_R   0.802670 0.762360 0.204340 -0.518242
O8    O     O_R   0.197330 0.237640 0.795660 -0.517639
C1    C     C_R   0.684733 0.432460 0.311804 0.767219
C2    C     C_R   0.315098 0.567580 0.687980 0.765849
C3    C     C_R   0.815267 0.932463 0.188197 0.767251
C4    C     C_R   0.184901 0.067578 0.812018 0.765859
O9    O     O_R   0.701410 0.264250 0.175600 -0.528997
O10   O     O_R   0.298590 0.735750 0.824400 -0.530969
O11   O     O_R   0.798590 0.764250 0.324400 -0.529024
O12   O     O_R   0.201410 0.235750 0.675600 -0.530991
O13   O     O_R   0.796800 0.094950 0.202240 -0.508309
O14   O     O_R   0.203200 0.905050 0.797760 -0.509985
O15   O     O_R   0.703200 0.594950 0.297760 -0.508332
O16   O     O_R   0.296800 0.405050 0.702240 -0.510006
C5    C     C_R   0.689564 0.432522 0.153363 0.808101
C6    C     C_R   0.310421 0.567041 0.846612 0.814224
C7    C     C_R   0.810436 0.932532 0.346636 0.808118
C8    C     C_R   0.189580 0.067031 0.653388 0.814272
O17   O     O_3   0.781290 0.427390 0.258880 -0.378954
O18   O     O_3   0.218710 0.572610 0.741120 -0.378525
O19   O     O_3   0.718710 0.927390 0.241120 -0.378954
O20   O     O_3   0.281290 0.072610 0.758880 -0.378514
V1    V     V_3+5 0.744190 0.152150 0.248350 1.597714
V2    V     V_3+5 0.255810 0.847850 0.751650 1.608400
V3    V     V_3+5 0.755810 0.652150 0.251650 1.597626
V4    V     V_3+5 0.244190 0.347850 0.748350 1.608294
C9    C     C_R   0.155159 0.055610 0.594292 -0.296360
C10   C     C_R   0.845250 0.935660 0.405628 -0.272047
C11   C     C_R   0.344842 0.555672 0.905709 -0.296373
C12   C     C_R   0.654746 0.435596 0.094373 -0.272025
C13   C     C_R   0.143588 0.029202 0.486593 0.655522
C14   C     C_R   0.860458 0.864720 0.511498 0.651578
C15   C     C_R   0.356421 0.529877 0.013423 0.655505
C16   C     C_R   0.639501 0.364100 0.988539 0.651574
C17   C     C_R   0.174974 0.054231 0.542460 0.553215
C18   C     C_R   0.827469 0.883629 0.456496 0.548402
C19   C     C_R   0.325035 0.554704 0.957547 0.553189
C20   C     C_R   0.672503 0.383187 0.043523 0.548418
C21   C     C_R   0.103202 0.031528 0.589701 -0.226597
C22   C     C_R   0.896915 0.968545 0.410425 -0.294610
C23   C     C_R   0.396791 0.531379 0.910302 -0.226545
C24   C     C_R   0.603092 0.468694 0.089572 -0.294595
C25   C     C_R   0.070703 0.988942 0.533863 0.001935
C26   C     C_R   0.932276 0.931241 0.464492 -0.013043
C27   C     C_R   0.429288 0.489010 0.966160 0.001938
C28   C     C_R   0.567711 0.431211 0.035533 -0.013025
C29   C     C_R   0.091622 0.995895 0.481646 -0.326161
C30   C     C_R   0.912763 0.887324 0.516127 -0.265483
C31   C     C_R   0.408379 0.496387 0.018380 -0.326170
C32   C     C_R   0.587203 0.386889 0.983914 -0.265459
C33   C     C_R   0.018232 0.943335 0.527968 0.006214
C34   C     C_R   0.986020 0.939941 0.469420 -0.074299
C35   C     C_R   0.481748 0.443235 0.972071 0.006221
C36   C     C_R   0.513970 0.440100 0.030615 -0.074316
C37   C     C_R   0.009510 0.930829 0.418736 0.087786
C38   C     C_R   0.997447 0.885306 0.577534 0.078809
C39   C     C_R   0.490486 0.431426 0.081312 0.087764
C40   C     C_R   0.502511 0.384801 0.922531 0.078834
C41   C     C_R   0.061008 0.962040 0.425425 0.748610
C42   C     C_R   0.945624 0.860404 0.571264 0.665929
C43   C     C_R   0.438995 0.462787 0.074615 0.748624
C44   C     C_R   0.554326 0.359742 0.928800 0.665919
H1    H     H_    0.908359 0.023927 0.371493 0.150967
H2    H     H_    0.089233 0.051968 0.630206 0.178603
H3    H     H_    0.591672 0.524353 0.128481 0.150979
H4    H     H_    0.410761 0.551524 0.869783 0.178567
C45   C     C_R   0.853919 0.097801 0.111106 0.528048
C46   C     C_R   0.147311 0.902794 0.890061 0.521309
C47   C     C_R   0.646088 0.597783 0.388903 0.527979
C48   C     C_R   0.352685 0.402781 0.609938 0.521295
C49   C     C_R   0.889682 0.113071 0.074542 0.156259
C50   C     C_R   0.111841 0.887049 0.927001 0.158007
C51   C     C_R   0.610327 0.613043 0.425470 0.156272
C52   C     C_R   0.388164 0.387001 0.573010 0.158002
C53   C     C_R   0.926609 0.974741 0.076322 0.077105
C54   C     C_R   0.074759 0.024689 0.925411 0.078710
C55   C     C_R   0.573401 0.474698 0.423693 0.077108
C56   C     C_R   0.425249 0.524644 0.574601 0.078701
C57   C     C_R   0.926441 0.820775 0.114121 -0.229191
C58   C     C_R   0.074520 0.178607 0.887497 -0.235845
C59   C     C_R   0.573565 0.320732 0.385891 -0.229157
C60   C     C_R   0.425487 0.678584 0.612510 -0.235833
H5    H     H_    0.954671 0.713363 0.115793 0.193596
H6    H     H_    0.046231 0.285679 0.886068 0.191883
H7    H     H_    0.545335 0.213314 0.384219 0.193586
H8    H     H_    0.453779 0.785657 0.613939 0.191897
C61   C     C_R   0.890840 0.804601 0.150904 0.127323
C62   C     C_R   0.109767 0.195121 0.850273 0.130505
C63   C     C_R   0.609162 0.304574 0.349102 0.127403
C64   C     C_R   0.390234 0.695122 0.649726 0.130527
C65   C     C_R   0.853854 0.944004 0.149778 -0.185945
C66   C     C_R   0.146777 0.056052 0.851030 -0.180134
C67   C     C_R   0.646148 0.443989 0.350226 -0.185935
C68   C     C_R   0.353220 0.556055 0.648966 -0.180112
C69   C     C_R   0.969992 0.842720 0.998461 -0.290531
C70   C     C_R   0.031666 0.156005 0.003627 -0.288436
C71   C     C_R   0.530024 0.342697 0.501565 -0.290548
C72   C     C_R   0.468336 0.655927 0.496376 -0.288442
H9    H     H_    0.945968 0.721431 0.995515 0.199029
H10   H     H_    0.055666 0.277355 0.006536 0.200757
H11   H     H_    0.554055 0.221430 0.504520 0.199026
H12   H     H_    0.444330 0.777255 0.493456 0.200762
C73   C     C_R   0.005185 0.854416 0.961380 0.703839
C74   C     C_R   0.996493 0.144271 0.040726 0.707171
C75   C     C_R   0.494831 0.354391 0.538644 0.703851
C76   C     C_R   0.503510 0.644196 0.459278 0.707170
C77   C     C_R   0.036622 0.011163 0.963870 -0.069664
C78   C     C_R   0.964989 0.987678 0.038162 -0.068679
C79   C     C_R   0.463386 0.511113 0.536143 -0.069677
C80   C     C_R   0.535021 0.487630 0.461854 -0.068679
F1    F     F_    0.081317 0.952084 0.375648 -0.554110
F2    F     F_    0.927786 0.805384 0.620124 -0.589536
F3    F     F_    0.418693 0.453251 0.124405 -0.554087
F4    F     F_    0.572141 0.304328 0.879964 -0.589571
F5    F     F_    0.007688 0.714525 0.922093 -0.661563
F6    F     F_    0.994012 0.284134 0.080030 -0.658121
F7    F     F_    0.492331 0.214525 0.577940 -0.661528
F8    F     F_    0.505986 0.784033 0.419965 -0.658102
F9    F     F_    0.777719 0.851663 0.452914 -0.581619
F10   F     F_    0.225094 0.076957 0.545999 -0.583434
F11   F     F_    0.722242 0.351002 0.047108 -0.581606
F12   F     F_    0.274922 0.577654 0.954007 -0.583398
F13   F     F_    0.164717 0.033722 0.437455 -0.531033
F14   F     F_    0.840850 0.819356 0.559904 -0.534950
F15   F     F_    0.335301 0.534801 0.062565 -0.531041
F16   F     F_    0.659087 0.318360 0.940149 -0.534967
N1    N     N_3   0.985183 0.854982 0.361912 -0.595592
H13   H     H_    0.957705 0.757346 0.366367 0.242157
H14   H     H_    0.971509 0.961994 0.332042 0.245430
N2    N     N_3   0.028920 0.826686 0.632770 -0.658314
H15   H     H_    0.022035 0.685968 0.639457 0.270707
H16   H     H_    0.019088 0.902551 0.667843 0.269835
N3    N     N_3   0.514807 0.355896 0.138182 -0.595547
H17   H     H_    0.542259 0.258094 0.133784 0.242140
H18   H     H_    0.528512 0.463071 0.167977 0.245421
N4    N     N_3   0.471015 0.325939 0.867337 -0.658288
H19   H     H_    0.477871 0.185152 0.860733 0.270669
H20   H     H_    0.480854 0.401532 0.832214 0.269838
F17   F     F_    0.818430 0.232665 0.107324 -0.621283
F18   F     F_    0.183191 0.769273 0.893922 -0.624579
F19   F     F_    0.681578 0.732654 0.392686 -0.621300
F20   F     F_    0.316799 0.269268 0.606071 -0.624602
N5    N     N_3   0.887410 0.266747 0.034003 -0.582237
H21   H     H_    0.852153 0.265781 0.005240 0.295209
H22   H     H_    0.890490 0.389742 0.058950 0.272535
N6    N     N_3   0.114568 0.733665 0.967719 -0.577889
H23   H     H_    0.111559 0.610471 0.942876 0.274294
H24   H     H_    0.149930 0.735528 0.996251 0.297732
N7    N     N_3   0.612599 0.766727 0.466009 -0.582238
H25   H     H_    0.647857 0.765776 0.494770 0.295229
H26   H     H_    0.609519 0.889716 0.441061 0.272545
N8    N     N_3   0.385442 0.233579 0.532302 -0.577881
H27   H     H_    0.388419 0.110393 0.557145 0.274304
H28   H     H_    0.350093 0.235485 0.503742 0.297694
N9    N     N_3   0.893492 0.648651 0.190539 -0.618018
H29   H     H_    0.928928 0.648792 0.218929 0.248337
H30   H     H_    0.890391 0.527260 0.164802 0.268299
N10   N     N_3   0.106797 0.351280 0.810676 -0.616430
H31   H     H_    0.071150 0.351615 0.782762 0.240505
H32   H     H_    0.110239 0.472499 0.836519 0.269504
N11   N     N_3   0.606504 0.148632 0.309460 -0.618039
H33   H     H_    0.571062 0.148738 0.281084 0.248343
H34   H     H_    0.609619 0.027236 0.335193 0.268302
N12   N     N_3   0.393207 0.851295 0.689320 -0.616387
H35   H     H_    0.428839 0.851548 0.717267 0.240505
H36   H     H_    0.389805 0.972516 0.663482 0.269473

loop_
_geom_bond_atom_site_label_1
_geom_bond_atom_site_label_2
_ccdc_geom_bond_type
O17   V3    S    
C55   C59   A    
C60   C64   A    
C20   F11   S    
O1    C5    A    
C59   H7    S    
O19   V1    S    
C9    C21   A    
O3    C7    A    
C10   C18   A    
C76   C80   A    
C52   C56   A    
O15   V3    S    
N9    H29   S    
C50   N6    S    
C33   C38   A    
N11   H34   S    
C5    C12   S    
O7    C3    A    
C6    C11   S    
C35   C40   A    
C26   C30   A    
C47   C51   A    
C40   N4    S    
C36   C39   A    
C14   F14   S    
O2    V4    S    
O9    V1    S    
N10   H31   S    
C14   C18   A    
N5    H22   S    
O4    C8    A    
C63   C67   A    
N7    H26   S    
N12   H35   S    
C62   C66   A    
C69   C73   A    
O1    V3    S    
O13   V1    S    
C31   C43   A    
C71   C75   A    
C38   N2    S    
O3    V1    S    
C22   H1    S    
C58   C62   A    
C18   F9    S    
C57   C61   A    
C1    O15   A    
C15   C31   A    
C60   H8    S    
C2    O16   A    
C16   C32   A    
C59   C63   A    
C53   C78   S    
O2    C6    A    
C70   H10   S    
C10   C22   A    
C49   C53   A    
C11   C19   A    
C74   C78   A    
C16   C20   A    
C4    C66   S    
C73   C77   A    
C13   C29   A    
C34   C37   A    
O11   C7    A    
C16   F16   S    
C11   C23   A    
C35   C36   A    
O12   C8    A    
C64   N12   S    
N8    H28   S    
C69   C78   A    
O10   V2    S    
C55   C80   S    
N9    H30   S    
O5    V1    S    
C69   H9    S    
C39   C43   A    
O7    V3    S    
C38   C42   A    
C75   F7    S    
C26   C34   A    
C48   C52   A    
C48   C68   A    
N2    H16   S    
C58   H6    S    
C62   N10   S    
C49   N5    S    
N11   H33   S    
C72   C76   A    
C57   H5    S    
O18   V4    S    
C15   C19   A    
C47   F19   S    
C54   C58   A    
O11   V3    S    
O4    V2    S    
C45   F17   S    
O8    V4    S    
C45   C65   A    
O5    C1    A    
C1    C67   S    
C72   C79   A    
C75   C79   A    
C50   C54   A    
C52   N8    S    
C14   C30   A    
C21   C25   A    
O8    C4    A    
C7    C10   S    
C47   C67   A    
O9    C5    A    
C2    C68   S    
O14   V2    S    
O6    V2    S    
N6    H24   S    
C61   N9    S    
C56   C79   S    
C46   C50   A    
N1    H13   S    
N4    H20   S    
C12   C20   A    
C27   C35   A    
C24   H3    S    
C40   C44   A    
C61   C65   A    
C72   H12   S    
C29   C41   A    
C71   H11   S    
O16   V4    S    
C3    O13   A    
C45   C49   A    
C46   C66   A    
C21   H2    S    
C39   N3    S    
C17   F10   S    
C46   F18   S    
C56   C60   A    
C54   C77   S    
N2    H15   S    
C63   N11   S    
C19   F12   S    
O6    C2    A    
C25   C33   A    
C23   C27   A    
N3    H17   S    
C76   F8    S    
C30   C42   A    
O12   V4    S    
C22   C26   A    
C8    C9    S    
C3    C65   S    
C9    C17   A    
O10   C6    A    
N10   H32   S    
C71   C80   A    
C70   C77   A    
C32   C44   A    
N5    H21   S    
C74   F6    S    
C51   C55   A    
N3    H18   S    
C73   F5    S    
C33   C34   A    
N8    H27   S    
C15   F15   S    
C25   C29   A    
C64   C68   A    
O20   V2    S    
C13   F13   S    
C12   C24   A    
C27   C31   A    
C13   C17   A    
C53   C57   A    
C23   H4    S    
C70   C74   A    
C51   N7    S    
C37   C41   A    
C24   C28   A    
N6    H23   S    
C48   F20   S    
C28   C36   A    
C42   F2    S    
C4    O14   A    
N7    H25   S    
N1    H14   S    
C41   F1    S    
N4    H19   S    
C37   N1    S    
N12   H36   S    
C43   F3    S    
C44   F4    S    
C28   C32   A    
