data_mof_unit_17361.cif
_audit_creation_date              2012-12-10T17:07:08-0500
_audit_creation_method            fapswitch 2.2
_symmetry_space_group_name_H-M    P1
_symmetry_Int_Tables_number       1
_space_group_crystal_system       triclinic
_cell_length_a                    10.0914
_cell_length_b                    10.689196
_cell_length_c                    13.374671
_cell_angle_alpha                 92.622652
_cell_angle_beta                  85.071797
_cell_angle_gamma                 92.866877
_cell_volume                      1434.33252913

loop_
_atom_site_label
_atom_site_type_symbol
_atom_type_description
_atom_site_fract_x
_atom_site_fract_y
_atom_site_fract_z
_atom_type_partial_charge
C1    C     C_R   0.502609 0.736025 0.513964 0.942920
C2    C     C_R   0.497138 0.261534 0.500141 0.888528
C3    C     C_R   0.521249 0.506421 0.313516 0.901454
C4    C     C_1   0.529469 0.549164 0.213641 -0.225125
C5    C     C_2   0.521826 0.641450 0.034136 -0.022219
C6    C     C_2   0.419415 0.599266 0.980711 -0.030892
C7    C     C_1   0.446476 0.562042 0.877302 -0.050976
C8    C     C_1   0.527017 0.592478 0.132500 -0.067930
C9    C     C_R   0.279799 0.579638 0.025725 0.139873
C10   C     C_R   0.195559 0.481527 0.989565 -0.163202
C11   C     C_R   0.064216 0.465481 0.030944 -0.143379
C12   C     C_1   0.464860 0.530914 0.790703 -0.181345
C13   C     C_R   0.013954 0.549328 0.106033 -0.115711
C14   C     C_R   0.093972 0.650831 0.138724 -0.197883
C15   C     C_R   0.226232 0.665945 0.098901 -0.162128
C16   C     C_R   0.637003 0.722190 0.990285 0.143355
C17   C     C_R   0.623354 0.796701 0.907414 -0.143759
C18   C     C_R   0.728820 0.875309 0.869430 -0.139384
C19   C     C_R   0.848094 0.884424 0.915254 -0.129546
C20   C     C_R   0.861891 0.815399 0.999426 -0.158268
C21   C     C_R   0.757411 0.735131 0.036846 -0.157162
C22   C     C_R   0.388041 0.051399 0.453356 0.166873
C23   C     C_2   0.594702 0.075742 0.544488 -0.246651
C24   C     C_R   0.261299 0.034536 0.504462 -0.163260
C25   C     C_R   0.172280 0.939622 0.472189 -0.205274
C26   C     C_R   0.209380 0.860861 0.389199 -0.097453
C27   C     C_R   0.333568 0.880295 0.335871 -0.141694
C28   C     C_R   0.421726 0.976678 0.366538 -0.144651
C29   C     C_3   0.787491 0.907098 0.403461 -0.790136
C30   C     C_R   0.140334 0.348898 0.357804 0.195911
C31   C     C_R   0.132405 0.217619 0.359538 -0.144582
C32   C     C_R   0.178298 0.144920 0.275317 -0.135803
C33   C     C_R   0.243786 0.202005 0.192417 -0.163814
C34   C     C_2   0.493745 0.126834 0.502598 -0.200703
C35   C     C_R   0.255164 0.332185 0.191137 -0.140879
C36   C     C_R   0.195406 0.405211 0.270399 -0.072318
C37   C     C_R   0.095009 0.529530 0.598888 0.260737
C38   C     C_R   0.045100 0.435360 0.664244 -0.153389
C39   C     C_R   0.998930 0.467060 0.763214 -0.160667
C40   C     C_R   0.004954 0.592132 0.798376 -0.067820
C41   C     C_R   0.058162 0.685581 0.734920 -0.173134
C42   C     C_R   0.103928 0.654255 0.635769 -0.181245
C43   C     C_3   0.835334 0.304464 0.306577 -0.698545
C44   C     C_2   0.615600 0.942193 0.538933 0.239126
C45   C     C_2   0.508844 0.862848 0.554526 -0.389578
C46   C     C_2   0.075153 0.425002 0.441666 -0.096235
C47   C     C_2   0.923400 0.412240 0.454423 0.195407
C48   C     C_R   0.478331 0.502663 0.686468 0.873361
H1    H     H_    0.899566 0.584073 0.513613 0.136297
H2    H     H_    0.717167 0.930766 0.805277 0.126842
H3    H     H_    0.929243 0.946227 0.886338 0.116148
H4    H     H_    0.953632 0.824587 0.035951 0.143366
H5    H     H_    0.770276 0.685115 0.103358 0.130838
H6    H     H_    0.234423 0.090100 0.572262 0.125680
H7    H     H_    0.075812 0.925309 0.513056 0.135287
H8    H     H_    0.141830 0.785328 0.366013 0.113311
H9    H     H_    0.363301 0.818772 0.272530 0.126966
H10   H     H_    0.519752 0.987157 0.327216 0.128629
H11   H     H_    0.778606 0.828313 0.545466 0.242331
H12   H     H_    0.673398 0.134552 0.575629 0.170974
H13   H     H_    0.893087 0.882128 0.389400 0.219325
H14   H     H_    0.778247 0.002787 0.376480 0.244206
H15   H     H_    0.724975 0.839073 0.360548 0.248428
H16   H     H_    0.085504 0.171828 0.424515 0.123939
H17   H     H_    0.162892 0.044509 0.273772 0.155053
H18   H     H_    0.284801 0.145546 0.129061 0.131043
H19   H     H_    0.310462 0.375668 0.128593 0.152448
H20   H     H_    0.199103 0.506042 0.266615 0.150527
H21   H     H_    0.042176 0.337842 0.638373 0.108212
H22   H     H_    0.959279 0.394571 0.812812 0.125249
H23   H     H_    0.416442 0.896816 0.590443 0.145735
H24   H     H_    0.969555 0.616343 0.875037 0.159541
H25   H     H_    0.064446 0.782227 0.762595 0.132102
H26   H     H_    0.145706 0.726992 0.587515 0.148480
H27   H     H_    0.872681 0.219707 0.440512 0.201036
H28   H     H_    0.730485 0.274349 0.295915 0.233092
H29   H     H_    0.900880 0.237029 0.263692 0.212523
H30   H     H_    0.856163 0.398876 0.275860 0.231822
H31   H     H_    0.232312 0.414934 0.931592 0.133962
H32   H     H_    0.001477 0.387740 0.004949 0.125267
H33   H     H_    0.912902 0.535558 0.138652 0.120386
H34   H     H_    0.053826 0.717203 0.195526 0.124154
H35   H     H_    0.286147 0.746196 0.123576 0.121867
H36   H     H_    0.530328 0.797008 0.872888 0.128658
N1    N     N_2   0.147970 0.498670 0.498970 -0.168286
N2    N     N_2   0.852310 0.498640 0.498940 -0.196198
N3    N     N_2   0.747234 0.903572 0.509800 -0.300862
N4    N     N_2   0.855660 0.304979 0.412475 -0.251031
O1    O     O_R   0.386960 0.680940 0.500020 -0.610127
O2    O     O_R   0.613100 0.680900 0.499980 -0.618768
O3    O     O_R   0.370650 0.500000 0.640370 -0.603736
O4    O     O_R   0.596800 0.499960 0.640330 -0.601587
O5    O     O_R   0.386900 0.319100 0.500020 -0.609137
O6    O     O_R   0.613040 0.319060 0.499980 -0.585296
O7    O     O_R   0.403200 0.500040 0.359670 -0.604901
O8    O     O_R   0.629350 0.500000 0.359630 -0.594965
Zn1   Zn    Zn3+2 0.349000 0.500030 0.500020 0.940959
Zn2   Zn    Zn3+2 0.651000 0.499970 0.499980 0.939407

loop_
_geom_bond_atom_site_label_1
_geom_bond_atom_site_label_2
_ccdc_geom_bond_type
C29   H15   S    
C1    O2    A    
C45   H23   S    
C41   C42   A    
C35   C36   A    
C4    C8    T    
C6    C9    S    
O4    Zn2   S    
C43   H30   S    
C26   C27   A    
C16   C21   A    
C5    C6    D    
C43   N4    S    
C37   N1    S    
C30   C31   A    
O6    Zn2   S    
C24   H6    S    
C13   H33   S    
C18   C19   A    
C37   C42   A    
C5    C16   S    
C46   C47   S    
C19   C20   A    
C16   C17   A    
C48   O3    A    
O8    Zn2   S    
C3    O8    A    
C44   N3    S    
C9    C10   A    
C12   C48   S    
C46   N1    D    
C2    C34   S    
C38   H21   S    
C22   C28   A    
C13   C14   A    
C7    C12   T    
C31   H16   S    
C33   H18   S    
C23   H12   S    
C22   C34   S    
C29   H13   S    
C42   H26   S    
C47   N2    D    
C2    O6    A    
C24   C25   A    
C27   H9    S    
C39   C40   A    
C15   H35   S    
C25   C26   A    
C23   C44   S    
O1    Zn1   S    
C37   C38   A    
C31   C32   A    
C35   H19   S    
C23   C34   D    
O7    Zn1   S    
C17   C18   A    
O3    Zn1   S    
C40   C41   A    
C10   C11   A    
C22   C24   A    
C14   H34   S    
C3    C4    S    
O5    Zn1   S    
C44   C45   D    
C18   H2    S    
C43   H28   S    
C29   H14   S    
C1    O1    A    
C40   H24   S    
H1    N2    S    
C30   C46   S    
C2    O5    A    
C25   H7    S    
C26   H8    S    
C5    C8    S    
C10   H31   S    
C36   H20   S    
C6    C7    S    
C28   H10   S    
C43   H29   S    
C30   C36   A    
C17   H36   S    
C32   C33   A    
C9    C15   A    
C20   H4    S    
C47   N4    S    
C21   H5    S    
C11   C13   A    
C1    C45   S    
C38   C39   A    
C33   C35   A    
C39   H22   S    
N2    Zn2   S    
H11   N3    S    
C29   N3    S    
N1    Zn1   S    
C11   H32   S    
C41   H25   S    
C19   H3    S    
H27   N4    S    
C20   C21   A    
C48   O4    A    
C27   C28   A    
C14   C15   A    
C3    O7    A    
O2    Zn2   S    
C32   H17   S    
