data_mof_unit_47154.cif
_audit_creation_date              2012-12-10T17:23:35-0500
_audit_creation_method            fapswitch 2.2
_symmetry_space_group_name_H-M    P1
_symmetry_Int_Tables_number       1
_space_group_crystal_system       triclinic
_cell_length_a                    10.20447
_cell_length_b                    10.717036
_cell_length_c                    15.755938
_cell_angle_alpha                 90.890212
_cell_angle_beta                  81.033424
_cell_angle_gamma                 97.571229
_cell_volume                      1687.17786221

loop_
_atom_site_label
_atom_site_type_symbol
_atom_type_description
_atom_site_fract_x
_atom_site_fract_y
_atom_site_fract_z
_atom_type_partial_charge
C1    C     C_R   0.558988 0.733201 0.494032 0.758234
C2    C     C_R   0.441026 0.266775 0.506056 0.765385
C3    C     C_2   0.513773 0.943195 0.473399 0.102764
C4    C     C_2   0.486517 0.056888 0.526924 0.103786
C5    C     C_2   0.923408 0.492664 0.518394 0.505114
C6    C     C_2   0.066856 0.469946 0.508111 0.643859
C7    C     C_R   0.499912 0.500116 0.661624 0.866918
C8    C     C_R   0.500108 0.499902 0.338372 0.879059
C9    C     C_3   0.442068 0.597341 0.034938 0.253762
C10   C     C_3   0.558331 0.402940 0.965014 0.254539
C11   C     C_3   0.567859 0.607744 0.966263 0.258655
C12   C     C_3   0.432541 0.392537 0.033686 0.257371
C13   C     C_1   0.499625 0.500104 0.750237 -0.137912
C14   C     C_1   0.500509 0.500030 0.249744 -0.152224
C15   C     C_3   0.373968 0.489742 0.984957 0.267635
C16   C     C_3   0.626432 0.510539 0.014997 0.268049
C17   C     C_3   0.499753 0.500141 0.915798 -0.092728
C18   C     C_3   0.500643 0.500139 0.084154 -0.091873
C19   C     C_1   0.499561 0.500108 0.825291 0.189566
C20   C     C_1   0.500721 0.500113 0.174674 0.189536
C21   C     C_2   0.599857 0.868654 0.494241 0.209511
C22   C     C_2   0.400255 0.131258 0.506119 0.203530
N1    N     N_2   0.842700 0.448880 0.465440 -0.026165
N2    N     N_2   0.157300 0.551120 0.534560 0.029067
O1    O     O_R   0.431060 0.692470 0.506960 -0.635745
O2    O     O_R   0.568940 0.307530 0.493040 -0.622923
O3    O     O_R   0.651120 0.659650 0.484770 -0.624752
O4    O     O_R   0.348880 0.340350 0.515230 -0.552353
O5    O     O_R   0.389990 0.516420 0.634310 -0.598018
O6    O     O_R   0.610010 0.483580 0.365690 -0.608949
O7    O     O_R   0.610050 0.483600 0.612130 -0.599085
O8    O     O_R   0.389950 0.516400 0.387870 -0.571552
Zn1   Zn    Zn3+2 0.353060 0.521920 0.514810 1.040033
Zn2   Zn    Zn3+2 0.646940 0.478080 0.485190 0.990802
O9    O     O_3   0.638091 0.719618 0.929415 -0.720352
H1    H     H_    0.668275 0.769420 0.977963 0.364828
O10   O     O_3   0.362309 0.280660 0.070527 -0.720731
H2    H     H_    0.332131 0.230861 0.021976 0.364812
O11   O     O_3   0.381721 0.698393 0.073105 -0.730880
H3    H     H_    0.356174 0.743793 0.025135 0.366634
O12   O     O_3   0.618680 0.301892 0.926844 -0.730890
H4    H     H_    0.644237 0.256494 0.974812 0.366244
O13   O     O_3   0.757634 0.521336 0.032385 -0.707546
H5    H     H_    0.815064 0.525873 0.975380 0.377366
O14   O     O_3   0.242764 0.478942 0.967573 -0.707145
H6    H     H_    0.185336 0.474397 0.024579 0.376935
C23   C     C_3   0.550709 0.090853 0.607820 -0.367768
C24   C     C_3   0.500407 0.993243 0.680036 -0.371397
C25   C     C_3   0.561468 0.030125 0.760815 -0.732175
H7    H     H_    0.533741 0.122542 0.784985 0.275500
H8    H     H_    0.523399 0.958086 0.811725 0.262919
H9    H     H_    0.672215 0.035886 0.746812 0.278391
H10   H     H_    0.389661 0.986692 0.696013 0.233857
H11   H     H_    0.525476 0.898539 0.660076 0.240610
H12   H     H_    0.661366 0.105392 0.592490 0.271130
H13   H     H_    0.523896 0.182168 0.634980 0.175944
C26   C     C_3   0.449730 0.909374 0.392409 -0.367037
C27   C     C_3   0.499821 0.007242 0.320325 -0.369717
C28   C     C_3   0.439504 0.970041 0.239318 -0.731582
H14   H     H_    0.468584 0.878182 0.214931 0.274861
H15   H     H_    0.328646 0.962976 0.253133 0.280019
H16   H     H_    0.476877 0.042571 0.188641 0.262542
H17   H     H_    0.473925 0.101683 0.340274 0.242225
H18   H     H_    0.610642 0.014504 0.304613 0.234435
H19   H     H_    0.476816 0.818225 0.365106 0.177219
H20   H     H_    0.339069 0.894558 0.407692 0.276122
O15   O     O_3   0.285464 0.081001 0.474753 -0.764772
H21   H     H_    0.242462 0.150296 0.454662 0.380067
O16   O     O_3   0.714613 0.918582 0.525797 -0.768863
H22   H     H_    0.758317 0.849046 0.544924 0.357404
O17   O     O_3   0.105505 0.358816 0.473888 -0.754545
H23   H     H_    0.025098 0.295041 0.477995 0.341195
O18   O     O_3   0.877152 0.560359 0.589259 -0.720950
H24   H     H_    0.816067 0.615177 0.570984 0.365857
O19   O     O_3   0.121679 0.662909 0.562001 -0.666392
H25   H     H_    0.203301 0.710498 0.578837 0.375982
O20   O     O_3   0.897365 0.400654 0.391188 -0.698521
H26   H     H_    0.821414 0.376015 0.359690 0.385270

loop_
_geom_bond_atom_site_label_1
_geom_bond_atom_site_label_2
_ccdc_geom_bond_type
C1    C21   S    
C7    O5    A    
O12   H4    S    
O9    H1    S    
C26   H20   S    
O19   H25   S    
O14   H6    S    
C24   H11   S    
C5    C6    S    
C10   C17   S    
O5    Zn1   S    
C9    O11   S    
O18   H24   S    
C12   O10   S    
O2    Zn2   S    
C25   H8    S    
C2    C22   S    
N1    Zn2   S    
C28   H14   S    
C10   O12   S    
C1    O1    A    
C6    O17   S    
O3    Zn2   S    
C27   H18   S    
C24   H10   S    
C28   H15   S    
C7    O7    A    
O6    Zn2   S    
O15   H21   S    
C8    O8    A    
C14   C20   T    
O11   H3    S    
C13   C19   T    
C27   C28   S    
O20   H26   S    
C21   O16   S    
O13   H5    S    
O10   H2    S    
C4    C22   D    
C11   C16   S    
C23   C24   S    
C5    N1    D    
C12   C15   S    
C25   H9    S    
C6    N2    D    
O7    Zn2   S    
C2    O2    A    
N1    O20   S    
C9    C11   S    
C16   O13   S    
C10   C12   S    
C3    C26   S    
C24   C25   S    
O4    Zn1   S    
C3    C21   D    
C15   O14   S    
C3    C4    S    
C23   H12   S    
C27   H17   S    
C15   C17   S    
C11   C17   S    
C28   H16   S    
C8    C14   S    
C26   H19   S    
N2    O19   S    
N2    Zn1   S    
C8    O6    A    
O8    Zn1   S    
C11   O9    S    
C9    C15   S    
O17   H23   S    
C10   C16   S    
C26   C27   S    
C17   C19   S    
C18   C20   S    
C5    O18   S    
O16   H22   S    
C22   O15   S    
C9    C18   S    
C7    C13   S    
C16   C18   S    
C25   H7    S    
C12   C18   S    
C1    O3    A    
C2    O4    A    
O1    Zn1   S    
C23   H13   S    
C4    C23   S    
