data_mof_unit_42099.cif
_audit_creation_date              2012-10-26T21:01:06-0400
_audit_creation_method            fapswitch 2.2
_symmetry_space_group_name_H-M    P1
_symmetry_Int_Tables_number       1
_space_group_crystal_system       triclinic
_cell_length_a                    10.947668
_cell_length_b                    10.806336
_cell_length_c                    9.554719
_cell_angle_alpha                 90.375837
_cell_angle_beta                  90.703754
_cell_angle_gamma                 90.320547
_cell_volume                      1130.23539689

loop_
_atom_site_label
_atom_site_type_symbol
_atom_type_description
_atom_site_fract_x
_atom_site_fract_y
_atom_site_fract_z
_atom_type_partial_charge
C1    C     C_R   0.496374 0.262714 0.499556 0.575900
C2    C     C_R   0.417954 0.431210 0.073444 -0.024697
C3    C     C_R   0.415590 0.432455 0.923232 0.375826
C4    C     C_R   0.265131 0.499334 0.498584 0.559167
C5    C     C_R   0.593699 0.553723 0.928524 0.079376
C6    C     C_3   0.637051 0.685025 0.923617 -0.038492
C7    C     C_3   0.629153 0.688988 0.083557 0.184335
C8    C     C_R   0.499076 0.737596 0.500220 0.604406
C9    C     C_R   0.734521 0.498565 0.500984 0.558006
C10   C     C_2   0.929629 0.490976 0.385920 -0.095257
C11   C     C_2   0.866162 0.490503 0.504581 -0.149995
C12   C     C_R   0.487298 0.129633 0.500297 0.038980
C13   C     C_2   0.062310 0.477521 0.382420 0.070351
C14   C     C_2   0.132702 0.506004 0.495973 -0.094736
C15   C     C_R   0.550848 0.065951 0.603478 -0.049357
C16   C     C_3   0.213718 0.373595 0.893828 -0.130155
C17   C     C_3   0.764882 0.828582 0.181613 -0.086097
C18   C     C_3   0.881848 0.887886 0.575571 -0.138486
C19   C     C_R   0.412226 0.064099 0.404162 0.078003
C20   C     C_R   0.413337 0.933154 0.404767 0.058707
C21   C     C_R   0.490215 0.871000 0.501005 0.050595
C22   C     C_R   0.553354 0.938763 0.603695 -0.007500
C23   C     C_3   0.686538 0.937725 0.643194 0.139190
C24   C     C_3   0.682375 0.078325 0.643118 -0.235147
C25   C     C_R   0.591824 0.556355 0.075412 0.178640
Cu1   Cu    Cu3+1 0.499990 0.499980 0.640670 0.997540
Cu2   Cu    Cu3+1 0.500010 0.500020 0.359330 0.987429
H1    H     H_    0.882545 0.496283 0.285322 0.199877
H2    H     H_    0.150153 0.343628 0.808692 0.140548
H3    H     H_    0.191925 0.471863 0.918915 0.105107
H4    H     H_    0.196330 0.313169 0.985068 0.111496
H5    H     H_    0.758901 0.681038 0.763686 0.252535
H6    H     H_    0.816247 0.623291 0.912782 0.260794
H7    H     H_    0.697088 0.865566 0.256689 0.161217
H8    H     H_    0.763850 0.884021 0.083828 0.115690
H9    H     H_    0.856828 0.838672 0.230490 0.148163
H10   H     H_    0.162544 0.504299 0.206521 0.251309
H11   H     H_    0.165529 0.356052 0.271239 0.249394
H12   H     H_    0.737293 0.122412 0.559633 0.144055
H13   H     H_    0.245833 0.105373 0.321719 0.218388
H14   H     H_    0.361710 0.105764 0.205012 0.228370
H15   H     H_    0.246943 0.886331 0.324309 0.221417
H16   H     H_    0.361837 0.887251 0.206332 0.220007
H17   H     H_    0.916519 0.983571 0.594240 0.114722
H18   H     H_    0.936063 0.846792 0.489853 0.137543
H19   H     H_    0.897192 0.830487 0.670138 0.127050
H20   H     H_    0.353768 0.375055 0.130175 0.131274
H21   H     H_    0.572415 0.748870 0.870557 0.118254
H22   H     H_    0.554045 0.748169 0.124087 0.096556
H23   H     H_    0.909158 0.478361 0.606265 0.084124
H24   H     H_    0.092781 0.539761 0.591977 0.065059
H25   H     H_    0.702980 0.897776 0.748385 0.130448
H26   H     H_    0.694999 0.119726 0.749139 0.105204
N1    N     N_R   0.500780 0.500930 0.147930 -0.291632
N2    N     N_R   0.500780 0.500890 0.852020 -0.240103
N3    N     N_3   0.762298 0.694484 0.871932 -0.634772
N4    N     N_3   0.111476 0.433809 0.252549 -0.646638
N5    N     N_3   0.336987 0.130601 0.306642 -0.633198
N6    N     N_3   0.338304 0.863238 0.308322 -0.624897
O1    O     O_R   0.500000 0.319640 0.618810 -0.463913
O2    O     O_3   0.743073 0.702174 0.153351 -0.543730
O3    O     O_3   0.757781 0.888013 0.534164 -0.573475
O4    O     O_R   0.500010 0.319680 0.381230 -0.487648
O5    O     O_R   0.321940 0.499980 0.618760 -0.463837
O6    O     O_R   0.321950 0.500020 0.381180 -0.508916
O7    O     O_R   0.499990 0.680320 0.618770 -0.528415
O8    O     O_R   0.500000 0.680360 0.381190 -0.467428
O9    O     O_R   0.678050 0.499980 0.618820 -0.518050
O10   O     O_R   0.678060 0.500020 0.381240 -0.471673
O11   O     O_3   0.334560 0.358750 0.846755 -0.526805

loop_
_geom_bond_atom_site_label_1
_geom_bond_atom_site_label_2
_ccdc_geom_bond_type
H15   N6    S    
C23   C24   S    
C8    O7    A    
C6    C7    S    
Cu2   O6    S    
C17   H9    S    
C18   H17   S    
C2    H20   S    
C24   H26   S    
H11   N4    S    
C4    O5    A    
C3    N2    A    
C14   H24   S    
Cu2   O10   S    
C12   C15   A    
H16   N6    S    
Cu1   O9    S    
Cu1   N2    S    
C24   H12   S    
H6    N3    S    
C2    C3    A    
Cu1   Cu2   S    
C9    O9    A    
C16   O11   S    
C11   H23   S    
C21   C22   A    
C25   N1    A    
C16   H4    S    
H5    N3    S    
C9    C11   S    
C23   H25   S    
C4    O6    A    
C1    C12   S    
Cu2   O4    S    
C5    C25   A    
C18   H19   S    
C12   C19   A    
C15   C24   S    
C9    O10   A    
H14   N5    S    
C8    C21   S    
C23   O3    S    
C19   N5    S    
C4    C14   S    
C5    C6    S    
C6    H21   S    
C2    N1    A    
Cu2   N1    S    
H13   N5    S    
C17   H7    S    
C16   H3    S    
Cu1   O7    S    
C18   H18   S    
C1    O4    A    
C3    O11   S    
C13   N4    S    
C20   C21   A    
C7    H22   S    
C8    O8    A    
C10   C11   D    
C1    O1    A    
C10   H1    S    
Cu2   O8    S    
Cu1   O5    S    
C22   C23   S    
C7    O2    S    
C17   H8    S    
C17   O2    S    
C16   H2    S    
C13   C14   D    
H10   N4    S    
Cu1   O1    S    
C5    N2    A    
C15   C22   A    
C18   O3    S    
C19   C20   A    
C6    N3    S    
C20   N6    S    
C10   C13   S    
C7    C25   S    
