data_mof_unit_48147.cif
_audit_creation_date              2012-12-11T16:35:16-0500
_audit_creation_method            fapswitch 2.2
_symmetry_space_group_name_H-M    P1
_symmetry_Int_Tables_number       1
_space_group_crystal_system       triclinic
_cell_length_a                    6.932059
_cell_length_b                    17.792845
_cell_length_c                    19.402998
_cell_angle_alpha                 109.007145
_cell_angle_beta                  90.685149
_cell_angle_gamma                 90.728507
_cell_volume                      2262.19384557

loop_
_atom_site_label
_atom_site_type_symbol
_atom_type_description
_atom_site_fract_x
_atom_site_fract_y
_atom_site_fract_z
_atom_type_partial_charge
O1    O     O_R   0.505700 0.440210 0.561730 -0.550354
O2    O     O_R   0.169350 0.406300 0.412660 -0.497305
O3    O     O_R   0.005650 0.559790 0.438270 -0.531395
C1    C     C_R   0.337119 0.383036 0.384457 0.872887
O4    O     O_R   0.175560 0.430650 0.559600 -0.527227
O5    O     O_R   0.011900 0.584320 0.586250 -0.545956
C2    C     C_R   0.344854 0.416039 0.581557 0.758706
O6    O     O_R   0.499450 0.415680 0.413750 -0.538040
O7    O     O_3   0.341370 0.550390 0.508570 -0.376512
V1    V     V_3+5 0.063940 0.490650 0.498410 1.519843
O8    O     O_R   0.682570 0.593700 0.587340 -0.544884
C3    C     C_R   0.853010 0.616209 0.615185 0.671318
O9    O     O_R   0.676370 0.569350 0.440400 -0.542275
C4    C     C_R   0.845542 0.586827 0.421013 0.707176
V2    V     V_3+5 0.564750 0.509350 0.501590 1.464131
O10   O     O_3   0.837190 0.449610 0.491430 -0.358489
C5    C     C_R   0.040735 0.728418 0.326547 -0.120853
H1    H     H_    0.175344 0.759480 0.325464 0.101709
C6    C     C_R   0.028305 0.681595 0.372195 -0.128696
H2    H     H_    0.153955 0.677387 0.404377 0.130159
C7    C     C_R   0.856447 0.640250 0.375858 -0.040098
C8    C     C_R   0.695355 0.649906 0.335289 -0.148786
H3    H     H_    0.560048 0.620767 0.338263 0.152986
C9    C     C_R   0.707818 0.695814 0.289058 -0.127740
H4    H     H_    0.581854 0.698739 0.256595 0.111005
C10   C     C_R   0.881252 0.735350 0.283420 0.089246
C11   C     C_R   0.734176 0.823516 0.218500 -0.141168
H5    H     H_    0.599615 0.823526 0.246226 0.101619
C12   C     C_R   0.744747 0.865887 0.169231 -0.153645
H6    H     H_    0.617582 0.896436 0.160225 0.117736
C13   C     C_R   0.917305 0.869818 0.133027 -0.053859
C14   C     C_R   0.079424 0.830369 0.147671 -0.170827
H7    H     H_    0.214788 0.832181 0.120910 0.122845
C15   C     C_R   0.068228 0.787102 0.196393 -0.131756
H8    H     H_    0.194712 0.755825 0.204674 0.108148
C16   C     C_R   0.895193 0.782879 0.232501 0.091000
H9    H     H_    0.637351 0.651880 0.933194 0.125508
C17   C     C_R   0.041702 0.896742 0.746502 -0.169910
C18   C     C_R   0.099134 0.905058 0.680626 0.214537
C19   C     C_R   0.082047 0.841136 0.616388 -0.130606
C20   C     C_R   0.006907 0.768613 0.617344 -0.174785
C21   C     C_R   0.947756 0.758215 0.683262 0.073419
C22   C     C_R   0.965646 0.823531 0.749255 0.034361
C23   C     C_R   0.867755 0.684724 0.683802 -0.165812
C24   C     C_R   0.804325 0.676535 0.750244 0.067486
C25   C     C_R   0.822654 0.741698 0.816330 0.068799
C26   C     C_R   0.903669 0.815192 0.815914 -0.169467
C27   C     C_R   0.725333 0.603622 0.752523 -0.150923
C28   C     C_R   0.664987 0.595293 0.817917 -0.117808
C29   C     C_R   0.683290 0.658796 0.882434 -0.108553
C30   C     C_R   0.761820 0.731137 0.882028 -0.135407
H10   H     H_    0.055663 0.948373 0.794948 0.125073
H11   H     H_    0.125667 0.847748 0.565246 0.141912
H12   H     H_    0.993825 0.721276 0.565627 0.107459
H13   H     H_    0.710138 0.552135 0.704031 0.097199
H14   H     H_    0.604747 0.539076 0.818548 0.124839
H15   H     H_    0.775372 0.778277 0.933858 0.104163
H16   H     H_    0.561509 0.475295 0.182715 0.169448
C31   C     C_R   0.236094 0.217626 0.374695 0.584419
C32   C     C_R   0.193368 0.139601 0.370945 -0.144538
C33   C     C_R   0.222589 0.077109 0.307281 -0.225862
C34   C     C_R   0.297296 0.091741 0.246697 -0.153899
C35   C     C_R   0.341273 0.170115 0.247909 0.021376
C36   C     C_R   0.307436 0.235237 0.312936 -0.055859
C37   C     C_R   0.425299 0.183172 0.186311 -0.104280
C38   C     C_R   0.477593 0.261411 0.189867 -0.024158
C39   C     C_R   0.421509 0.327583 0.250511 0.032304
C40   C     C_R   0.346468 0.314815 0.314337 -0.156848
C41   C     C_R   0.578588 0.275462 0.132129 -0.254256
C42   C     C_R   0.619586 0.352243 0.132754 0.662401
C43   C     C_R   0.545909 0.416354 0.187031 -0.175093
C44   C     C_R   0.439182 0.404542 0.243295 0.034354
H17   H     H_    0.138088 0.127456 0.418274 0.156310
H18   H     H_    0.190080 0.016699 0.305159 0.151672
H19   H     H_    0.323599 0.040478 0.199399 0.118126
H20   H     H_    0.627929 0.227703 0.085809 0.155186
C45   C     C_R   0.541090 0.321207 0.716938 -0.136586
H21   H     H_    0.675908 0.322361 0.746021 0.104581
C46   C     C_R   0.529609 0.365246 0.669038 -0.170933
H22   H     H_    0.656515 0.398083 0.662218 0.114256
C47   C     C_R   0.356348 0.367929 0.631446 -0.044017
C48   C     C_R   0.194959 0.324991 0.642777 -0.123086
H23   H     H_    0.059490 0.325366 0.614500 0.141818
C49   C     C_R   0.207101 0.280035 0.690034 -0.128334
H24   H     H_    0.080995 0.246243 0.695854 0.118754
C50   C     C_R   0.380310 0.277623 0.728043 0.095587
C51   C     C_R   0.233476 0.220443 0.819289 -0.099562
H25   H     H_    0.099079 0.249606 0.816253 0.104491
C52   C     C_R   0.244537 0.173734 0.864964 -0.118186
H26   H     H_    0.117889 0.167605 0.894991 0.129480
C53   C     C_R   0.416920 0.135873 0.872121 -0.049210
C54   C     C_R   0.578288 0.146192 0.832704 -0.113330
H27   H     H_    0.712941 0.117448 0.836532 0.123975
C55   C     C_R   0.566510 0.191960 0.786210 -0.094406
H28   H     H_    0.692220 0.196227 0.755047 0.109778
C56   C     C_R   0.393722 0.229683 0.778603 0.097492
O11   O     O_R   0.273230 0.084330 0.086440 -0.533276
O12   O     O_R   0.596660 0.069390 0.940470 -0.543465
O13   O     O_R   0.760270 0.915710 0.913690 -0.535043
C57   C     C_R   0.427369 0.085158 0.919625 0.701285
O14   O     O_R   0.603330 0.093680 0.087390 -0.542384
O15   O     O_R   0.766990 0.940160 0.061660 -0.543651
C58   C     C_R   0.435867 0.116154 0.115800 0.689146
O16   O     O_R   0.266510 0.059870 0.938470 -0.540549
O17   O     O_3   0.431050 0.949630 0.991510 -0.370344
V3    V     V_3+5 0.708490 0.009340 0.001580 1.430923
O18   O     O_R   0.096270 0.930570 0.059390 -0.546314
C59   C     C_R   0.927783 0.916358 0.081762 0.682088
O19   O     O_R   0.089600 0.906290 0.912460 -0.537728
C60   C     C_R   0.918998 0.883708 0.884660 0.698044
V4    V     V_3+5 0.207670 0.990600 0.998190 1.429559
O20   O     O_3   0.935250 0.050360 0.008480 -0.365612
I1    I     I_    0.208670 0.014805 0.677271 -0.453680
F1    F     F_    0.207710 0.274366 0.439793 -0.716376
F2    F     F_    0.718261 0.364222 0.077202 -0.670469
I2    I     I_    0.255643 0.499850 0.293143 -0.437652

loop_
_geom_bond_atom_site_label_1
_geom_bond_atom_site_label_2
_ccdc_geom_bond_type
C27   H13   S    
C51   H25   S    
C35   C37   A    
C11   C12   A    
C13   C59   S    
C6    H2    S    
C1    O6    A    
C47   C48   A    
V3    O20   S    
C45   H21   S    
C31   C36   A    
C12   H6    S    
C5    C10   A    
C36   C40   A    
C4    C7    S    
C6    C7    A    
C49   C50   A    
C39   C44   A    
O19   V4    S    
O5    C3    A    
C17   C18   A    
O11   V4    S    
H16   C43   S    
C38   C41   A    
C17   H10   S    
V2    O10   S    
C32   H17   S    
C57   O16   A    
C41   H20   S    
C15   H8    S    
C20   C21   A    
C48   C49   A    
O8    V2    S    
V4    O20   S    
C18   I1    S    
O18   C59   A    
O15   C59   A    
C42   C43   A    
C30   H15   S    
C53   C57   S    
C52   C53   A    
O7    V1    S    
C38   C39   A    
O17   V4    S    
C31   C32   A    
O14   C58   A    
C26   C60   S    
C7    C8    A    
C41   C42   A    
C21   C23   A    
O4    V1    S    
C29   C30   A    
C45   C46   A    
C39   C40   A    
C49   H24   S    
C53   C54   A    
C1    C40   S    
C24   C25   A    
O13   C60   A    
C25   C30   A    
C46   H22   S    
C32   C33   A    
C14   C15   A    
O2    C1    A    
C34   C35   A    
C13   C14   A    
C51   C56   A    
C54   C55   A    
C5    H1    S    
C55   H28   S    
C9    H4    S    
C55   C56   A    
O11   C58   A    
O3    C4    A    
C50   C56   S    
O1    V2    S    
C10   C16   S    
C19   C20   A    
C2    C47   S    
C45   C50   A    
C48   H23   S    
O6    V2    S    
O12   C57   A    
C51   C52   A    
C42   F2    S    
C8    C9    A    
C34   H19   S    
C21   C22   A    
C37   C58   S    
O2    V1    S    
C18   C19   A    
C23   C24   A    
O4    C2    A    
C24   C27   A    
O14   V3    S    
O13   V3    S    
C25   C26   A    
C27   C28   A    
O1    C2    A    
O18   V4    S    
C9    C10   A    
O5    V1    S    
O16   V4    S    
O8    C3    A    
C19   H11   S    
C33   H18   S    
C28   H14   S    
O17   V3    S    
C44   I2    S    
C46   C47   A    
O12   V3    S    
C11   C16   A    
C14   H7    S    
O9    V2    S    
O7    V2    S    
C17   C22   A    
C12   C13   A    
O3    V1    S    
V1    O10   S    
O19   C60   A    
H9    C29   S    
C31   F1    S    
C54   H27   S    
C5    C6    A    
O15   V3    S    
C15   C16   A    
C37   C38   A    
C33   C34   A    
C20   H12   S    
C35   C36   A    
C43   C44   A    
C3    C23   S    
C28   C29   A    
C11   H5    S    
C8    H3    S    
C52   H26   S    
O9    C4    A    
C22   C26   A    
