data_mof_unit_58094.cif
_audit_creation_date              2012-12-10T18:33:36-0500
_audit_creation_method            fapswitch 2.2
_symmetry_space_group_name_H-M    P1
_symmetry_Int_Tables_number       1
_space_group_crystal_system       triclinic
_cell_length_a                    10.525154
_cell_length_b                    15.075972
_cell_length_c                    15.476849
_cell_angle_alpha                 80.852516
_cell_angle_beta                  90.908064
_cell_angle_gamma                 104.350614
_cell_volume                      2348.2203072

loop_
_atom_site_label
_atom_site_type_symbol
_atom_type_description
_atom_site_fract_x
_atom_site_fract_y
_atom_site_fract_z
_atom_type_partial_charge
C1    C     C_R   0.479494 0.441211 0.661718 0.912209
C2    C     C_R   0.520013 0.558801 0.338133 0.847689
C3    C     C_R   0.427555 0.456719 0.811004 0.496893
C4    C     C_R   0.548171 0.538943 0.185576 0.487098
C5    C     C_R   0.459639 0.441871 0.899833 -0.049207
C6    C     C_R   0.501266 0.552927 0.100602 0.049453
C7    C     C_R   0.479134 0.353680 0.934683 0.065723
C8    C     C_R   0.483981 0.641913 0.067352 0.035679
C9    C     C_R   0.473696 0.510989 0.954390 -0.089051
C10   C     C_R   0.480483 0.483701 0.046164 -0.028684
C11   C     C_R   0.462600 0.387926 0.080778 0.540601
C12   C     C_R   0.489747 0.606990 0.920439 0.463557
C13   C     C_R   0.474664 0.325973 0.024801 -0.329378
C14   C     C_R   0.480398 0.668792 0.977425 -0.322389
C15   C     C_R   0.664473 0.829485 0.656238 -0.316646
C16   C     C_R   0.283114 0.155756 0.375679 -0.307809
C17   C     C_R   0.645481 0.745875 0.625242 0.044903
C18   C     C_R   0.325911 0.246076 0.392032 0.030352
C19   C     C_R   0.520226 0.797973 0.507215 0.498124
C20   C     C_R   0.487515 0.204477 0.488700 0.496420
C21   C     C_R   0.526639 0.881126 0.540164 -0.021691
C22   C     C_R   0.441438 0.110069 0.479808 -0.032667
C23   C     C_R   0.741933 0.500939 0.500369 0.937813
C24   C     C_R   0.258102 0.498987 0.499828 0.968353
C25   C     C_R   0.604650 0.897191 0.614274 0.098108
C26   C     C_R   0.340323 0.087398 0.419480 0.096304
C27   C     C_R   0.459002 0.948562 0.502493 0.082593
C28   C     C_R   0.491578 0.037748 0.528086 0.084593
C29   C     C_R   0.564550 0.048968 0.604849 -0.149076
C30   C     C_R   0.353104 0.927998 0.445552 -0.146973
C31   C     C_R   0.619669 0.979787 0.647094 -0.206638
C32   C     C_R   0.294914 0.996255 0.405034 -0.199601
C33   C     C_3   0.933071 0.430052 0.563007 -0.435632
C34   C     C_3   0.067083 0.569758 0.437620 -0.463266
C35   C     C_3   0.048841 0.511317 0.578179 0.380305
C36   C     C_3   0.951413 0.488488 0.422450 0.391180
C37   C     C_3   0.123066 0.497904 0.499045 -0.165767
C38   C     C_3   0.877044 0.501911 0.501526 -0.153408
C39   C     C_3   0.008221 0.418303 0.482460 0.431323
C40   C     C_3   0.991963 0.581519 0.518174 0.413039
C41   C     C_R   0.466328 0.404298 0.754625 -0.108301
C42   C     C_R   0.526783 0.595425 0.244902 -0.199837
C43   C     C_R   0.496998 0.293070 0.878502 -0.153062
C44   C     C_R   0.480636 0.704967 0.124377 -0.169733
C45   C     C_R   0.498906 0.321117 0.788219 -0.301884
C46   C     C_R   0.494213 0.679319 0.213912 -0.240032
H1    H     H_    0.722589 0.840199 0.713847 0.161970
H2    H     H_    0.204189 0.139083 0.330566 0.167370
H3    H     H_    0.876528 0.374201 0.613587 0.190886
H4    H     H_    0.123629 0.625603 0.387032 0.183680
H5    H     H_    0.474482 0.254950 0.051510 0.144944
H6    H     H_    0.480946 0.740057 0.951400 0.145043
H7    H     H_    0.515320 0.226351 0.904296 0.151729
H8    H     H_    0.463571 0.772418 0.100118 0.156637
N1    N     N_R   0.574200 0.731700 0.552740 -0.147666
N2    N     N_R   0.425800 0.268300 0.447260 -0.143869
O1    O     O_R   0.462600 0.383110 0.605620 -0.668530
O2    O     O_R   0.537400 0.616890 0.394380 -0.624255
O3    O     O_R   0.510210 0.531900 0.639510 -0.558603
O4    O     O_R   0.489790 0.468100 0.360490 -0.575936
O5    O     O_R   0.662240 0.425610 0.483080 -0.594601
O6    O     O_R   0.337760 0.574390 0.516920 -0.627647
O7    O     O_R   0.709860 0.574400 0.516970 -0.587251
O8    O     O_R   0.290140 0.425600 0.483030 -0.590247
Zn1   Zn    Zn3+2 0.468210 0.400660 0.477370 0.994616
Zn2   Zn    Zn3+2 0.531790 0.599340 0.522630 1.006927
O9    O     O_3   0.105983 0.524907 0.658718 -0.705654
H9    H     H_    0.034315 0.530580 0.696610 0.341662
O10   O     O_3   0.894925 0.474750 0.341800 -0.749519
H10   H     H_    0.966964 0.469240 0.304136 0.350256
O11   O     O_3   0.600166 0.233568 0.532981 -0.790323
H11   H     H_    0.584063 0.279161 0.567799 0.356288
O12   O     O_3   0.470052 0.787173 0.426100 -0.811193
H12   H     H_    0.425809 0.721289 0.428373 0.365063
H13   H     H_    0.279090 0.298848 0.361130 0.187336
H14   H     H_    0.686523 0.691481 0.659479 0.180919
H15   H     H_    0.573350 0.108071 0.637542 0.184010
H16   H     H_    0.307053 0.858294 0.435465 0.191503
O13   O     O_3   0.021077 0.333977 0.461692 -0.735604
H17   H     H_    0.930153 0.296992 0.456093 0.365971
O14   O     O_3   0.979214 0.665875 0.538930 -0.734081
H18   H     H_    0.070194 0.703088 0.543878 0.341894
O15   O     O_3   0.623756 0.475709 0.206615 -0.698542
H19   H     H_    0.678176 0.491640 0.257394 0.369354
O16   O     O_3   0.348769 0.514832 0.778667 -0.674430
H20   H     H_    0.296280 0.523207 0.828029 0.341658
H21   H     H_    0.479776 0.724727 0.258465 0.207593
H22   H     H_    0.524384 0.277935 0.745012 0.169253
O17   O     O_3   0.426676 0.355441 0.167875 -0.728174
H23   H     H_    0.416592 0.287415 0.180257 0.330671
O18   O     O_3   0.523288 0.640484 0.833232 -0.738399
H24   H     H_    0.531647 0.708321 0.821457 0.330936
H25   H     H_    0.674660 0.991174 0.705872 0.148908
H26   H     H_    0.213903 0.977498 0.361874 0.155868

loop_
_geom_bond_atom_site_label_1
_geom_bond_atom_site_label_2
_ccdc_geom_bond_type
C25   C31   A    
C7    C13   A    
C32   H26   S    
C26   C32   A    
C18   H13   S    
C3    O16   S    
C34   C37   S    
O12   H12   S    
C12   O18   S    
C15   H1    S    
C20   N2    A    
C16   H2    S    
O14   H18   S    
O16   H20   S    
O2    Zn2   S    
C33   C39   S    
C34   C40   S    
C28   C29   A    
C35   C37   S    
C1    O3    A    
O3    Zn2   S    
C2    O4    A    
C15   C25   A    
C33   H3    S    
N2    Zn1   S    
C42   C46   A    
C13   H5    S    
C43   H7    S    
C14   H6    S    
C17   H14   S    
C8    C14   A    
C20   O11   S    
C7    C43   A    
C9    C10   A    
C17   N1    A    
C18   N2    A    
C23   O7    A    
C21   C27   A    
O7    Zn2   S    
C24   O8    A    
C38   C40   S    
C22   C28   A    
C27   C30   A    
C44   C46   A    
C16   C26   A    
C37   C39   S    
C34   H4    S    
O6    Zn2   S    
O9    H9    S    
C19   O12   S    
C45   H22   S    
C4    C6    A    
O18   H24   S    
C5    C7    A    
C6    C8    A    
C31   H25   S    
C39   O13   S    
C5    C9    A    
C1    O1    A    
C11   O17   S    
O15   H19   S    
C35   O9    S    
C24   C37   S    
C43   C45   A    
C1    C41   S    
C12   C14   A    
O4    Zn1   S    
C20   C22   A    
N1    Zn2   S    
C36   O10   S    
C46   H21   S    
C19   N1    A    
C15   C17   A    
C21   C25   A    
C3    C41   A    
C24   O6    A    
C19   C21   A    
C40   O14   S    
C36   C39   S    
C8    C44   A    
O1    Zn1   S    
C3    C5    A    
C6    C10   A    
C2    O2    A    
C23   C38   S    
C33   C38   S    
O8    Zn1   S    
C36   C38   S    
C35   C40   S    
O11   H11   S    
C29   C31   A    
C30   C32   A    
C11   C13   A    
C4    O15   S    
C4    C42   A    
C2    C42   S    
C33   C35   S    
C34   C36   S    
O5    Zn1   S    
O10   H10   S    
C9    C12   A    
C10   C11   A    
O13   H17   S    
C30   H16   S    
C44   H8    S    
C23   O5    A    
C29   H15   S    
C16   C18   A    
C22   C26   A    
C27   C28   A    
C41   C45   A    
O17   H23   S    
