data_mof_unit_18772.cif
_audit_creation_date              2012-12-11T16:44:19-0500
_audit_creation_method            fapswitch 2.2
_symmetry_space_group_name_H-M    P1
_symmetry_Int_Tables_number       1
_space_group_crystal_system       triclinic
_cell_length_a                    27.208436
_cell_length_b                    7.237617
_cell_length_c                    22.803045
_cell_angle_alpha                 89.999311
_cell_angle_beta                  101.454237
_cell_angle_gamma                 90.001787
_cell_volume                      4401.0383733

loop_
_atom_site_label
_atom_site_type_symbol
_atom_type_description
_atom_site_fract_x
_atom_site_fract_y
_atom_site_fract_z
_atom_type_partial_charge
O1    O     O_R   0.707300 0.594030 0.176840 -0.532251
O2    O     O_R   0.292700 0.405970 0.823160 -0.532252
O3    O     O_R   0.792700 0.094030 0.323160 -0.532241
O4    O     O_R   0.207300 0.905970 0.676840 -0.532241
O5    O     O_R   0.697330 0.262360 0.295660 -0.540632
O6    O     O_R   0.302670 0.737640 0.704340 -0.540632
O7    O     O_R   0.802670 0.762360 0.204340 -0.540630
O8    O     O_R   0.197330 0.237640 0.795660 -0.540631
C1    C     C_R   0.684801 0.432556 0.311696 0.683853
C2    C     C_R   0.315199 0.567444 0.688303 0.683851
C3    C     C_R   0.815198 0.932561 0.188303 0.683836
C4    C     C_R   0.184802 0.067439 0.811696 0.683837
O9    O     O_R   0.701410 0.264250 0.175600 -0.534173
O10   O     O_R   0.298590 0.735750 0.824400 -0.534173
O11   O     O_R   0.798590 0.764250 0.324400 -0.534174
O12   O     O_R   0.201410 0.235750 0.675600 -0.534174
O13   O     O_R   0.796800 0.094950 0.202240 -0.538750
O14   O     O_R   0.203200 0.905050 0.797760 -0.538749
O15   O     O_R   0.703200 0.594950 0.297760 -0.538747
O16   O     O_R   0.296800 0.405050 0.702240 -0.538747
C5    C     C_R   0.689847 0.432444 0.153529 0.685418
C6    C     C_R   0.310153 0.567555 0.846470 0.685420
C7    C     C_R   0.810153 0.932448 0.346469 0.685425
C8    C     C_R   0.189847 0.067552 0.653531 0.685425
O17   O     O_3   0.781290 0.427390 0.258880 -0.374173
O18   O     O_3   0.218710 0.572610 0.741120 -0.374173
O19   O     O_3   0.718710 0.927390 0.241120 -0.374181
O20   O     O_3   0.281290 0.072610 0.758880 -0.374181
V1    V     V_3+5 0.744190 0.152150 0.248350 1.406416
V2    V     V_3+5 0.255810 0.847850 0.751650 1.406416
V3    V     V_3+5 0.755810 0.652150 0.251650 1.406415
V4    V     V_3+5 0.244190 0.347850 0.748350 1.406415
C9    C     C_R   0.154924 0.062822 0.595101 -0.033844
C10   C     C_R   0.845076 0.937180 0.404899 -0.033843
C11   C     C_R   0.345076 0.562867 0.904901 -0.033897
C12   C     C_R   0.654925 0.437131 0.095098 -0.033902
C13   C     C_R   0.139294 0.126723 0.489111 -0.129671
C14   C     C_R   0.860704 0.873305 0.510890 -0.129670
C15   C     C_R   0.360750 0.627506 0.010846 -0.129691
C16   C     C_R   0.639251 0.372473 0.989154 -0.129691
C17   C     C_R   0.172113 0.117204 0.544155 -0.194338
C18   C     C_R   0.827886 0.882817 0.455846 -0.194339
C19   C     C_R   0.327916 0.617714 0.955819 -0.194302
C20   C     C_R   0.672084 0.382261 0.044181 -0.194301
C21   C     C_R   0.104032 0.018338 0.590688 -0.198566
C22   C     C_R   0.895968 0.981654 0.409311 -0.198565
C23   C     C_R   0.395954 0.518129 0.909329 -0.198587
C24   C     C_R   0.604048 0.481888 0.090667 -0.198586
C25   C     C_R   0.069151 0.030081 0.535006 0.047678
C26   C     C_R   0.930848 0.969927 0.464995 0.047679
C27   C     C_R   0.430850 0.530120 0.964995 0.047669
C28   C     C_R   0.569152 0.469892 0.035001 0.047669
C29   C     C_R   0.087973 0.085241 0.483755 0.136064
C30   C     C_R   0.912026 0.914780 0.516246 0.136063
C31   C     C_R   0.412060 0.585835 0.016212 0.136066
C32   C     C_R   0.587942 0.414165 0.983785 0.136065
C33   C     C_R   0.016442 0.991497 0.528636 0.026580
C34   C     C_R   0.983557 0.008513 0.471364 0.026580
C35   C     C_R   0.483548 0.491304 0.971376 0.026573
C36   C     C_R   0.516455 0.508714 0.028620 0.026573
C37   C     C_R   0.004424 0.063023 0.422192 -0.229901
C38   C     C_R   0.995574 0.937002 0.577809 -0.229900
C39   C     C_R   0.495622 0.563849 0.077753 -0.229907
C40   C     C_R   0.504381 0.436173 0.922243 -0.229907
C41   C     C_R   0.055437 0.100462 0.427875 0.167743
C42   C     C_R   0.944562 0.899572 0.572127 0.167744
C43   C     C_R   0.444619 0.601461 0.072064 0.167748
C44   C     C_R   0.555383 0.398554 0.927933 0.167749
H1    H     H_    0.982117 0.078930 0.377932 0.126347
H2    H     H_    0.017881 0.921109 0.622071 0.126346
H3    H     H_    0.517951 0.580141 0.121985 0.126352
H4    H     H_    0.482052 0.419892 0.878010 0.126352
C45   C     C_R   0.869653 0.119340 0.133362 -0.215646
C46   C     C_R   0.130347 0.880660 0.866638 -0.215645
C47   C     C_R   0.630346 0.619320 0.366635 -0.215646
C48   C     C_R   0.369654 0.380680 0.633365 -0.215646
C49   C     C_R   0.905553 0.135325 0.097092 0.213834
C50   C     C_R   0.094447 0.864675 0.902908 0.213834
C51   C     C_R   0.594447 0.635303 0.402905 0.213837
C52   C     C_R   0.405553 0.364697 0.597095 0.213837
C53   C     C_R   0.926595 0.975929 0.076693 0.097173
C54   C     C_R   0.073404 0.024071 0.923307 0.097173
C55   C     C_R   0.573404 0.475907 0.423307 0.097167
C56   C     C_R   0.426596 0.524093 0.576693 0.097167
C57   C     C_R   0.911696 0.802498 0.094432 -0.220121
C58   C     C_R   0.088304 0.197501 0.905568 -0.220122
C59   C     C_R   0.588303 0.302476 0.405572 -0.220116
C60   C     C_R   0.411697 0.697524 0.594429 -0.220116
C61   C     C_R   0.875835 0.786582 0.130696 -0.168935
C62   C     C_R   0.124165 0.213417 0.869304 -0.168935
C63   C     C_R   0.624164 0.286562 0.369307 -0.168928
C64   C     C_R   0.375836 0.713438 0.630693 -0.168929
H5    H     H_    0.865042 0.650017 0.142854 0.128395
H6    H     H_    0.134958 0.349983 0.857146 0.128396
H7    H     H_    0.634957 0.149997 0.357152 0.128387
H8    H     H_    0.365043 0.850003 0.642848 0.128387
C65   C     C_R   0.854074 0.945276 0.150485 -0.069008
C66   C     C_R   0.145926 0.054724 0.849515 -0.069008
C67   C     C_R   0.645925 0.445258 0.349515 -0.069004
C68   C     C_R   0.354075 0.554741 0.650485 -0.069004
C69   C     C_R   0.009535 0.889938 0.051413 -0.174618
C70   C     C_R   0.990465 0.110062 0.948587 -0.174619
C71   C     C_R   0.490462 0.389937 0.448588 -0.174610
C72   C     C_R   0.509538 0.610062 0.551412 -0.174611
C73   C     C_R   0.045043 0.902250 0.014722 -0.094950
C74   C     C_R   0.954957 0.097750 0.985278 -0.094950
C75   C     C_R   0.454953 0.402266 0.485278 -0.094950
C76   C     C_R   0.545047 0.597733 0.514722 -0.094951
H9    H     H_    0.080043 0.827643 0.027362 0.129124
H10   H     H_    0.919957 0.172357 0.972638 0.129124
H11   H     H_    0.419951 0.327671 0.472638 0.129116
H12   H     H_    0.580049 0.672329 0.527362 0.129117
C77   C     C_R   0.035802 0.011667 0.962697 0.109021
C78   C     C_R   0.964197 0.988333 0.037303 0.109021
C79   C     C_R   0.464197 0.511684 0.537302 0.109019
C80   C     C_R   0.535803 0.488316 0.462698 0.109019
N1    N     N_3   0.074115 0.155693 0.375953 -0.687904
H13   H     H_    0.065646 0.051385 0.343799 0.234181
H14   H     H_    0.055045 0.275270 0.358580 0.234722
N2    N     N_3   0.925882 0.844369 0.624050 -0.687904
H15   H     H_    0.934351 0.948690 0.656200 0.234181
H16   H     H_    0.944950 0.724796 0.641430 0.234722
N3    N     N_3   0.425976 0.657335 0.123945 -0.687901
H17   H     H_    0.434448 0.553349 0.156210 0.234177
H18   H     H_    0.445068 0.777027 0.141176 0.234734
N4    N     N_3   0.574027 0.342700 0.876050 -0.687901
H19   H     H_    0.565561 0.446708 0.843791 0.234177
H20   H     H_    0.554933 0.223025 0.858810 0.234734
H21   H     H_    0.017782 0.805476 0.091371 0.119695
H22   H     H_    0.982217 0.194524 0.908629 0.119696
H23   H     H_    0.482211 0.305475 0.408630 0.119699
H24   H     H_    0.517789 0.694524 0.591370 0.119699
H25   H     H_    0.906963 0.020168 0.368175 0.095277
H26   H     H_    0.093039 0.979803 0.631823 0.095280
H27   H     H_    0.593074 0.520752 0.131783 0.095324
H28   H     H_    0.406929 0.479280 0.868213 0.095322
H29   H     H_    0.788841 0.846295 0.452897 0.111800
H30   H     H_    0.211157 0.153733 0.547105 0.111801
H31   H     H_    0.711114 0.345508 0.047145 0.111832
H32   H     H_    0.288885 0.654448 0.952856 0.111830
H33   H     H_    0.154396 0.169560 0.450760 0.160972
H34   H     H_    0.845601 0.830481 0.549242 0.160972
H35   H     H_    0.345671 0.670740 0.049172 0.160977
H36   H     H_    0.654329 0.329222 0.950829 0.160976
H37   H     H_    0.854253 0.245027 0.148173 0.130975
H38   H     H_    0.145746 0.754973 0.851827 0.130974
H39   H     H_    0.645746 0.745008 0.351822 0.130973
H40   H     H_    0.354254 0.254992 0.648178 0.130974
N5    N     N_3   0.921619 0.314483 0.082534 -0.693309
H41   H     H_    0.889954 0.386398 0.060540 0.218462
H42   H     H_    0.936003 0.382643 0.122702 0.225573
N6    N     N_3   0.078380 0.685516 0.917466 -0.693310
H43   H     H_    0.063997 0.617357 0.877298 0.225574
H44   H     H_    0.110046 0.613602 0.939460 0.218462
N7    N     N_3   0.578383 0.814462 0.417461 -0.693305
H45   H     H_    0.610050 0.886374 0.439456 0.218457
H46   H     H_    0.564002 0.882624 0.377292 0.225574
N8    N     N_3   0.421617 0.185538 0.582539 -0.693305
H47   H     H_    0.435998 0.117375 0.622708 0.225574
H48   H     H_    0.389950 0.113626 0.560544 0.218457
H49   H     H_    0.927669 0.679493 0.079200 0.141473
H50   H     H_    0.072331 0.320507 0.920800 0.141473
H51   H     H_    0.572330 0.179469 0.420807 0.141479
H52   H     H_    0.427670 0.820531 0.579193 0.141479

loop_
_geom_bond_atom_site_label_1
_geom_bond_atom_site_label_2
_ccdc_geom_bond_type
O17   V3    S    
C59   H51   S    
O1    C5    A    
N4    H19   S    
C59   C63   A    
C23   H28   S    
O19   V1    S    
C9    C21   A    
C24   H27   S    
O3    C7    A    
C10   C18   A    
O1    V3    S    
C52   C56   A    
O15   V3    S    
C50   N6    S    
N3    H17   S    
C46   C66   A    
C5    C12   S    
O7    C3    A    
C6    C11   S    
C21   H26   S    
C26   C30   A    
C13   H33   S    
C74   C78   A    
C36   C39   A    
C40   C44   A    
C73   C77   A    
C14   C18   A    
C24   C28   A    
N5    H42   S    
O16   V4    S    
O4    C8    A    
C20   H31   S    
N3    H18   S    
N7    H46   S    
C37   H1    S    
C64   H8    S    
O13   V1    S    
C31   C43   A    
C38   H2    S    
O2    V4    S    
C32   C44   A    
O3    V1    S    
C61   C65   A    
C57   H49   S    
C28   C36   A    
C1    O15   A    
C15   C31   A    
C60   C64   A    
C2    O16   A    
C16   C32   A    
C53   C78   S    
O2    C6    A    
C70   C74   A    
C10   C22   A    
C49   C53   A    
C11   C19   A    
C4    C66   S    
C13   C29   A    
C34   C37   A    
O11   C7    A    
C11   C23   A    
C35   C36   A    
O12   C8    A    
C42   N2    S    
C18   H29   S    
N8    H48   S    
C69   C78   A    
C14   H34   S    
O10   V2    S    
N2    H16   S    
C62   H6    S    
O5    V1    S    
C69   C73   A    
C39   C43   A    
O7    V3    S    
C38   C42   A    
O8    V4    S    
C70   H22   S    
C48   C68   A    
C33   C38   A    
C58   C62   A    
C49   N5    S    
C57   C61   A    
O18   V4    S    
C15   C19   A    
C47   H39   S    
C54   C58   A    
C51   N7    S    
C61   H5    S    
C76   H12   S    
C45   H37   S    
C26   C34   A    
C45   C65   A    
O5    C1    A    
C72   C79   A    
C50   C54   A    
C52   N8    S    
C14   C30   A    
C21   C25   A    
O8    C4    A    
C7    C10   S    
C47   C67   A    
C35   C40   A    
O9    C5    A    
C19   H32   S    
C2    C68   S    
C75   C79   A    
C17   H30   S    
C39   H3    S    
C58   H50   S    
O6    V2    S    
N6    H44   S    
C56   C79   S    
C16   H36   S    
C46   C50   A    
N8    H47   S    
C12   C20   A    
C27   C35   A    
C44   N4    S    
C72   C76   A    
C29   C41   A    
N2    H15   S    
C64   C68   A    
C74   H10   S    
O9    V1    S    
C73   H9    S    
C3    O13   A    
N4    H20   S    
C75   H11   S    
C55   C80   S    
C46   H38   S    
C48   C52   A    
C54   C77   S    
C15   H35   S    
C43   N3    S    
C55   C59   A    
O6    C2    A    
C25   C33   A    
C23   C27   A    
O11   V3    S    
C30   C42   A    
O12   V4    S    
C22   C26   A    
C8    C9    S    
C3    C65   S    
C9    C17   A    
O10   C6    A    
N1    H14   S    
C71   C80   A    
C70   C77   A    
C60   H52   S    
N1    H13   S    
C22   H25   S    
C51   C55   A    
C76   C80   A    
C33   C34   A    
C56   C60   A    
C71   H23   S    
C25   C29   A    
O20   V2    S    
C12   C24   A    
C27   C31   A    
C40   H4    S    
C13   C17   A    
O4    V2    S    
O14   V2    S    
C63   H7    S    
C37   C41   A    
C16   C20   A    
N6    H43   S    
C48   H40   S    
C45   C49   A    
C1    C67   S    
C72   H24   S    
C4    O14   A    
N7    H45   S    
C41   N1    S    
C71   C75   A    
C63   C67   A    
N5    H41   S    
C47   C51   A    
C62   C66   A    
C53   C57   A    
C28   C32   A    
C69   H21   S    
