data_mof_unit_61805.cif
_audit_creation_date              2012-10-26T20:18:40-0400
_audit_creation_method            fapswitch 2.2
_symmetry_space_group_name_H-M    P1
_symmetry_Int_Tables_number       1
_space_group_crystal_system       triclinic
_cell_length_a                    10.762807
_cell_length_b                    10.954997
_cell_length_c                    9.890867
_cell_angle_alpha                 110.391575
_cell_angle_beta                  98.856536
_cell_angle_gamma                 91.953799
_cell_volume                      1075.22500265

loop_
_atom_site_label
_atom_site_type_symbol
_atom_type_description
_atom_site_fract_x
_atom_site_fract_y
_atom_site_fract_z
_atom_type_partial_charge
C1    C     C_R   0.495078 0.254171 0.441594 0.557410
C2    C     C_2   0.493457 0.483835 0.918032 0.427906
C3    C     C_R   0.260202 0.500914 0.500379 0.629868
C4    C     C_R   0.512601 0.746145 0.558574 0.598809
C5    C     C_R   0.740022 0.499867 0.499992 0.575705
C6    C     C_3   0.077180 0.394170 0.557247 0.686072
C7    C     C_3   0.931244 0.380775 0.536473 0.098435
C8    C     C_3   0.092561 0.638698 0.601909 0.716385
C9    C     C_3   0.047588 0.473949 0.343794 -0.324700
C10   C     C_3   0.122420 0.501894 0.501220 -0.067413
C11   C     C_3   0.878556 0.500678 0.502265 -0.143638
C12   C     C_3   0.949642 0.634464 0.613805 0.585266
C13   C     C_3   0.906464 0.485826 0.347402 -0.315446
C14   C     C_2   0.506112 0.115475 0.412017 0.437669
C15   C     C_2   0.552453 0.076375 0.522316 -0.033013
C16   C     C_2   0.518629 0.886606 0.589832 0.233274
C17   C     C_2   0.562993 0.938752 0.499648 0.249649
C18   C     C_2   0.519132 0.499792 0.077771 0.611171
Cl1   Cl    Cl    0.643289 0.849536 0.358221 -0.268728
Cl2   Cl    Cl    0.455404 0.983013 0.743370 -0.348977
Cl3   Cl    Cl    0.382750 0.353402 0.800484 -0.309213
Cl4   Cl    Cl    0.878260 0.347232 0.685253 -0.352108
Cl5   Cl    Cl    0.931621 0.664126 0.800566 -0.188494
Cu1   Cu    Cu3+1 0.522160 0.521810 0.644910 1.334668
Cu2   Cu    Cu3+1 0.477840 0.478190 0.355090 1.297350
F1    F     F_    0.128860 0.426845 0.704087 -0.432436
F2    F     F_    0.121184 0.731503 0.542271 -0.505802
F3    F     F_    0.897388 0.736122 0.578758 -0.512851
F4    F     F_    0.470528 0.028305 0.272682 -0.497792
F5    F     F_    0.630203 0.564929 0.160068 -0.552103
F6    F     F_    0.638845 0.652659 0.954633 -0.402772
F7    F     F_    0.117506 0.274820 0.479953 -0.536993
F8    F     F_    0.324660 0.408560 0.069393 -0.449240
F9    F     F_    0.168191 0.676151 0.739457 -0.463424
H1    H     H_    0.877591 0.571569 0.318569 0.287689
H2    H     H_    0.578361 0.146267 0.633750 0.151986
H3    H     H_    0.894925 0.291180 0.439282 0.166791
H4    H     H_    0.082515 0.543648 0.295679 0.254114
H5    H     H_    0.060937 0.373702 0.270541 0.229169
H6    H     H_    0.851805 0.397230 0.261715 0.195065
N1    N     N_2   0.444530 0.445420 0.137360 0.044618
N2    N     N_2   0.555520 0.554510 0.862630 0.053057
O1    O     O_R   0.511820 0.332340 0.577400 -0.550661
O2    O     O_R   0.474400 0.295500 0.332650 -0.445065
O3    O     O_R   0.336400 0.518400 0.622370 -0.410342
O4    O     O_R   0.298980 0.481560 0.377620 -0.480370
O5    O     O_R   0.525600 0.704500 0.667350 -0.428338
O6    O     O_R   0.488180 0.667660 0.422600 -0.475747
O7    O     O_R   0.701020 0.518440 0.622380 -0.434471
O8    O     O_R   0.663600 0.481600 0.377630 -0.491989

loop_
_geom_bond_atom_site_label_1
_geom_bond_atom_site_label_2
_ccdc_geom_bond_type
C6    C10   S    
C6    F7    S    
C11   C12   S    
C4    C16   S    
C6    C7    S    
C18   F5    S    
F6    N2    S    
C2    C18   S    
C7    Cl4   S    
Cu1   N2    S    
C9    C10   S    
C3    O4    A    
C12   Cl5   S    
C8    C12   S    
C16   Cl2   S    
F8    N1    S    
C2    Cl3   S    
C7    H3    S    
C3    O3    A    
C3    C10   S    
C8    F9    S    
C7    C11   S    
C11   C13   S    
Cu2   O6    S    
C5    O7    A    
C6    F1    S    
C2    N2    D    
Cu1   O3    S    
Cu2   O2    S    
C9    H4    S    
C17   Cl1   S    
C12   F3    S    
C13   H1    S    
C5    C11   S    
C5    O8    A    
C14   F4    S    
C15   H2    S    
C9    H5    S    
Cu1   Cu2   S    
C8    C10   S    
C4    O6    A    
C18   N1    D    
Cu2   N1    S    
Cu1   O7    S    
C15   C17   S    
Cu1   O1    S    
C9    C13   S    
C14   C15   D    
C8    F2    S    
C13   H6    S    
C1    C14   S    
C1    O2    A    
Cu2   O8    S    
Cu1   O5    S    
Cu2   O4    S    
C1    O1    A    
C16   C17   D    
C4    O5    A    
