data_mof_unit_28764.cif
_audit_creation_date              2012-12-11T16:13:03-0500
_audit_creation_method            fapswitch 2.2
_symmetry_space_group_name_H-M    P1
_symmetry_Int_Tables_number       1
_space_group_crystal_system       triclinic
_cell_length_a                    23.480581
_cell_length_b                    13.590684
_cell_length_c                    28.456716
_cell_angle_alpha                 89.993126
_cell_angle_beta                  90.50993
_cell_angle_gamma                 89.979926
_cell_volume                      9080.6660191

loop_
_atom_site_label
_atom_site_type_symbol
_atom_type_description
_atom_site_fract_x
_atom_site_fract_y
_atom_site_fract_z
_atom_type_partial_charge
C1    C     C_R   0.284751 0.005305 0.816086 0.543362
C2    C     C_3   0.496336 0.728945 0.972952 -0.212734
C3    C     C_R   0.205461 0.024872 0.524396 0.017232
C4    C     C_R   0.294685 0.532026 0.525169 -0.083458
C5    C     C_R   0.704101 0.534394 0.475062 -0.088512
C6    C     C_R   0.794688 0.032029 0.525168 -0.083460
C7    C     C_R   0.204104 0.034381 0.475059 -0.088507
C8    C     C_R   0.255883 0.593625 0.547778 0.023819
C9    C     C_R   0.743831 0.593861 0.452287 0.022515
C10   C     C_R   0.755884 0.093624 0.547778 0.023819
C11   C     C_R   0.243836 0.093845 0.452284 0.022516
C12   C     C_R   0.252255 0.577345 0.450274 0.038335
C13   C     C_3   0.004529 0.228962 0.026979 -0.212690
C14   C     C_R   0.747635 0.577707 0.549787 0.037601
C15   C     C_R   0.752255 0.077344 0.450275 0.038336
C16   C     C_R   0.247641 0.077689 0.549784 0.037602
C17   C     C_1   0.243654 0.562182 0.400967 -0.069261
C18   C     C_1   0.756244 0.562381 0.599080 -0.071481
C19   C     C_1   0.743654 0.062181 0.400968 -0.069260
C20   C     C_1   0.256248 0.062368 0.599077 -0.071483
C21   C     C_1   0.260443 0.609959 0.597175 -0.061632
C22   C     C_1   0.739364 0.610181 0.402887 -0.064642
C23   C     C_1   0.760443 0.109958 0.597176 -0.061631
C24   C     C_3   0.996427 0.228946 0.972941 -0.212737
C25   C     C_1   0.239367 0.110170 0.402885 -0.064641
C26   C     C_1   0.232824 0.542208 0.360896 -0.015814
C27   C     C_1   0.767120 0.542305 0.639133 -0.017494
C28   C     C_1   0.732823 0.042207 0.360897 -0.015813
C29   C     C_1   0.267122 0.042299 0.639131 -0.017493
C30   C     C_R   0.284394 0.007206 0.684041 0.546385
C31   C     C_R   0.715601 0.007203 0.315963 0.546724
C32   C     C_R   0.784394 0.507206 0.684041 0.546386
C33   C     C_R   0.215601 0.507203 0.315963 0.546724
C34   C     C_R   0.445767 0.825255 0.684418 0.545061
C35   C     C_1   0.516565 0.834833 0.096691 -0.073247
C36   C     C_R   0.554332 0.825225 0.315665 0.544370
C37   C     C_R   0.945766 0.325255 0.684418 0.545062
C38   C     C_R   0.054332 0.325225 0.315665 0.544372
C39   C     C_R   0.274255 0.674219 0.682940 0.545716
C40   C     C_R   0.725735 0.674257 0.317072 0.545462
C41   C     C_R   0.774255 0.174219 0.682940 0.545716
C42   C     C_R   0.225735 0.174256 0.317072 0.545463
C43   C     C_3   0.442432 0.888525 0.978548 -0.212604
C44   C     C_3   0.557256 0.889568 0.021458 -0.212484
C45   C     C_3   0.942396 0.388398 0.978551 -0.212627
C46   C     C_1   0.483473 0.834769 0.903295 -0.073229
C47   C     C_3   0.057222 0.389695 0.021461 -0.212448
C48   C     C_3   0.548743 0.889961 0.967374 -0.216191
C49   C     C_3   0.450941 0.888957 0.032631 -0.216304
C50   C     C_3   0.048707 0.390090 0.967376 -0.216162
C51   C     C_3   0.950906 0.388831 0.032634 -0.216321
C52   C     C_1   0.529894 0.831288 0.137439 -0.015679
C53   C     C_1   0.470129 0.831223 0.862551 -0.015631
C54   C     C_1   0.029897 0.331288 0.137438 -0.015678
C55   C     C_1   0.970132 0.331223 0.862550 -0.015632
C56   C     C_3   0.334489 0.455688 0.449542 -0.250744
C57   C     C_1   0.016571 0.334833 0.096689 -0.073248
C58   C     C_3   0.379865 0.403735 0.479926 -0.314210
C59   C     C_3   0.420385 0.343443 0.449696 -0.451549
C60   C     C_3   0.663732 0.459641 0.550828 -0.252958
C61   C     C_3   0.618016 0.408490 0.520514 -0.315287
C62   C     C_3   0.577550 0.348221 0.550774 -0.449496
C63   C     C_3   0.834492 0.955692 0.449542 -0.250746
C64   C     C_3   0.879872 0.903748 0.479925 -0.314212
C65   C     C_3   0.920391 0.843456 0.449696 -0.451552
C66   C     C_3   0.163736 0.959627 0.550825 -0.252953
C67   C     C_3   0.118011 0.908495 0.520512 -0.315284
C68   C     C_1   0.983478 0.334769 0.903293 -0.073228
C69   C     C_3   0.077544 0.848228 0.550772 -0.449488
C70   C     C_1   0.266634 0.633638 0.860880 -0.012689
C71   C     C_1   0.733383 0.633663 0.139121 -0.012747
C72   C     C_1   0.766633 0.133634 0.860879 -0.012686
C73   C     C_R   0.715249 0.005323 0.183916 0.543418
C74   C     C_1   0.233382 0.133666 0.139120 -0.012751
C75   C     C_R   0.290046 0.652460 0.982075 -0.106850
C76   C     C_R   0.709506 0.651752 0.017936 -0.106974
C77   C     C_R   0.790159 0.152259 0.982070 -0.106847
C78   C     C_R   0.209554 0.151821 0.017934 -0.106999
C79   C     C_R   0.284769 0.639885 0.030564 -0.108525
C80   C     C_R   0.714791 0.639196 0.969447 -0.108577
C81   C     C_R   0.784879 0.139695 0.030559 -0.108518
C82   C     C_R   0.214836 0.139261 0.969445 -0.108600
C83   C     C_R   0.218710 0.505302 0.016809 -0.105712
C84   C     C_R   0.784751 0.505305 0.816086 0.543362
C85   C     C_R   0.781806 0.505931 0.983201 -0.105788
C86   C     C_R   0.718583 0.005483 0.016811 -0.105717
C87   C     C_R   0.281749 0.005881 0.983199 -0.105796
C88   C     C_R   0.223865 0.518007 0.968352 -0.107558
C89   C     C_R   0.776640 0.518615 0.031657 -0.107576
C90   C     C_R   0.723742 0.018175 0.968353 -0.107555
C91   C     C_R   0.276587 0.018568 0.031656 -0.107589
C92   C     C_R   0.259352 0.591918 0.950959 0.040849
C93   C     C_R   0.740670 0.591859 0.049052 0.040919
C94   C     C_R   0.759350 0.091896 0.950956 0.040845
C95   C     C_R   0.215249 0.505322 0.183916 0.543418
C96   C     C_R   0.240668 0.091871 0.049050 0.040902
C97   C     C_R   0.248769 0.566669 0.047937 0.041023
C98   C     C_R   0.751272 0.566657 0.952072 0.041103
C99   C     C_R   0.748759 0.066672 0.047936 0.041020
C100  C     C_R   0.251266 0.066662 0.952070 0.041087
C101  C     C_R   0.445990 0.824102 0.816642 0.544144
C102  C     C_R   0.554014 0.824129 0.183355 0.544216
C103  C     C_R   0.945990 0.324103 0.816642 0.544144
C104  C     C_R   0.054014 0.324129 0.183355 0.544216
C105  C     C_1   0.241226 0.554113 0.097518 -0.059000
C106  C     C_3   0.492924 0.835827 0.954163 0.067422
C107  C     C_1   0.758783 0.554091 0.902487 -0.059012
C108  C     C_1   0.741223 0.054116 0.097518 -0.058997
C109  C     C_1   0.258780 0.054094 0.902486 -0.059026
C110  C     C_1   0.262490 0.610196 0.901434 -0.058990
C111  C     C_1   0.737529 0.610195 0.098571 -0.059017
C112  C     C_1   0.762490 0.110186 0.901432 -0.058988
C113  C     C_1   0.237528 0.110202 0.098570 -0.059031
C114  C     C_1   0.231508 0.536872 0.138095 -0.012769
C115  C     C_1   0.768487 0.536848 0.861908 -0.012820
C116  C     C_1   0.731508 0.036875 0.138095 -0.012766
C117  C     C_3   0.507121 0.835860 0.045822 0.067397
C118  C     C_1   0.268486 0.036849 0.861907 -0.012826
C119  C     C_1   0.470733 0.833826 0.639095 -0.011947
C120  C     C_1   0.530910 0.833240 0.361579 -0.011452
C121  C     C_1   0.970733 0.333825 0.639095 -0.011948
C122  C     C_1   0.030909 0.333240 0.361579 -0.011453
C123  C     C_R   0.529899 0.769306 0.528810 -0.105940
C124  C     C_R   0.536095 0.767168 0.480109 -0.104555
C125  C     C_R   0.029866 0.269252 0.528806 -0.105936
C126  C     C_R   0.036060 0.267116 0.480104 -0.104552
C127  C     C_R   0.476643 0.912612 0.472767 -0.106060
C128  C     C_3   0.992931 0.335828 0.954161 0.067422
C129  C     C_R   0.470414 0.914723 0.521540 -0.104800
C130  C     C_R   0.976676 0.412659 0.472771 -0.106055
C131  C     C_R   0.970449 0.414769 0.521544 -0.104796
C132  C     C_R   0.497029 0.843040 0.549562 0.037509
C133  C     C_R   0.509138 0.838315 0.452033 0.037652
C134  C     C_R   0.997031 0.343036 0.549562 0.037523
C135  C     C_R   0.009136 0.338313 0.452033 0.037666
C136  C     C_1   0.518136 0.837085 0.402318 -0.058131
C137  C     C_1   0.485386 0.839209 0.598845 -0.058426
C138  C     C_1   0.018134 0.337085 0.402317 -0.058127
C139  C     C_3   0.007129 0.335861 0.045820 0.067389
C140  C     C_1   0.985387 0.339207 0.598845 -0.058422
C141  C     C_1   0.265617 0.633147 0.637571 -0.011417
C142  C     C_1   0.734301 0.633303 0.362474 -0.013224
C143  C     C_1   0.765618 0.133147 0.637571 -0.011417
C144  C     C_1   0.234302 0.133297 0.362473 -0.013225
C145  C     C_R   0.216112 0.647905 0.521935 -0.112471
C146  C     C_R   0.784622 0.646097 0.477961 -0.116808
C147  C     C_R   0.716110 0.147900 0.521935 -0.112471
C148  C     C_R   0.284630 0.146075 0.477958 -0.116812
C149  C     C_R   0.274607 0.673983 0.815087 0.543750
C150  C     C_3   0.504438 0.728962 0.026990 -0.212692
C151  C     C_R   0.725396 0.674010 0.184910 0.543713
C152  C     C_R   0.774607 0.173983 0.815088 0.543753
C153  C     C_R   0.225396 0.174010 0.184910 0.543710
C154  C     C_R   0.214148 0.639489 0.473351 -0.114464
C155  C     C_R   0.786644 0.637813 0.526542 -0.119360
C156  C     C_R   0.714147 0.139484 0.473352 -0.114464
C157  C     C_R   0.286652 0.137790 0.526539 -0.119365
C158  C     C_R   0.293489 0.522619 0.475827 0.019649
C159  C     C_R   0.705456 0.524886 0.524399 0.017228
C160  C     C_R   0.793491 0.022621 0.475827 0.019649
Cr1   Cr    Cr6+3 0.250680 0.837130 0.748990 1.029748
Cr2   Cr    Cr6+3 0.623910 0.707720 0.250330 1.030886
Cr3   Cr    Cr6+3 0.876090 0.207720 0.749670 1.031362
Cr4   Cr    Cr6+3 0.123910 0.207720 0.250330 1.030883
Cr5   Cr    Cr6+3 0.749320 0.837130 0.251010 1.029620
Cr6   Cr    Cr6+3 0.750680 0.337130 0.748990 1.029749
Cr7   Cr    Cr6+3 0.249320 0.337130 0.251010 1.029620
Cr8   Cr    Cr6+3 0.378160 0.960100 0.750430 1.031772
Cr9   Cr    Cr6+3 0.621840 0.960100 0.249570 1.032303
Cr10  Cr    Cr6+3 0.878160 0.460100 0.750430 1.031774
Cr11  Cr    Cr6+3 0.121840 0.460100 0.249570 1.032302
Cr12  Cr    Cr6+3 0.376090 0.707720 0.749670 1.031362
H1    H     H_    0.451991 0.966182 0.045617 0.121002
H2    H     H_    0.561820 0.709994 0.464326 0.111638
H3    H     H_    0.049863 0.212674 0.550132 0.109824
H4    H     H_    0.061759 0.209904 0.464318 0.111620
H5    H     H_    0.456138 0.968438 0.451334 0.110078
H6    H     H_    0.444173 0.971158 0.537326 0.112484
H7    H     H_    0.956196 0.468525 0.451341 0.110067
H8    H     H_    0.944233 0.471242 0.537334 0.112471
H9    H     H_    0.186820 0.697182 0.539371 0.111708
H10   H     H_    0.814658 0.693695 0.460388 0.110914
H11   H     H_    0.686818 0.197173 0.539371 0.111713
H12   H     H_    0.547168 0.967191 0.954416 0.121170
H13   H     H_    0.314667 0.193670 0.460384 0.110916
H14   H     H_    0.182233 0.680450 0.453734 0.110269
H15   H     H_    0.819321 0.677193 0.546024 0.108071
H16   H     H_    0.682230 0.180442 0.453735 0.110271
H17   H     H_    0.319331 0.177168 0.546020 0.108072
H18   H     H_    0.325519 0.492703 0.546477 0.105134
H19   H     H_    0.672472 0.496738 0.453877 0.103924
H20   H     H_    0.825523 0.992709 0.546476 0.105133
H21   H     H_    0.172474 0.996729 0.453875 0.103922
H22   H     H_    0.438730 0.965579 0.965608 0.122661
H23   H     H_    0.951895 0.466055 0.045625 0.120983
H24   H     H_    0.560438 0.966655 0.034428 0.122835
H25   H     H_    0.938633 0.465449 0.965617 0.122637
H26   H     H_    0.060344 0.466786 0.034437 0.122875
H27   H     H_    0.585664 0.853404 0.950390 0.108683
H28   H     H_    0.414269 0.851659 0.049601 0.108710
H29   H     H_    0.085658 0.353626 0.950389 0.108685
H30   H     H_    0.914263 0.351440 0.049601 0.108708
H31   H     H_    0.598150 0.852225 0.030355 0.104847
H32   H     H_    0.401788 0.850437 0.969639 0.104835
H33   H     H_    0.098146 0.352445 0.030354 0.104857
H34   H     H_    0.047070 0.467323 0.954425 0.121200
H35   H     H_    0.901783 0.350216 0.969639 0.104829
H36   H     H_    0.456670 0.688240 0.963625 0.121334
H37   H     H_    0.544379 0.688995 0.036302 0.121047
H38   H     H_    0.956793 0.188150 0.963611 0.121316
H39   H     H_    0.044502 0.189085 0.036288 0.121043
H40   H     H_    0.532517 0.689496 0.956345 0.119454
H41   H     H_    0.468529 0.688782 0.043583 0.119730
H42   H     H_    0.032641 0.189589 0.956331 0.119448
H43   H     H_    0.968651 0.188692 0.043569 0.119722
H44   H     H_    0.317385 0.710249 0.968839 0.098194
H45   H     H_    0.199733 0.471291 0.944598 0.102190
H46   H     H_    0.681792 0.709034 0.031172 0.098133
H47   H     H_    0.817590 0.209903 0.968830 0.098206
H48   H     H_    0.181879 0.209147 0.031171 0.098125
H49   H     H_    0.308159 0.687628 0.054348 0.101844
H50   H     H_    0.691026 0.686433 0.945661 0.101769
H51   H     H_    0.808360 0.187298 0.054342 0.101851
H52   H     H_    0.191111 0.186541 0.945660 0.101770
H53   H     H_    0.190847 0.448338 0.030050 0.098006
H54   H     H_    0.810039 0.449488 0.969959 0.097919
H55   H     H_    0.690629 0.948667 0.030055 0.098020
H56   H     H_    0.801140 0.472415 0.055408 0.102119
H57   H     H_    0.309943 0.949391 0.969958 0.097901
H58   H     H_    0.396449 0.287803 0.428882 0.153210
H59   H     H_    0.443969 0.392345 0.425384 0.158144
H60   H     H_    0.451643 0.304732 0.472641 0.139007
H61   H     H_    0.405365 0.459224 0.499635 0.164594
H62   H     H_    0.358856 0.353480 0.505260 0.154674
H63   H     H_    0.309144 0.398649 0.430703 0.153638
H64   H     H_    0.356702 0.500912 0.422775 0.153291
H65   H     H_    0.601454 0.291360 0.570881 0.155285
H66   H     H_    0.554730 0.396871 0.575700 0.156652
H67   H     H_    0.699520 0.971603 0.944602 0.102201
H68   H     H_    0.545642 0.310949 0.527910 0.140686
H69   H     H_    0.592586 0.464500 0.501050 0.159167
H70   H     H_    0.638694 0.358235 0.494983 0.156257
H71   H     H_    0.688491 0.402133 0.569898 0.154958
H72   H     H_    0.641867 0.505902 0.577395 0.148893
H73   H     H_    0.896455 0.787805 0.428888 0.153210
H74   H     H_    0.943969 0.892355 0.425378 0.158143
H75   H     H_    0.951655 0.804757 0.472640 0.139001
H76   H     H_    0.905372 0.959242 0.499631 0.164593
H77   H     H_    0.858866 0.853495 0.505262 0.154671
H78   H     H_    0.301047 0.972323 0.055407 0.102114
H79   H     H_    0.809148 0.898649 0.430705 0.153635
H80   H     H_    0.856702 0.000916 0.422773 0.153291
H81   H     H_    0.101446 0.791344 0.570868 0.155281
H82   H     H_    0.054739 0.896876 0.575709 0.156650
H83   H     H_    0.045624 0.810982 0.527908 0.140679
H84   H     H_    0.092584 0.964516 0.501054 0.159161
H85   H     H_    0.138681 0.858240 0.494977 0.156252
H86   H     H_    0.188494 0.902109 0.569890 0.154951
H87   H     H_    0.141878 0.005886 0.577397 0.148895
H88   H     H_    0.549922 0.712766 0.550140 0.109835
O1    O     O_R   0.237900 0.735050 0.799950 -0.505267
O2    O     O_R   0.566580 0.739640 0.301090 -0.507817
O3    O     O_R   0.933420 0.239640 0.698910 -0.507244
O4    O     O_R   0.066580 0.239640 0.301090 -0.507818
O5    O     O_R   0.323550 0.666510 0.701520 -0.494542
O6    O     O_R   0.676450 0.666510 0.298480 -0.495037
O7    O     O_R   0.823550 0.166510 0.701520 -0.494542
O8    O     O_R   0.176450 0.166510 0.298480 -0.495037
O9    O     O_3   0.334980 0.834990 0.749700 -0.251820
O10   O     O_3   0.665020 0.834990 0.250300 -0.251824
O11   O     O_3   0.834980 0.334990 0.749700 -0.251820
O12   O     O_R   0.762100 0.735050 0.200050 -0.505324
O13   O     O_3   0.165020 0.334990 0.250300 -0.251823
O14   O     O_R   0.256160 0.936210 0.796950 -0.494463
O15   O     O_R   0.743840 0.936210 0.203050 -0.494396
O16   O     O_R   0.756160 0.436210 0.796950 -0.494463
O17   O     O_R   0.243840 0.436210 0.203050 -0.494397
O18   O     O_R   0.333710 0.029860 0.801630 -0.506502
O19   O     O_R   0.666290 0.029860 0.198370 -0.506655
O20   O     O_R   0.833710 0.529860 0.801630 -0.506501
O21   O     O_R   0.166290 0.529860 0.198370 -0.506655
O22   O     O_R   0.425340 0.901920 0.798280 -0.495335
O23   O     O_R   0.737900 0.235050 0.799950 -0.505267
O24   O     O_R   0.574660 0.901920 0.201720 -0.495483
O25   O     O_R   0.925340 0.401920 0.798280 -0.495334
O26   O     O_R   0.074660 0.401920 0.201720 -0.495482
O27   O     O_R   0.433530 0.738890 0.801610 -0.507445
O28   O     O_R   0.566470 0.738890 0.198390 -0.507178
O29   O     O_R   0.933530 0.238890 0.801610 -0.507447
O30   O     O_R   0.066470 0.238890 0.198390 -0.507180
O31   O     O_R   0.323650 0.665810 0.796720 -0.495036
O32   O     O_R   0.676350 0.665810 0.203280 -0.494917
O33   O     O_R   0.823650 0.165810 0.796720 -0.495037
O34   O     O_R   0.262100 0.235050 0.200050 -0.505325
O35   O     O_R   0.176350 0.165810 0.203280 -0.494918
O36   O     O_R   0.237790 0.735800 0.697250 -0.510044
O37   O     O_R   0.762210 0.735800 0.302750 -0.510152
O38   O     O_R   0.737790 0.235800 0.697250 -0.510045
O39   O     O_R   0.262210 0.235800 0.302750 -0.510152
O40   O     O_R   0.256050 0.936910 0.701750 -0.497605
O41   O     O_R   0.743950 0.936910 0.298250 -0.497813
O42   O     O_R   0.756050 0.436910 0.701750 -0.497606
O43   O     O_R   0.243950 0.436910 0.298250 -0.497811
O44   O     O_R   0.333600 0.030610 0.698930 -0.506562
O45   O     O_R   0.425240 0.902610 0.703070 -0.494696
O46   O     O_R   0.666400 0.030610 0.301070 -0.505768
O47   O     O_R   0.833600 0.530610 0.698930 -0.506561
O48   O     O_R   0.166400 0.530610 0.301070 -0.505768
O49   O     O_R   0.574760 0.902610 0.296930 -0.494045
O50   O     O_R   0.925240 0.402610 0.703070 -0.494696
O51   O     O_R   0.074760 0.402610 0.296930 -0.494045
O52   O     O_R   0.433420 0.739640 0.698910 -0.507243

loop_
_geom_bond_atom_site_label_1
_geom_bond_atom_site_label_2
_ccdc_geom_bond_type
C72   C112  T    
C95   O17   A    
C87   C91   A    
C8    C145  A    
Cr7   O13   S    
C49   H1    S    
Cr8   O18   S    
C153  O35   A    
C124  C133  A    
C43   H22   S    
C149  O31   A    
C13   C139  S    
C121  C140  T    
C41   C143  S    
C82   H52   S    
C42   O39   A    
C34   C119  S    
C88   H45   S    
C91   C96   A    
C32   O42   A    
C39   C141  S    
C78   C96   A    
C44   H31   S    
C56   H63   S    
Cr9   O19   S    
Cr10  O20   S    
C68   C128  S    
C152  O23   A    
C97   C105  S    
C63   H80   S    
C16   C157  A    
C100  C109  S    
C23   C143  T    
C149  O1    A    
C109  C118  T    
C61   H69   S    
C44   H24   S    
C90   C94   A    
Cr5   O10   S    
C47   H33   S    
C48   H27   S    
Cr4   O13   S    
C86   C90   A    
C48   H12   S    
C81   C99   A    
C132  C137  S    
C87   H57   S    
C41   O38   A    
C78   C82   A    
C16   C20   S    
Cr5   O15   S    
C86   C99   A    
Cr6   O16   S    
C37   C121  S    
C101  O22   A    
Cr1   O36   S    
C84   O16   A    
C41   O7    A    
C2    H36   S    
C60   H71   S    
C79   C97   A    
C12   C154  A    
C6    C160  A    
C39   O5    A    
C129  H6    S    
Cr2   O32   S    
C13   H43   S    
C130  C131  A    
C15   C160  A    
C51   H23   S    
Cr8   O9    S    
Cr4   O30   S    
C30   O40   A    
Cr4   O4    S    
C46   C53   T    
Cr1   O1    S    
C74   C153  S    
Cr7   O43   S    
Cr8   O44   S    
C155  H15   S    
C95   C114  S    
C75   C79   A    
Cr4   O35   S    
C44   C48   S    
C104  O26   A    
C91   H78   S    
C2    C150  S    
C65   H74   S    
C32   O47   A    
Cr5   O12   S    
C123  C132  A    
Cr6   O11   S    
Cr11  O26   S    
C59   H59   S    
C123  C124  A    
C67   H84   S    
C73   O19   A    
C5    C9    A    
C99   C108  S    
C154  H14   S    
C73   C116  S    
Cr5   O37   S    
C11   C148  A    
Cr6   O42   S    
C124  H2    S    
C11   C25   S    
C45   H25   S    
C145  H9    S    
C77   C94   A    
C101  O27   A    
C151  O32   A    
C102  O28   A    
C103  O25   A    
C70   C110  T    
C24   H42   S    
C49   C117  S    
C95   O21   A    
Cr7   O17   S    
C51   H30   S    
C66   C67   S    
Cr9   O10   S    
C86   H55   S    
Cr6   O23   S    
C69   H82   S    
C47   C50   S    
C48   C106  S    
Cr11  O48   S    
C84   O20   A    
Cr8   O45   S    
C4    H18   S    
C5    H19   S    
C31   O41   A    
C53   C101  S    
C77   H47   S    
C2    C106  S    
Cr3   O11   S    
C43   C106  S    
C127  C129  A    
C34   O52   A    
C29   C30   S    
Cr11  O13   S    
C26   C33   S    
C64   H76   S    
C22   C142  T    
C47   H26   S    
C19   C28   T    
C1    O14   A    
C145  C154  A    
C50   H34   S    
Cr10  O25   S    
C89   H56   S    
C6    H20   S    
C87   C100  A    
C36   O49   A    
C76   C80   A    
C66   H86   S    
C131  H8    S    
C153  O34   A    
Cr12  O52   S    
C14   C159  A    
C152  O33   A    
Cr9   O49   S    
C80   C98   A    
C46   C106  S    
C94   C112  S    
C56   C58   S    
C83   C88   A    
C148  C157  A    
C89   C93   A    
C61   C62   S    
C80   H50   S    
C63   C64   S    
C25   C144  T    
Cr10  O11   S    
C24   C128  S    
C56   H64   S    
C12   C158  A    
Cr1   O40   S    
C3    C16   A    
C54   C57   T    
C40   O6    A    
C125  C134  A    
C63   H79   S    
C13   H39   S    
C130  C135  A    
C60   C159  S    
C131  C134  A    
C55   C68   T    
C15   C19   S    
Cr4   O8    S    
C52   C102  S    
C90   H67   S    
C37   O50   A    
C54   C104  S    
C40   O37   A    
C3    C7    A    
C33   O43   A    
C151  O12   A    
Cr2   O2    S    
C45   C128  S    
C62   H68   S    
C57   C139  S    
C150  H41   S    
C14   C18   S    
C78   H48   S    
C71   C151  S    
C146  C155  A    
C76   H46   S    
C72   C152  S    
C12   C17   S    
C79   H49   S    
C129  C132  A    
C58   H61   S    
Cr7   O34   S    
C70   C149  S    
Cr3   O33   S    
Cr6   O38   S    
C156  H16   S    
C60   H72   S    
C146  H10   S    
C127  H5    S    
C102  O24   A    
C122  C138  T    
C24   H38   S    
Cr1   O9    S    
C148  H13   S    
C74   C113  T    
Cr2   O6    S    
C98   C107  S    
C60   C61   S    
C120  C136  T    
C36   O2    A    
Cr12  O5    S    
C76   C93   A    
C77   C81   A    
C33   O48   A    
C147  C156  A    
C62   H65   S    
C67   H85   S    
C93   C111  S    
C126  C135  A    
C42   C144  S    
C125  C126  A    
C96   C113  S    
C3    C66   S    
C50   C128  S    
C50   H29   S    
C61   H70   S    
C65   H73   S    
C85   C89   A    
Cr3   O7    S    
C27   C32   S    
C28   C31   S    
C38   O51   A    
C127  C133  A    
C58   H62   S    
C6    C10   A    
C123  H88   S    
C2    H40   S    
C62   H66   S    
C64   C65   S    
C108  C116  T    
C58   C59   S    
C21   C141  T    
C1    O18   A    
Cr8   O22   S    
C36   C120  S    
C103  O29   A    
Cr1   O14   S    
C64   H77   S    
Cr9   O46   S    
C83   C97   A    
C47   C139  S    
C35   C52   T    
C135  C138  S    
C40   C142  S    
C14   C155  A    
C9    C146  A    
C4    C8    A    
C92   C110  S    
C69   H81   S    
Cr10  O50   S    
C7    C11   A    
C17   C26   T    
C134  C140  S    
C9    C22   S    
C45   C51   S    
C31   O46   A    
C55   C103  S    
C75   H44   S    
Cr11  O51   S    
C34   O45   A    
C56   C158  S    
C85   C98   A    
C4    C158  A    
C88   C92   A    
C5    C159  A    
C71   C111  T    
C133  C136  S    
C117  C150  S    
C7    H21   S    
C10   C147  A    
C65   H75   S    
C45   H35   S    
C63   C160  S    
C59   H60   S    
C20   C29   T    
C104  O30   A    
C81   H51   S    
C119  C137  T    
C150  H37   S    
C105  C114  T    
C66   H87   S    
Cr12  O27   S    
C43   C49   S    
C13   C24   S    
C67   C69   S    
C37   O3    A    
C38   O4    A    
Cr10  O47   S    
C8    C21   S    
C38   C122  S    
C107  C115  T    
C15   C156  A    
Cr3   O29   S    
C75   C92   A    
C30   O44   A    
C84   C115  S    
C35   C117  S    
C42   O8    A    
C125  H3    S    
C43   H32   S    
C126  H4    S    
C69   H83   S    
C83   H53   S    
C147  H11   S    
Cr2   O10   S    
Cr7   O39   S    
C82   C100  A    
C18   C27   T    
Cr12  O9    S    
Cr12  O31   S    
C10   C23   S    
Cr9   O24   S    
C44   C117  S    
C73   O15   A    
C1    C118  S    
C157  H17   S    
C130  H7    S    
Cr5   O41   S    
Cr3   O3    S    
C39   O36   A    
C85   H54   S    
Cr11  O21   S    
C59   H58   S    
C51   C139  S    
C49   H28   S    
Cr2   O28   S    
