data_mof_unit_35599.cif
_audit_creation_date              2012-10-26T19:30:11-0400
_audit_creation_method            fapswitch 2.2
_symmetry_space_group_name_H-M    P1
_symmetry_Int_Tables_number       1
_space_group_crystal_system       triclinic
_cell_length_a                    15.861857
_cell_length_b                    10.623217
_cell_length_c                    9.421834
_cell_angle_alpha                 89.633733
_cell_angle_beta                  90.15124
_cell_angle_gamma                 89.994664
_cell_volume                      1587.57825594

loop_
_atom_site_label
_atom_site_type_symbol
_atom_type_description
_atom_site_fract_x
_atom_site_fract_y
_atom_site_fract_z
_atom_type_partial_charge
C1    C     C_R   0.500027 0.259393 0.500441 0.551066
C2    C     C_3   0.482482 0.389341 0.950283 -0.007625
C3    C     C_3   0.444621 0.578009 0.948509 -0.005084
C4    C     C_3   0.555379 0.421991 0.051491 -0.005084
C5    C     C_3   0.572966 0.532616 0.949710 -0.006164
C6    C     C_3   0.427034 0.467384 0.050290 -0.006164
C7    C     C_R   0.339932 0.500091 0.499836 0.546604
C8    C     C_R   0.660068 0.499909 0.500164 0.546604
C9    C     C_3   0.972529 0.419065 0.601898 -0.133864
C10   C     C_3   0.027471 0.580935 0.398102 -0.133863
C11   C     C_3   0.027942 0.385968 0.473125 0.310465
C12   C     C_R   0.499973 0.740607 0.499559 0.551066
C13   C     C_3   0.972058 0.614032 0.526875 0.310465
C14   C     C_1   0.250197 0.500607 0.499574 -0.025567
C15   C     C_1   0.749803 0.499393 0.500426 -0.025567
C16   C     C_3   0.028181 0.536988 0.629298 -0.132993
C17   C     C_3   0.971819 0.463012 0.370702 -0.132992
C18   C     C_3   0.082925 0.501664 0.500004 0.025837
C19   C     C_3   0.917075 0.498336 0.499996 0.025837
C20   C     C_1   0.174626 0.501121 0.499646 -0.025712
C21   C     C_1   0.825374 0.498879 0.500354 -0.025711
C22   C     C_3   0.500427 0.039548 0.635212 -0.113982
C23   C     C_3   0.569466 0.957409 0.566577 -0.122868
C24   C     C_3   0.499573 0.960452 0.364788 -0.113982
C25   C     C_3   0.999422 0.178067 0.426272 -0.124163
C26   C     C_3   0.000578 0.821932 0.573731 -0.124164
C27   C     C_3   0.430534 0.042591 0.433423 -0.122868
C28   C     C_3   0.499980 0.877595 0.498677 0.044715
C29   C     C_3   0.500020 0.122405 0.501322 0.044715
C30   C     C_3   0.430940 0.957463 0.567190 -0.124692
C31   C     C_3   0.569060 0.042537 0.432810 -0.124692
C32   C     C_3   0.517518 0.610659 0.049716 -0.007625
Cu1   Cu    Cu3+1 0.500020 0.499990 0.643150 0.926466
Cu2   Cu    Cu3+1 0.499980 0.500010 0.356850 0.926466
H1    H     H_    0.948835 0.352297 0.683643 0.103055
H2    H     H_    0.625545 0.080528 0.377956 0.106887
H3    H     H_    0.398078 0.643712 0.900284 0.101464
H4    H     H_    0.601922 0.356288 0.099716 0.101464
H5    H     H_    0.532462 0.703956 0.095806 0.101739
H6    H     H_    0.467538 0.296043 0.904194 0.101739
H7    H     H_    0.634437 0.560450 0.903052 0.111948
H8    H     H_    0.365563 0.439550 0.096948 0.111948
H9    H     H_    0.957702 0.203490 0.335468 0.112363
H10   H     H_    0.961877 0.165781 0.524890 0.106686
H11   H     H_    0.028713 0.085949 0.401784 0.133438
H12   H     H_    0.051165 0.647703 0.316357 0.103055
H13   H     H_    0.038126 0.834218 0.475117 0.106686
H14   H     H_    0.042295 0.796508 0.664540 0.112363
H15   H     H_    0.971287 0.914050 0.598217 0.133438
H16   H     H_    0.947564 0.431499 0.266177 0.104365
H17   H     H_    0.052436 0.568501 0.733823 0.104364
H18   H     H_    0.626298 0.919382 0.620891 0.116455
H19   H     H_    0.373702 0.080618 0.379109 0.116455
H20   H     H_    0.500784 0.074474 0.746027 0.110682
H21   H     H_    0.499216 0.925526 0.253973 0.110682
H22   H     H_    0.374455 0.919472 0.622044 0.106887
N1    N     N_3   0.500060 0.499970 0.858290 -0.228848
N2    N     N_3   0.499940 0.500030 0.141710 -0.228848
O1    O     O_R   0.500040 0.316850 0.620870 -0.507958
O2    O     O_3   0.935965 0.732588 0.555188 -0.555284
O3    O     O_R   0.499960 0.683150 0.379130 -0.507958
O4    O     O_R   0.500000 0.316860 0.379090 -0.503281
O5    O     O_R   0.500000 0.683140 0.620910 -0.503281
O6    O     O_R   0.379090 0.499980 0.620870 -0.497211
O7    O     O_R   0.620910 0.500020 0.379130 -0.497211
O8    O     O_R   0.379060 0.499990 0.379090 -0.498936
O9    O     O_R   0.620940 0.500010 0.620910 -0.498936
O10   O     O_3   0.064035 0.267412 0.444811 -0.555284

loop_
_geom_bond_atom_site_label_1
_geom_bond_atom_site_label_2
_ccdc_geom_bond_type
C11   C18   S    
C22   C29   S    
C27   C29   S    
C6    N2    S    
C24   C27   S    
C32   N2    S    
C3    C6    S    
C1    O4    A    
C25   H9    S    
C2    N1    S    
C22   H20   S    
C13   O2    S    
C24   H21   S    
C12   C28   S    
C19   C21   S    
C9    C16   S    
C1    O1    A    
C10   C17   S    
Cu2   O4    S    
Cu2   O7    S    
C32   H5    S    
C9    C19   S    
C7    C14   S    
C10   H12   S    
C16   H17   S    
C26   H14   S    
C5    C32   S    
C8    O7    A    
Cu1   O1    S    
C27   C30   S    
Cu2   O8    S    
C2    C6    S    
C25   O10   S    
C25   H10   S    
C13   C19   S    
C14   C20   T    
C26   H15   S    
C12   O5    A    
C30   H22   S    
Cu2   O3    S    
C23   C31   S    
C2    C4    S    
Cu1   O5    S    
C1    C29   S    
Cu1   Cu2   S    
C23   C28   S    
C9    C11   S    
C26   H13   S    
C3    N1    S    
C4    H4    S    
C8    C15   S    
C25   H11   S    
C11   O10   S    
Cu1   O9    S    
C9    H1    S    
C5    H7    S    
C11   C17   S    
Cu1   N1    S    
C22   C30   S    
C22   C23   S    
C24   C28   S    
C4    C5    S    
C10   C13   S    
C17   H16   S    
C27   H19   S    
C5    N1    S    
C28   C30   S    
C24   C31   S    
C29   C31   S    
C7    O8    A    
C12   O3    A    
C23   H18   S    
C10   C18   S    
Cu1   O6    S    
C17   C19   S    
C18   C20   S    
C3    C32   S    
C7    O6    A    
C2    H6    S    
C15   C21   T    
C3    H3    S    
C8    O9    A    
C16   C18   S    
C6    H8    S    
C13   C16   S    
C4    N2    S    
Cu2   N2    S    
C31   H2    S    
C26   O2    S    
