data_mof_unit_60263.cif
_audit_creation_date              2012-12-10T18:55:25-0500
_audit_creation_method            fapswitch 2.2
_symmetry_space_group_name_H-M    P1
_symmetry_Int_Tables_number       1
_space_group_crystal_system       triclinic
_cell_length_a                    19.40922
_cell_length_b                    18.255438
_cell_length_c                    17.714195
_cell_angle_alpha                 89.999105
_cell_angle_beta                  90.005886
_cell_angle_gamma                 90.0
_cell_volume                      6276.56107102

loop_
_atom_site_label
_atom_site_type_symbol
_atom_type_description
_atom_site_fract_x
_atom_site_fract_y
_atom_site_fract_z
_atom_type_partial_charge
C1    C     C_R   0.367558 0.500000 0.499987 0.831326
C2    C     C_R   0.632442 0.500000 0.500013 0.830858
C3    C     C_R   0.852374 0.500000 0.500013 0.204706
C4    C     C_R   0.147634 0.500000 0.499987 0.205615
C5    C     C_R   0.708153 0.500000 0.500016 -0.069435
C6    C     C_R   0.291846 0.500000 0.499984 -0.069645
C7    C     C_R   0.963942 0.516458 0.566825 0.321668
C8    C     C_R   0.036093 0.483534 0.433182 0.322043
C9    C     C_R   0.036115 0.516467 0.566812 0.322042
C10   C     C_R   0.963920 0.483542 0.433181 0.321666
C11   C     C_R   0.072117 0.500000 0.499994 -0.255396
C12   C     C_R   0.927905 0.500000 0.500006 -0.256367
C13   C     C_R   0.465139 0.721990 0.445159 0.402525
C14   C     C_R   0.534864 0.278013 0.445167 0.402050
C15   C     C_R   0.534865 0.721986 0.554840 0.402051
C16   C     C_R   0.465139 0.278010 0.554834 0.402525
C17   C     C_R   0.472098 0.799037 0.438677 0.283242
C18   C     C_R   0.527907 0.200966 0.438682 0.282988
C19   C     C_R   0.527908 0.799033 0.561324 0.282987
C20   C     C_R   0.472099 0.200963 0.561317 0.283243
C21   C     C_R   0.500003 0.839126 0.500001 -0.154571
C22   C     C_R   0.500003 0.160873 0.499999 -0.154571
C23   C     C_R   0.562577 0.961390 0.497482 0.361453
C24   C     C_R   0.437430 0.038610 0.497467 0.361513
C25   C     C_R   0.437430 0.961390 0.502520 0.361513
C26   C     C_R   0.562577 0.038610 0.502531 0.361453
C27   C     C_R   0.500003 0.078220 0.499998 -0.065502
C28   C     C_R   0.500003 0.921779 0.500002 -0.065502
C29   C     C_R   0.500000 0.500000 0.355472 0.830452
C30   C     C_R   0.500000 0.500000 0.644528 0.830452
C31   C     C_R   0.495392 0.566224 0.846296 -0.112844
C32   C     C_R   0.495392 0.433776 0.153703 -0.112845
C33   C     C_R   0.504608 0.566225 0.153701 -0.113743
C34   C     C_R   0.504609 0.433775 0.846300 -0.113743
C35   C     C_R   0.495359 0.566314 0.767613 -0.116565
C36   C     C_R   0.495359 0.433686 0.232385 -0.116565
C37   C     C_R   0.504641 0.566316 0.232384 -0.118248
C38   C     C_R   0.504641 0.433684 0.767617 -0.118248
C39   C     C_R   0.500000 0.499999 0.727551 -0.064869
C40   C     C_R   0.500000 0.500001 0.272448 -0.064869
C41   C     C_R   0.500000 0.500000 0.885527 0.114660
C42   C     C_R   0.500000 0.500000 0.114473 0.114661
C43   C     C_1   0.500000 0.500000 0.966155 -0.005547
C44   C     C_1   0.500000 0.500000 0.033845 -0.005547
C45   C     C_R   0.744662 0.433503 0.499526 -0.132314
C46   C     C_R   0.255335 0.566496 0.499250 -0.131975
C47   C     C_R   0.255336 0.433504 0.500717 -0.131973
C48   C     C_R   0.744662 0.566496 0.500506 -0.132320
C49   C     C_R   0.816422 0.433574 0.499541 -0.046604
C50   C     C_R   0.183575 0.566424 0.499236 -0.046178
C51   C     C_R   0.183575 0.433576 0.500735 -0.046176
C52   C     C_R   0.816422 0.566426 0.500488 -0.046607
Cu1   Cu    Cu3+1 0.500000 0.573360 0.500000 1.065940
Cu2   Cu    Cu3+1 0.500000 0.426640 0.500000 1.065940
H1    H     H_    0.491771 0.617702 0.876500 0.162737
H2    H     H_    0.491771 0.382298 0.123498 0.162737
H3    H     H_    0.508229 0.617702 0.123496 0.162615
H4    H     H_    0.508229 0.382298 0.876506 0.162615
H5    H     H_    0.491498 0.618205 0.738304 0.211096
H6    H     H_    0.491498 0.381795 0.261694 0.211097
H7    H     H_    0.508502 0.618206 0.261692 0.210999
H8    H     H_    0.508503 0.381794 0.738310 0.210999
H9    H     H_    0.717887 0.381460 0.499151 0.200606
H10   H     H_    0.282111 0.618537 0.498663 0.200946
H11   H     H_    0.282110 0.381463 0.501304 0.200949
H12   H     H_    0.717887 0.618540 0.500882 0.200604
H13   H     H_    0.844020 0.381993 0.499236 0.174975
H14   H     H_    0.155970 0.617999 0.498594 0.174711
H15   H     H_    0.155970 0.382002 0.501380 0.174712
H16   H     H_    0.844021 0.618007 0.500791 0.174974
N1    N     N_R   0.500000 0.683620 0.500000 -0.291360
N2    N     N_R   0.500000 0.316380 0.500000 -0.291359
O1    O     O_R   0.400190 0.561980 0.499990 -0.550622
O2    O     O_R   0.599810 0.438020 0.500010 -0.551009
O3    O     O_R   0.599810 0.561980 0.500010 -0.551009
O4    O     O_R   0.400190 0.438020 0.499990 -0.550622
O5    O     O_R   0.500000 0.561980 0.391260 -0.547249
O6    O     O_R   0.500000 0.438020 0.608740 -0.547248
O7    O     O_R   0.500000 0.561980 0.608740 -0.546961
O8    O     O_R   0.500000 0.438020 0.391260 -0.546961
Cl1   Cl    Cl    0.918635 0.535623 0.651170 -0.431843
Cl2   Cl    Cl    0.081438 0.464263 0.348889 -0.435578
Cl3   Cl    Cl    0.081488 0.535737 0.651097 -0.435588
Cl4   Cl    Cl    0.918585 0.464377 0.348843 -0.431850
Cl5   Cl    Cl    0.406624 0.676982 0.384674 -0.489190
Cl6   Cl    Cl    0.593386 0.323025 0.384703 -0.485383
Cl7   Cl    Cl    0.593387 0.676975 0.615317 -0.485378
Cl8   Cl    Cl    0.406625 0.323018 0.615306 -0.489195
S1    S     S_3+6 0.448230 0.842376 0.352209 0.114145
O9    O     O_2   0.371390 0.852323 0.350339 -0.166098
O10   O     O_2   0.482677 0.915532 0.342843 -0.232249
O11   O     O_3   0.471778 0.788522 0.279584 -0.489623
H17   H     H_    0.451755 0.812096 0.234247 0.392045
S2    S     S_3+6 0.551778 0.157634 0.352219 0.115064
O12   O     O_2   0.628618 0.147689 0.350367 -0.164613
O13   O     O_2   0.517333 0.084477 0.342843 -0.232287
O14   O     O_3   0.528228 0.211491 0.279590 -0.488905
H18   H     H_    0.548260 0.187925 0.234258 0.392255
S3    S     S_3+6 0.551780 0.842366 0.647791 0.115064
O15   O     O_2   0.628620 0.852311 0.649659 -0.164609
O16   O     O_2   0.517335 0.915523 0.657161 -0.232291
O17   O     O_3   0.528232 0.788508 0.720416 -0.488906
H19   H     H_    0.548260 0.812077 0.765752 0.392256
S4    S     S_3+6 0.448232 0.157624 0.647780 0.114145
O18   O     O_2   0.371392 0.147676 0.649634 -0.166100
O19   O     O_2   0.482680 0.084468 0.657154 -0.232249
O20   O     O_3   0.471781 0.211479 0.720410 -0.489623
H20   H     H_    0.451759 0.187904 0.765742 0.392045
Cl9   Cl    Cl    0.641515 0.914567 0.485569 -0.380342
Cl10  Cl    Cl    0.358491 0.085433 0.485536 -0.379277
Cl11  Cl    Cl    0.358492 0.914567 0.514435 -0.379278
Cl12  Cl    Cl    0.641515 0.085433 0.514460 -0.380341

loop_
_geom_bond_atom_site_label_1
_geom_bond_atom_site_label_2
_ccdc_geom_bond_type
C29   O5    A    
C14   C18   A    
Cu1   O5    S    
C16   N2    A    
C24   C27   A    
S4    O19   D    
O14   H18   S    
C3    C49   A    
Cu1   Cu2   S    
C25   C28   A    
C15   C19   A    
C26   C27   A    
C8    Cl2   S    
C33   C42   A    
C32   C36   A    
Cu1   O7    S    
C37   C40   A    
C6    C46   A    
C38   C39   A    
C34   H4    S    
C35   H5    S    
C23   C26   A    
C3    C12   S    
Cu2   O2    S    
O20   H20   S    
S1    O10   D    
C31   C41   A    
C2    O2    A    
C18   C22   A    
C41   C43   S    
Cu1   O3    S    
C34   C41   A    
C42   C44   S    
S4    O18   D    
Cu2   O8    S    
C7    C12   A    
C23   Cl9   S    
C5    C48   A    
C6    C47   A    
C4    C51   A    
C1    C6    S    
C36   C40   A    
C24   Cl10  S    
C24   C25   A    
C14   Cl6   S    
C19   S3    S    
C47   C51   A    
C13   N1    A    
S2    O14   S    
C38   H8    S    
C5    C45   A    
C45   H9    S    
C33   C37   A    
C4    C50   A    
C4    C11   S    
C35   C39   A    
C43   C44   T    
C19   C21   A    
S3    O15   D    
C45   C49   A    
C16   C20   A    
C17   S1    S    
S2    O12   D    
C46   H10   S    
C23   C28   A    
S1    O11   S    
S2    O13   D    
C9    C11   A    
C10   C12   A    
C9    Cl3   S    
Cu2   O4    S    
C30   O7    A    
S3    O16   D    
C21   C28   S    
C20   C22   A    
C22   C27   S    
C18   S2    S    
C31   C35   A    
C2    C5    S    
Cu1   N1    S    
C26   Cl12  S    
C15   Cl7   S    
C7    C9    A    
C33   H3    S    
C49   H13   S    
C7    Cl1   S    
C34   C38   A    
C1    O4    A    
C14   N2    A    
Cu1   O1    S    
C36   H6    S    
C37   H7    S    
C3    C52   A    
C20   S4    S    
C15   N1    A    
C46   C50   A    
C13   C17   A    
C1    O1    A    
C31   H1    S    
C29   O8    A    
C8    C11   A    
C29   C40   S    
C10   Cl4   S    
O11   H17   S    
C32   H2    S    
C30   C39   S    
O17   H19   S    
C17   C21   A    
C52   H16   S    
C25   Cl11  S    
C30   O6    A    
C48   C52   A    
S3    O17   S    
Cu2   N2    S    
C8    C10   A    
C13   Cl5   S    
C16   Cl8   S    
C32   C42   A    
C51   H15   S    
C48   H12   S    
S1    O9    D    
C50   H14   S    
C47   H11   S    
S4    O20   S    
C2    O3    A    
Cu2   O6    S    
