data_mof_unit_35395.cif
_audit_creation_date              2012-12-10T20:42:40-0500
_audit_creation_method            fapswitch 2.2
_symmetry_space_group_name_H-M    P1
_symmetry_Int_Tables_number       1
_space_group_crystal_system       triclinic
_cell_length_a                    8.902506
_cell_length_b                    10.720998
_cell_length_c                    9.88205
_cell_angle_alpha                 90.72246
_cell_angle_beta                  90.352931
_cell_angle_gamma                 91.118816
_cell_volume                      942.905763535

loop_
_atom_site_label
_atom_site_type_symbol
_atom_type_description
_atom_site_fract_x
_atom_site_fract_y
_atom_site_fract_z
_atom_type_partial_charge
C1    C     C_R   0.497235 0.260323 0.499108 0.878040
C2    C     C_R   0.462317 0.933300 0.380987 -0.215954
C3    C     C_R   0.505829 0.872120 0.499566 -0.159412
C4    C     C_R   0.565600 0.940435 0.609171 0.126012
C5    C     C_3   0.534261 0.937812 0.758586 0.329070
C6    C     C_3   0.522368 0.079412 0.752878 -0.576610
C7    C     C_R   0.406760 0.420591 0.069355 0.204549
C8    C     C_R   0.605418 0.565733 0.073974 -0.281775
C9    C     C_R   0.610214 0.561730 0.929177 0.498055
C10   C     C_R   0.406983 0.420443 0.927277 0.126953
C11   C     C_3   0.240262 0.412309 0.919181 -0.510967
C12   C     C_R   0.218751 0.499900 0.499730 0.924508
C13   C     C_3   0.239284 0.414363 0.073175 -0.496724
C14   C     C_R   0.500150 0.739918 0.500659 0.877785
C15   C     C_R   0.781252 0.500416 0.500291 0.945292
C16   C     C_1   0.065417 0.500131 0.499640 -0.226726
C17   C     C_1   0.934593 0.500338 0.500395 -0.219687
C18   C     C_R   0.560481 0.067526 0.607232 0.062211
C19   C     C_R   0.502976 0.128772 0.496304 -0.076159
C20   C     C_R   0.460773 0.061920 0.379456 -0.255301
H1    H     H_    0.421179 0.108236 0.289524 0.165358
H2    H     H_    0.200056 0.321890 0.874610 0.198486
H3    H     H_    0.190080 0.500165 0.117188 0.211548
H4    H     H_    0.196717 0.325602 0.117058 0.197596
H5    H     H_    0.423180 0.882330 0.291733 0.170115
H6    H     H_    0.428911 0.886037 0.784819 0.077338
H7    H     H_    0.405994 0.112149 0.769168 0.172870
H8    H     H_    0.610696 0.133109 0.809215 0.214141
H9    H     H_    0.686928 0.621935 0.130491 0.158679
H10   H     H_    0.191522 0.495984 0.872630 0.216863
N1    N     N_R   0.499010 0.499140 0.142800 -0.119545
N2    N     N_R   0.499010 0.499180 0.857150 -0.144776
O1    O     O_R   0.500020 0.316790 0.614690 -0.620362
O2    O     O_R   0.500000 0.316760 0.385350 -0.624096
O3    O     O_R   0.285350 0.500020 0.614650 -0.629354
O4    O     O_R   0.285340 0.499980 0.385310 -0.615783
O5    O     O_R   0.500000 0.683240 0.614650 -0.586390
O6    O     O_R   0.499980 0.683210 0.385310 -0.625807
O7    O     O_R   0.714660 0.500020 0.614690 -0.587905
O8    O     O_R   0.714650 0.499980 0.385350 -0.619091
Zn1   Zn    Zn3+2 0.500010 0.500020 0.653130 0.975206
Zn2   Zn    Zn3+2 0.499990 0.499980 0.346870 0.935599
O9    O     O_3   0.663215 0.899876 0.829995 -0.592636
C21   C     C_3   0.650052 0.923289 0.970932 0.143325
H11   H     H_    0.651248 0.832261 0.022887 0.166530
H12   H     H_    0.544058 0.969745 0.001432 0.098018
C22   C     C_3   0.784882 0.003879 0.019270 -0.375497
H13   H     H_    0.889827 0.969239 0.973422 0.239494
H14   H     H_    0.771424 0.101512 0.985992 0.205568
C23   C     C_3   0.801926 0.003847 0.172847 -0.958642
H15   H     H_    0.704677 0.049800 0.219915 0.284913
H16   H     H_    0.905526 0.056880 0.202731 0.263526
H17   H     H_    0.810230 0.907046 0.210641 0.262272
O10   O     O_3   0.721132 0.626519 0.860162 -0.565121
C24   C     C_3   0.866076 0.583355 0.895533 0.112191
H18   H     H_    0.911144 0.528309 0.809523 0.169618
H19   H     H_    0.868914 0.520194 0.984378 0.065567
C25   C     C_3   0.971613 0.694515 0.926082 -0.371539
H20   H     H_    0.917032 0.757884 0.999305 0.224886
H21   H     H_    0.075728 0.661987 0.975381 0.166365
C26   C     C_3   0.014457 0.764595 0.797881 -0.779361
H22   H     H_    0.078693 0.703120 0.728945 0.237192
H23   H     H_    0.086258 0.847102 0.825029 0.214789
H24   H     H_    0.912740 0.796699 0.744163 0.314691

loop_
_geom_bond_atom_site_label_1
_geom_bond_atom_site_label_2
_ccdc_geom_bond_type
C8    C9    A    
C7    C10   A    
C23   H16   S    
N2    Zn1   S    
N1    Zn2   S    
C12   O4    A    
C19   C20   A    
C11   H2    S    
O4    Zn2   S    
C6    H7    S    
O2    Zn2   S    
C21   C22   S    
O9    C21   S    
O1    Zn1   S    
C25   C26   S    
O8    Zn2   S    
C2    C3    A    
C5    O9    S    
C1    O1    A    
O7    Zn1   S    
C20   H1    S    
C12   O3    A    
C11   C13   S    
C15   O7    A    
C2    H5    S    
C5    C6    S    
C3    C14   S    
O3    Zn1   S    
C8    H9    S    
C13   H4    S    
C21   H12   S    
C1    O2    A    
O6    Zn2   S    
C22   C23   S    
C24   H19   S    
O5    Zn1   S    
C26   H22   S    
C6    C18   S    
C15   O8    A    
C1    C19   S    
C23   H17   S    
C14   O6    A    
C10   C11   S    
C24   H18   S    
C25   H21   S    
C5    H6    S    
C26   H24   S    
C10   N2    A    
C7    C13   S    
C7    N1    A    
C21   H11   S    
C13   H3    S    
C22   H14   S    
C18   C19   A    
C24   C25   S    
C15   C17   S    
O10   C24   S    
C16   C17   T    
C9    O10   S    
C12   C16   S    
C9    N2    A    
C23   H15   S    
C25   H20   S    
C8    N1    A    
C2    C20   A    
C4    C18   A    
C26   H23   S    
C6    H8    S    
C3    C4    A    
C22   H13   S    
C11   H10   S    
C4    C5    S    
C14   O5    A    
