data_mof_unit_53214.cif
_audit_creation_date              2012-12-10T17:46:58-0500
_audit_creation_method            fapswitch 2.2
_symmetry_space_group_name_H-M    P1
_symmetry_Int_Tables_number       1
_space_group_crystal_system       triclinic
_cell_length_a                    9.960929
_cell_length_b                    10.677357
_cell_length_c                    13.59769
_cell_angle_alpha                 93.428502
_cell_angle_beta                  82.238869
_cell_angle_gamma                 88.34908
_cell_volume                      1429.39387002

loop_
_atom_site_label
_atom_site_type_symbol
_atom_type_description
_atom_site_fract_x
_atom_site_fract_y
_atom_site_fract_z
_atom_type_partial_charge
C1    C     C_R   0.499790 0.737899 0.487476 0.920281
C2    C     C_R   0.619439 0.928105 0.438831 0.098311
C3    C     C_R   0.619882 0.058156 0.450263 0.426365
C4    C     C_R   0.474980 0.500145 0.685654 0.932625
C5    C     C_R   0.503688 0.124804 0.501160 -0.281766
C6    C     C_R   0.824414 0.673264 0.623458 -0.219146
C7    C     C_R   0.870460 0.768598 0.681356 0.455928
C8    C     C_R   0.005762 0.770796 0.688275 -0.381725
C9    C     C_R   0.100537 0.682153 0.633737 0.517792
C10   C     C_R   0.055807 0.588659 0.563757 -0.072615
C11   C     C_R   0.911650 0.586860 0.561539 0.026625
C12   C     C_1   0.454606 0.502065 0.789910 -0.190174
C13   C     C_R   0.942224 0.417495 0.441018 -0.209463
C14   C     C_R   0.086028 0.418561 0.439084 0.552813
C15   C     C_R   0.501006 0.259794 0.503654 0.945221
C16   C     C_R   0.525053 0.499191 0.314304 0.850551
C17   C     C_1   0.544231 0.500762 0.210212 -0.183857
C18   C     C_2   0.551241 0.504523 0.018651 -0.274304
C19   C     C_2   0.432450 0.503183 0.983762 0.587134
C20   C     C_1   0.440150 0.503100 0.878118 -0.170231
C21   C     C_1   0.553383 0.502552 0.122313 0.068323
C22   C     C_3   0.195788 0.496416 0.000187 -0.325772
C23   C     C_R   0.245053 0.894847 0.475282 -0.085751
C24   C     C_3   0.711304 0.927802 0.683117 -0.305810
C25   C     C_3   0.271979 0.773842 0.719409 -0.316356
C26   C     C_3   0.160157 0.346934 0.278661 -0.267034
C27   C     C_3   0.747028 0.787899 0.307184 -0.718640
C28   C     C_3   0.343388 0.180328 0.742912 -0.855399
C29   C     C_3   0.728996 0.143406 0.314104 -0.283707
C30   C     C_R   0.127262 0.961618 0.518033 -0.175626
C31   C     C_R   0.136510 0.069412 0.578990 -0.192310
C32   C     C_R   0.263699 0.118672 0.587980 0.299978
C33   C     C_R   0.381428 0.062665 0.528072 -0.000321
C34   C     C_R   0.373896 0.940532 0.487977 0.007149
C35   C     C_R   0.496557 0.868723 0.464947 -0.256251
H1    H     H_    0.718163 0.669726 0.631814 0.229738
H2    H     H_    0.104688 0.494323 0.056781 0.179820
H3    H     H_    0.628614 0.875429 0.654298 0.156360
H4    H     H_    0.779738 0.965589 0.620967 0.166750
H5    H     H_    0.663300 0.009418 0.730563 0.188498
H6    H     H_    0.220098 0.759678 0.795383 0.155988
H7    H     H_    0.255047 0.870556 0.696622 0.167553
H8    H     H_    0.382443 0.762062 0.721756 0.171090
H9    H     H_    0.246118 0.293976 0.232546 0.204869
H10   H     H_    0.167597 0.447168 0.260520 0.178987
H11   H     H_    0.065160 0.307944 0.257477 0.130075
H12   H     H_    0.033936 0.843960 0.739008 0.179876
H13   H     H_    0.831640 0.900942 0.411963 0.246528
H14   H     H_    0.804521 0.697736 0.309292 0.249679
H15   H     H_    0.799823 0.841640 0.247034 0.213066
H16   H     H_    0.643961 0.766980 0.289487 0.224090
H17   H     H_    0.183129 0.266348 0.686782 0.226388
H18   H     H_    0.343311 0.260831 0.798327 0.249256
H19   H     H_    0.450288 0.151209 0.714965 0.238004
H20   H     H_    0.291536 0.101813 0.780500 0.236327
H21   H     H_    0.825855 0.183387 0.282771 0.171227
H22   H     H_    0.646023 0.213353 0.308189 0.156702
H23   H     H_    0.646972 0.506148 0.969679 0.123598
H24   H     H_    0.715576 0.056547 0.267713 0.161077
H25   H     H_    0.234182 0.809459 0.430592 0.156533
H26   H     H_    0.029027 0.925511 0.508854 0.140717
H27   H     H_    0.044986 0.113563 0.620168 0.140079
H28   H     H_    0.898472 0.348744 0.394556 0.177062
H29   H     H_    0.198321 0.409568 0.950394 0.169323
H30   H     H_    0.185315 0.581614 0.958143 0.176463
N1    N     N_R   0.857120 0.501200 0.500900 -0.110267
N2    N     N_R   0.142720 0.501280 0.500940 -0.136981
N3    N     N_2   0.742458 0.858220 0.402172 -0.275030
N4    N     N_2   0.273186 0.217038 0.662095 -0.286461
O1    O     O_R   0.385310 0.683220 0.500000 -0.573714
O2    O     O_3   0.782451 0.852329 0.742077 -0.595889
O3    O     O_3   0.234550 0.682839 0.649067 -0.537987
O4    O     O_3   0.170086 0.330777 0.379718 -0.580881
O5    O     O_3   0.735680 0.118897 0.414299 -0.600748
O6    O     O_R   0.614640 0.683250 0.500010 -0.619391
O7    O     O_R   0.368830 0.499960 0.640340 -0.536589
O8    O     O_R   0.598160 0.499980 0.640350 -0.644963
O9    O     O_R   0.385360 0.316750 0.499990 -0.566572
O10   O     O_R   0.614690 0.316780 0.500000 -0.570473
O11   O     O_R   0.401840 0.500020 0.359650 -0.583906
O12   O     O_R   0.631170 0.500040 0.359660 -0.626131
O13   O     O_3   0.311611 0.500847 0.049497 -0.609808
Zn1   Zn    Zn3+2 0.346870 0.499980 0.499990 1.019127
Zn2   Zn    Zn3+2 0.653130 0.500020 0.500010 0.948102

loop_
_geom_bond_atom_site_label_1
_geom_bond_atom_site_label_2
_ccdc_geom_bond_type
C2    C35   A    
N2    Zn1   S    
C18   C21   S    
C19   C20   S    
C9    O3    S    
C25   H8    S    
C26   H9    S    
C7    C8    A    
C10   N2    A    
C22   O13   S    
C18   C19   D    
C2    N3    S    
C7    O2    S    
O10   Zn2   S    
O6    Zn2   S    
C15   O9    A    
C26   O4    S    
C34   C35   A    
C3    O5    S    
H17   N4    S    
C26   H10   S    
O9    Zn1   S    
C18   H23   S    
C15   O10   A    
C29   H24   S    
C8    C9    A    
C5    C33   A    
C24   H3    S    
C14   N2    A    
C27   N3    S    
C4    C12   S    
C19   O13   S    
C9    C10   A    
C11   N1    A    
C13   C14   A    
C31   H27   S    
O11   Zn1   S    
O7    Zn1   S    
C28   H20   S    
C27   H16   S    
C13   N1    A    
C23   H25   S    
C4    O7    A    
C1    O6    A    
C14   O4    S    
C25   H6    S    
C6    C11   A    
C28   H19   S    
C16   C17   S    
C29   O5    S    
O8    Zn2   S    
C22   H2    S    
N1    Zn2   S    
C17   C21   T    
C16   O11   A    
C23   C30   A    
C22   H30   S    
C31   C32   A    
C13   H28   S    
C23   C34   A    
C12   C20   T    
C28   N4    S    
C33   C34   A    
C25   O3    S    
H13   N3    S    
O1    Zn1   S    
C6    C7    A    
C29   H22   S    
O12   Zn2   S    
C1    C35   S    
C3    C5    A    
C25   H7    S    
C28   H18   S    
C27   H15   S    
C32   N4    S    
C29   H21   S    
C1    O1    A    
C32   C33   A    
C2    C3    A    
C8    H12   S    
C4    O8    A    
C30   C31   A    
C16   O12   A    
C24   H5    S    
C6    H1    S    
C5    C15   S    
C10   C11   A    
C26   H11   S    
C22   H29   S    
C30   H26   S    
C24   H4    S    
C27   H14   S    
C24   O2    S    
