data_mof_unit_66842.cif
_audit_creation_date              2012-12-11T16:53:40-0500
_audit_creation_method            fapswitch 2.2
_symmetry_space_group_name_H-M    P1
_symmetry_Int_Tables_number       1
_space_group_crystal_system       triclinic
_cell_length_a                    8.509218
_cell_length_b                    12.933351
_cell_length_c                    16.51726
_cell_angle_alpha                 96.497686
_cell_angle_beta                  93.207256
_cell_angle_gamma                 98.680642
_cell_volume                      1780.46185747

loop_
_atom_site_label
_atom_site_type_symbol
_atom_type_description
_atom_site_fract_x
_atom_site_fract_y
_atom_site_fract_z
_atom_type_partial_charge
Ba1   Ba    Ba6+2 0.162890 0.552530 0.460820 1.872332
Ba2   Ba    Ba6+2 0.647290 0.447460 0.539110 1.894884
C1    C     C_3   0.508135 0.873080 0.138437 -0.183180
C2    C     C_3   0.556815 0.859285 0.226989 0.189726
C3    C     C_3   0.558100 0.805773 0.670499 0.661326
C4    C     C_3   0.498320 0.907833 0.704674 -0.142451
C5    C     C_3   0.968058 0.207563 0.799854 0.343847
C6    C     C_3   0.984434 0.173988 0.885632 1.109633
C7    C     C_3   0.431389 0.238974 0.760009 0.306375
C8    C     C_3   0.436685 0.228212 0.851619 -0.198205
C9    C     C_R   0.076294 0.176082 0.520392 -0.254064
C10   C     C_R   0.760710 0.810074 0.446461 -0.135033
C11   C     C_R   0.716227 0.989002 0.430308 -0.043384
C12   C     C_3   0.974267 0.815593 0.205940 0.818590
C13   C     C_R   0.664461 0.879372 0.416576 0.014697
C14   C     C_R   0.897883 0.846104 0.499476 0.078767
C15   C     C_R   0.953956 0.959255 0.510443 -0.018321
C16   C     C_R   0.862393 0.031892 0.474727 -0.003060
C17   C     C_R   0.922171 0.144734 0.484180 0.098530
C18   C     C_R   0.164849 0.109033 0.556097 -0.027591
C19   C     C_R   0.101812 0.002095 0.553789 -0.051493
C20   C     C_R   0.608312 0.560246 0.266319 -0.228173
C21   C     C_R   0.462079 0.493796 0.243063 -0.036293
C22   C     C_R   0.406734 0.477238 0.160626 -0.085530
C23   C     C_3   0.076065 0.901932 0.166982 -0.098236
C24   C     C_R   0.506929 0.510528 0.100709 0.270359
C25   C     C_R   0.668948 0.553188 0.123777 -0.110091
C26   C     C_R   0.719214 0.584799 0.207733 -0.084083
C27   C     C_R   0.385796 0.545687 0.859198 -0.111422
C28   C     C_R   0.340051 0.533048 0.774124 -0.092786
C29   C     C_R   0.274090 0.505536 0.914211 0.279808
C30   C     C_R   0.181981 0.488028 0.747440 -0.320911
C31   C     C_R   0.070469 0.453251 0.800569 -0.034952
C32   C     C_R   0.115854 0.465011 0.884301 -0.061807
C33   C     C_3   0.691854 0.255753 0.286270 0.148838
C34   C     C_3   0.628637 0.170748 0.213776 -0.229424
C35   C     C_3   0.998945 0.761415 0.734333 0.754361
C36   C     C_3   0.985929 0.837189 0.813334 0.405526
C37   C     C_3   0.211360 0.217110 0.324702 0.735047
C38   C     C_3   0.295829 0.137179 0.364181 -0.367131
H1    H     H_    0.637129 0.799589 0.227605 0.015838
H2    H     H_    0.575395 0.098941 0.239276 0.034997
H3    H     H_    0.730573 0.150059 0.179595 0.149787
H4    H     H_    0.992255 0.791931 0.866549 0.034234
H5    H     H_    0.460556 0.794330 0.104856 0.161660
H6    H     H_    0.353639 0.089560 0.317180 0.067927
H7    H     H_    0.210611 0.081255 0.393197 0.127530
H8    H     H_    0.385968 0.179439 0.412330 0.136083
H9    H     H_    0.618142 0.935798 0.259184 -0.002968
H10   H     H_    0.509250 0.917604 0.772023 0.137748
H11   H     H_    0.567750 0.977706 0.682709 0.159481
H12   H     H_    0.370405 0.906578 0.686713 0.094083
H13   H     H_    0.413367 0.922792 0.140057 0.104888
H14   H     H_    0.010533 0.968392 0.162603 0.093603
H15   H     H_    0.953782 0.136977 0.753643 0.082238
H16   H     H_    0.080938 0.256560 0.787956 -0.200368
H17   H     H_    0.868992 0.135579 0.903594 0.058736
H18   H     H_    0.360037 0.302408 0.750373 -0.043958
H19   H     H_    0.554132 0.263284 0.743294 0.121500
H20   H     H_    0.320136 0.238258 0.875292 0.136464
H21   H     H_    0.526065 0.293070 0.884590 0.065014
H22   H     H_    0.641193 0.040148 0.405797 0.063809
H23   H     H_    0.173459 0.952841 0.582800 0.120913
H24   H     H_    0.135440 0.253037 0.514907 0.188291
H25   H     H_    0.722459 0.726310 0.432302 0.045801
H26   H     H_    0.289973 0.431805 0.142400 0.147321
H27   H     H_    0.029059 0.439976 0.926222 0.181875
H28   H     H_    0.644902 0.579889 0.330549 0.054931
H29   H     H_    0.861471 0.788218 0.168197 -0.028543
H30   H     H_    0.187122 0.931264 0.206574 0.073349
H31   H     H_    0.592665 0.273153 0.322971 -0.034359
N1    N     N_2   0.453698 0.493489 0.016052 -0.215483
N2    N     N_2   0.314919 0.510184 0.000117 -0.171439
O1    O     O_2   0.158840 0.763480 0.539220 -0.419629
O2    O     O_3   0.322254 0.278880 0.283067 -0.680138
O3    O     O_3   0.058376 0.731679 0.210807 -0.545337
O4    O     O_2   0.651450 0.236450 0.460750 -0.522567
O5    O     O_3   0.921400 0.370930 0.458880 -0.379217
O6    O     O_3   0.418970 0.302610 0.606550 -0.480602
O7    O     O_3   0.807437 0.215485 0.330861 -0.615408
O8    O     O_3   0.377910 0.555000 0.596240 -0.431347
O9    O     O_3   0.840790 0.356930 0.647080 -0.460344
O10   O     O_2   0.736801 0.433856 0.788258 -0.423546
O11   O     O_3   0.829926 0.254844 0.791879 -0.639628
O12   O     O_3   0.888900 0.629060 0.541050 -0.442550
O13   O     O_3   0.432390 0.444990 0.403690 -0.468819
O14   O     O_2   0.627510 0.552390 0.696520 -0.356066
O15   O     O_3   0.525295 0.732165 0.727650 -0.620982
O16   O     O_2   0.500202 0.112041 0.572805 -0.482274
O17   O     O_3   0.365405 0.143887 0.711416 -0.602655
O18   O     O_3   0.391330 0.697380 0.393380 -0.400538
O19   O     O_2   0.335823 0.890978 0.406859 -0.428799
O20   O     O_3   0.997952 0.816126 0.664938 -0.601738
O21   O     O_3   0.417258 0.822974 0.264044 -0.572744
O22   O     O_2   0.182780 0.447540 0.303450 -0.356374
O23   O     O_3   0.969510 0.643060 0.352850 -0.427456
O24   O     O_2   0.023039 0.536314 0.215209 -0.377407
P1    P     P_3+3 0.983580 0.746680 0.563420 1.169990
P2    P     P_3+3 0.350740 0.415080 0.315970 1.088455
P3    P     P_3+3 0.935861 0.627740 0.245679 1.143743
P4    P     P_3+3 0.826720 0.253310 0.436510 1.092766
P5    P     P_3+3 0.872627 0.377786 0.756135 1.032201
P6    P     P_3+3 0.458016 0.825001 0.369538 1.065079
P7    P     P_3+3 0.465809 0.595328 0.697469 1.082297
P8    P     P_3+3 0.363737 0.166073 0.608163 0.963290
C39   C     C_2   0.507084 0.198902 0.153561 0.925328
O25   O     O_2   0.371853 0.148975 0.145540 -0.543973
O26   O     O_R   0.552560 0.273978 0.101154 -0.715286
H32   H     H_    0.462986 0.279865 0.059548 0.335006
C40   C     C_2   0.156573 0.729847 0.746505 0.758781
O27   O     O_2   0.235071 0.722838 0.688151 -0.665436
O28   O     O_R   0.222019 0.723605 0.825197 -0.781296
H33   H     H_    0.341613 0.743602 0.831241 0.324901
F1    F     F_    0.881555 0.674985 0.726560 -0.705345
F2    F     F_    0.115448 0.917780 0.822125 -0.682246
C41   C     C_2   0.839144 0.885829 0.822369 1.049081
O29   O     O_2   0.823892 0.963760 0.789319 -0.573804
O30   O     O_R   0.729863 0.849657 0.876795 -0.740701
H34   H     H_    0.646802 0.896881 0.887362 0.312436
C42   C     C_2   0.079617 0.157508 0.265551 0.902702
O31   O     O_2   0.058908 0.182856 0.197076 -0.528497
O32   O     O_R   0.977030 0.074360 0.291192 -0.761278
H35   H     H_    0.879466 0.048341 0.252135 0.308382
F3    F     F_    0.145351 0.277133 0.383290 -0.750253
C43   C     C_2   0.636328 0.925907 0.091173 0.813265
O33   O     O_2   0.752005 0.884535 0.075452 -0.624626
O34   O     O_R   0.614848 0.017758 0.057978 -0.739708
H36   H     H_    0.706629 0.044520 0.025318 0.343652
F4    F     F_    0.718168 0.829298 0.668009 -0.763047
C44   C     C_2   0.501025 0.776039 0.582701 0.846961
O35   O     O_2   0.439674 0.839059 0.547611 -0.605264
O36   O     O_R   0.548182 0.691512 0.536184 -0.723747
H37   H     H_    0.629698 0.659449 0.567222 0.289868
F5    F     F_    0.089143 0.102987 0.887426 -0.629431
F6    F     F_    0.039784 0.259550 0.943107 -0.706948
F7    F     F_    0.942831 0.856323 0.283604 -0.755299
C45   C     C_2   0.479990 0.125043 0.870420 0.999995
O37   O     O_2   0.600424 0.096833 0.845279 -0.646452
O38   O     O_R   0.383199 0.061863 0.916998 -0.601428
H38   H     H_    0.421394 0.992321 0.922662 0.328436
C46   C     C_2   0.535572 0.615584 0.892814 0.930854
O39   O     O_2   0.661027 0.610206 0.861484 -0.527607
O40   O     O_R   0.532352 0.687967 0.961906 -0.739357
H39   H     H_    0.643000 0.723977 0.983247 0.359453
C47   C     C_2   0.783819 0.552754 0.059594 0.914449
O41   O     O_2   0.777036 0.474135 0.009823 -0.548972
O42   O     O_R   0.896403 0.641460 0.053958 -0.756855
H40   H     H_    0.962574 0.630964 0.005358 0.347144
C48   C     C_2   0.128850 0.473974 0.661599 0.926202
O43   O     O_2   0.061027 0.538606 0.632597 -0.509637
O44   O     O_R   0.142358 0.381858 0.614536 -0.726569
H41   H     H_    0.159949 0.325122 0.650019 0.200814
C49   C     C_2   0.115530 0.868179 0.081571 0.893529
O45   O     O_2   0.172384 0.787680 0.065580 -0.577571
O46   O     O_R   0.096329 0.933823 0.021492 -0.639146
H42   H     H_    0.146129 0.910333 0.969843 0.376859
C50   C     C_2   0.777771 0.353759 0.260468 0.827826
O47   O     O_2   0.825284 0.355341 0.192114 -0.508483
O48   O     O_R   0.824079 0.439845 0.319432 -0.709074
H43   H     H_    0.754414 0.439285 0.367104 0.243746

loop_
_geom_bond_atom_site_label_1
_geom_bond_atom_site_label_2
_ccdc_geom_bond_type
C38   H7    S    
C21   P2    S    
C50   O47   D    
O10   P5    D    
C24   N1    S    
O4    P4    D    
O42   H40   S    
C5    H15   S    
Ba1   P2    S    
C47   O41   D    
C5    C6    S    
O1    P1    D    
C41   O29   D    
C38   H6    S    
C45   O38   S    
C9    C17   A    
C24   C25   A    
C35   C36   S    
C39   O26   S    
C11   C16   A    
Ba1   O1    S    
C22   C24   A    
C7    H18   S    
C46   O40   S    
C3    C4    S    
O22   P2    D    
O40   H39   S    
C29   N2    S    
C39   O25   D    
Ba1   O8    S    
C37   C42   S    
C33   O7    S    
O11   P5    S    
O26   H32   S    
O6    P8    S    
Ba2   O12   S    
Ba1   Ba2   S    
O30   H34   S    
Ba2   O6    S    
O19   P6    D    
O15   P7    S    
C40   O27   D    
C3    O15   S    
C34   H2    S    
C11   H22   S    
C10   C14   A    
O36   H37   S    
C21   C22   A    
C44   O36   S    
O12   P1    S    
C8    C45   S    
C37   O2    S    
C4    H11   S    
C49   O46   S    
C7    C8    S    
C25   C47   S    
C26   P3    S    
C3    F4    S    
C5    O11   S    
O44   H41   S    
C33   H31   S    
C50   O48   S    
C20   C26   A    
C1    H13   S    
O5    P4    S    
Ba1   O5    S    
C5    H16   S    
O28   H33   S    
C47   O42   S    
C42   O32   S    
C31   C32   A    
Ba1   O12   S    
C9    C18   A    
C30   C48   S    
C23   C49   S    
C31   P5    S    
C23   H14   S    
C9    H24   S    
C37   C38   S    
C16   C17   A    
C35   F1    S    
Ba2   P4    S    
C34   C39   S    
C1    H5    S    
C15   C19   A    
C37   F3    S    
C7    H19   S    
C33   C34   S    
C12   O3    S    
C32   H27   S    
C8    H20   S    
C33   C50   S    
C36   H4    S    
C27   C28   A    
Ba2   O5    S    
C6    H17   S    
C36   C41   S    
O48   H43   S    
C10   C13   A    
Ba1   O22   S    
C27   C46   S    
O2    P2    S    
C15   C16   A    
O9    P5    S    
C29   C32   A    
C35   O20   S    
Ba2   O14   S    
C4    H10   S    
O13   P2    S    
C20   H28   S    
C35   C40   S    
C2    O21   S    
C3    C44   S    
O21   P6    S    
C11   C13   A    
C43   O33   D    
C12   H29   S    
Ba2   O9    S    
C8    H21   S    
C28   P7    S    
C1    C2    S    
O46   H42   S    
O24   P3    D    
C42   O31   D    
C18   P8    S    
C10   H25   S    
Ba1   O13   S    
C38   H8    S    
O17   P8    S    
O18   P6    S    
N1    N2    D    
C34   H3    S    
C7    O17   S    
C6    F5    S    
O38   H38   S    
C1    C43   S    
C22   H26   S    
O3    P3    S    
C45   O37   D    
C2    H9    S    
O7    P4    S    
C4    H12   S    
C30   C31   A    
C48   O44   S    
C44   O35   D    
C49   O45   D    
Ba1   P1    S    
C27   C29   A    
Ba2   O4    S    
C48   O43   D    
C28   C30   A    
C36   F2    S    
C17   P4    S    
C14   P1    S    
C14   C15   A    
C12   F7    S    
Ba1   O23   S    
O23   P3    S    
C41   O30   S    
Ba2   O13   S    
C12   C23   S    
C40   O28   S    
C19   H23   S    
O14   P7    D    
C18   C19   A    
Ba1   O18   S    
C2    H1    S    
O16   P8    D    
C25   C26   A    
C43   O34   S    
C20   C21   A    
Ba2   O8    S    
C23   H30   S    
C13   P6    S    
O32   H35   S    
C46   O39   D    
O20   P1    S    
O34   H36   S    
C6    F6    S    
O8    P7    S    
