data_mof_unit_30316.cif
_audit_creation_date              2012-12-10T16:49:30-0500
_audit_creation_method            fapswitch 2.2
_symmetry_space_group_name_H-M    P1
_symmetry_Int_Tables_number       1
_space_group_crystal_system       triclinic
_cell_length_a                    7.794613
_cell_length_b                    8.567352
_cell_length_c                    12.783341
_cell_angle_alpha                 89.84292
_cell_angle_beta                  87.378721
_cell_angle_gamma                 93.17652
_cell_volume                      851.44583273

loop_
_atom_site_label
_atom_site_type_symbol
_atom_type_description
_atom_site_fract_x
_atom_site_fract_y
_atom_site_fract_z
_atom_type_partial_charge
C1    C     C_R   0.455119 0.205534 0.497349 0.934488
C2    C     C_R   0.695796 0.581835 0.143069 -0.262468
C3    C     C_R   0.566874 0.585349 0.870711 0.394605
C4    C     C_R   0.433136 0.414644 0.129290 0.394598
C5    C     C_R   0.567185 0.549744 0.976711 0.051264
C6    C     C_R   0.432821 0.450251 0.023290 0.051260
C7    C     C_2   0.431400 0.042212 0.495686 -0.365782
C8    C     C_2   0.568600 0.957788 0.504314 -0.365782
C9    C     C_R   0.544881 0.794466 0.502650 0.934485
C10   C     C_R   0.465423 0.506609 0.699453 0.853045
C11   C     C_R   0.534577 0.493392 0.300547 0.853056
C12   C     C_R   0.559553 0.489700 0.189304 -0.154484
C13   C     C_R   0.440448 0.510302 0.810698 -0.154495
C14   C     C_R   0.299733 0.388739 0.963127 -0.146058
C15   C     C_R   0.700265 0.611269 0.036876 -0.146064
C16   C     C_R   0.304195 0.418181 0.856935 -0.262465
H1    H     H_    0.793229 0.638436 0.190062 0.202670
H2    H     H_    0.914325 0.309491 0.633759 0.336380
H3    H     H_    0.206751 0.361601 0.809941 0.202678
H4    H     H_    0.194819 0.314098 0.997025 0.212758
H5    H     H_    0.805169 0.685921 0.002978 0.212762
H6    H     H_    0.301510 0.991953 0.487324 0.193889
H7    H     H_    0.698490 0.008047 0.512675 0.193889
H8    H     H_    0.349817 0.263350 0.236623 0.333637
H9    H     H_    0.650215 0.736624 0.763371 0.333645
H10   H     H_    0.085675 0.690509 0.366241 0.336379
N1    N     N_2   0.054030 0.541640 0.471970 0.185835
N2    N     N_2   0.945970 0.458360 0.528030 0.185834
O1    O     O_R   0.609680 0.261530 0.506880 -0.632415
O2    O     O_3   0.692774 0.689764 0.827530 -0.764526
O3    O     O_3   0.985457 0.636165 0.403688 -0.658862
O4    O     O_3   0.014542 0.363835 0.596312 -0.658863
O5    O     O_R   0.390320 0.738470 0.493120 -0.632416
O6    O     O_R   0.323330 0.288220 0.488910 -0.580380
O7    O     O_R   0.676670 0.711780 0.511090 -0.580384
O8    O     O_R   0.619510 0.488830 0.661140 -0.614256
O9    O     O_R   0.380490 0.511170 0.338860 -0.614249
O10   O     O_R   0.333160 0.515520 0.643180 -0.573098
O11   O     O_R   0.666840 0.484480 0.356820 -0.573099
O12   O     O_3   0.307245 0.310219 0.172471 -0.764522
Zn1   Zn    Zn3+2 0.691200 0.482180 0.511990 1.053752
Zn2   Zn    Zn3+2 0.308800 0.517820 0.488010 1.053756

loop_
_geom_bond_atom_site_label_1
_geom_bond_atom_site_label_2
_ccdc_geom_bond_type
C3    O2    S    
C9    O5    A    
C11   C12   S    
C4    C12   A    
C7    H6    S    
C3    C13   A    
N2    O4    S    
C10   O10   A    
C2    C12   A    
C3    C5    A    
C1    O1    A    
C7    C8    D    
O11   Zn1   S    
C2    H1    S    
C11   O11   A    
C2    C15   A    
N1    Zn2   S    
O8    Zn1   S    
C16   H3    S    
O5    Zn2   S    
H8    O12   S    
C1    O6    A    
O10   Zn2   S    
C5    C6    A    
O7    Zn1   S    
C14   C16   A    
C5    C15   A    
C6    C14   A    
N1    O3    S    
C14   H4    S    
N2    Zn1   S    
C15   H5    S    
C8    H7    S    
H2    O4    S    
C4    C6    A    
C13   C16   A    
O9    Zn2   S    
C11   O9    A    
H9    O2    S    
C9    O7    A    
C10   O8    A    
O1    Zn1   S    
C1    C7    S    
H10   O3    S    
C4    O12   S    
C8    C9    S    
N1    N2    D    
C10   C13   S    
O6    Zn2   S    
