data_mof_unit_34051.cif
_audit_creation_date              2012-12-10T17:02:01-0500
_audit_creation_method            fapswitch 2.2
_symmetry_space_group_name_H-M    P1
_symmetry_Int_Tables_number       1
_space_group_crystal_system       triclinic
_cell_length_a                    10.783618
_cell_length_b                    11.044053
_cell_length_c                    9.832784
_cell_angle_alpha                 110.847187
_cell_angle_beta                  98.297293
_cell_angle_gamma                 91.15977
_cell_volume                      1079.6640059

loop_
_atom_site_label
_atom_site_type_symbol
_atom_type_description
_atom_site_fract_x
_atom_site_fract_y
_atom_site_fract_z
_atom_type_partial_charge
C1    C     C_R   0.490587 0.254272 0.440896 0.885724
C2    C     C_R   0.081698 0.618366 0.604236 0.028417
C3    C     C_R   0.129097 0.509554 0.503896 -0.199804
C4    C     C_R   0.047605 0.408514 0.397680 0.420288
C5    C     C_R   0.919310 0.410180 0.399101 -0.294014
C6    C     C_R   0.871028 0.513686 0.500558 -0.160905
C7    C     C_2   0.484929 0.115179 0.407686 -0.346887
C8    C     C_2   0.500629 0.069483 0.516783 -0.151383
C9    C     C_2   0.513198 0.884791 0.592400 -0.359922
C10   C     C_2   0.495896 0.930479 0.483359 -0.144605
C11   C     C_2   0.510781 0.510487 0.081271 -0.075012
C12   C     C_R   0.262696 0.502494 0.501538 0.853393
C13   C     C_2   0.488826 0.489981 0.918923 -0.071583
C14   C     C_R   0.508843 0.745724 0.559122 0.834967
C15   C     C_R   0.737365 0.505056 0.500188 0.815536
C16   C     C_R   0.161171 0.726817 0.703062 -0.151289
C17   C     C_R   0.111794 0.833148 0.799311 -0.137049
C18   C     C_R   0.982641 0.835665 0.796724 -0.135993
C19   C     C_R   0.902198 0.731186 0.698352 -0.157724
C20   C     C_R   0.950452 0.620633 0.602079 0.096228
Cu1   Cu    Cu3+1 0.521920 0.521810 0.644910 0.935569
Cu2   Cu    Cu3+1 0.478080 0.478190 0.355090 0.940156
H1    H     H_    0.467957 0.049572 0.293039 0.145505
H2    H     H_    0.414895 0.418487 0.846350 0.163896
H3    H     H_    0.584212 0.582497 0.154015 0.160989
H4    H     H_    0.625135 0.621061 0.933884 0.192069
H5    H     H_    0.375934 0.378020 0.065591 0.193162
H6    H     H_    0.261650 0.732360 0.705934 0.149341
H7    H     H_    0.174363 0.914409 0.874833 0.133961
H8    H     H_    0.944441 0.919464 0.869982 0.135106
H9    H     H_    0.802346 0.739261 0.697126 0.139955
H10   H     H_    0.857166 0.328308 0.322962 0.158044
H11   H     H_    0.478459 0.865181 0.368524 0.181119
H12   H     H_    0.517539 0.134778 0.631627 0.179126
H13   H     H_    0.530645 0.950385 0.707043 0.147334
N1    N     N_2   0.445130 0.445430 0.137370 -0.291520
N2    N     N_2   0.554930 0.554500 0.862630 -0.287791
O1    O     O_R   0.511700 0.332330 0.577400 -0.576563
O2    O     O_R   0.474680 0.295500 0.332650 -0.578614
O3    O     O_R   0.338160 0.518420 0.622400 -0.589768
O4    O     O_R   0.301140 0.481590 0.377650 -0.560196
O5    O     O_R   0.525320 0.704500 0.667350 -0.591991
O6    O     O_R   0.488300 0.667670 0.422600 -0.578700
O7    O     O_R   0.698860 0.518410 0.622350 -0.574466
O8    O     O_R   0.661840 0.481580 0.377600 -0.580210
O9    O     O_3   0.095251 0.301975 0.301317 -0.606197
C21   C     C_3   0.067587 0.303522 0.157037 0.086287
H14   H     H_    0.098712 0.399490 0.154232 0.151467
H15   H     H_    0.964910 0.282595 0.115009 0.131925
C22   C     C_3   0.137081 0.198546 0.055570 -0.336792
H16   H     H_    0.239412 0.214869 0.099143 0.233287
H17   H     H_    0.103555 0.102234 0.053908 0.213685
C23   C     C_3   0.115336 0.198953 0.898810 -0.947605
H18   H     H_    0.013970 0.177131 0.851057 0.265664
H19   H     H_    0.169328 0.123795 0.828626 0.259174
H20   H     H_    0.147508 0.295064 0.898551 0.255210

loop_
_geom_bond_atom_site_label_1
_geom_bond_atom_site_label_2
_ccdc_geom_bond_type
C12   O3    A    
C22   H17   S    
C9    C14   S    
H4    N2    S    
C16   H6    S    
C12   O4    A    
C18   H8    S    
H5    N1    S    
C21   C22   S    
Cu1   O7    S    
C2    C16   A    
C9    C10   D    
C1    O2    A    
C13   N2    D    
C19   C20   A    
C14   O5    A    
C5    H10   S    
C19   H9    S    
C22   H16   S    
C3    C4    A    
Cu1   N2    S    
C7    C8    D    
C21   H15   S    
C8    H12   S    
C17   H7    S    
C11   C13   S    
Cu1   O3    S    
C1    O1    A    
C7    H1    S    
Cu2   O2    S    
C11   N1    D    
C15   O7    A    
C17   C18   A    
C10   H11   S    
C2    C3    A    
C23   H19   S    
C5    C6    A    
Cu2   O4    S    
C11   H3    S    
C2    C20   A    
Cu1   O5    S    
C22   C23   S    
C4    C5    A    
Cu2   O8    S    
C6    C20   A    
C13   H2    S    
C8    C10   S    
C18   C19   A    
C23   H20   S    
C9    H13   S    
C15   O8    A    
O9    C21   S    
C16   C17   A    
C4    O9    S    
C3    C12   S    
C1    C7    S    
C6    C15   S    
Cu1   Cu2   S    
Cu2   O6    S    
Cu2   N1    S    
Cu1   O1    S    
C21   H14   S    
C23   H18   S    
C14   O6    A    
