data_mof_unit_41992.cif
_audit_creation_date              2012-12-10T18:02:48-0500
_audit_creation_method            fapswitch 2.2
_symmetry_space_group_name_H-M    P1
_symmetry_Int_Tables_number       1
_space_group_crystal_system       triclinic
_cell_length_a                    10.948704
_cell_length_b                    9.468582
_cell_length_c                    27.85167
_cell_angle_alpha                 90.250936
_cell_angle_beta                  90.315458
_cell_angle_gamma                 90.091807
_cell_volume                      2887.27119361

loop_
_atom_site_label
_atom_site_type_symbol
_atom_type_description
_atom_site_fract_x
_atom_site_fract_y
_atom_site_fract_z
_atom_type_partial_charge
C1    C     C_R   0.262107 0.500140 0.496405 0.781183
C2    C     C_R   0.737743 0.500187 0.496472 0.784951
C3    C     C_R   0.496363 0.502598 0.102049 -0.093862
C4    C     C_R   0.500983 0.489184 0.898243 -0.094132
C5    C     C_R   0.384863 0.497511 0.127471 -0.027717
C6    C     C_R   0.612257 0.476100 0.872988 -0.027239
C7    C     C_R   0.274232 0.488235 0.101423 0.181087
C8    C     C_R   0.722238 0.463025 0.899217 0.180976
C9    C     C_R   0.607425 0.511045 0.127801 -0.009342
C10   C     C_R   0.390450 0.500122 0.872319 -0.008769
C11   C     C_R   0.502856 0.499015 0.354394 -0.054884
C12   C     C_R   0.497603 0.500706 0.645774 -0.057824
C13   C     C_R   0.386679 0.500149 0.974074 0.067414
C14   C     C_R   0.610536 0.498634 0.026152 0.067469
C15   C     C_R   0.611370 0.486656 0.975243 0.018111
C16   C     C_R   0.385526 0.495807 0.025124 0.018259
C17   C     C_R   0.499742 0.491853 0.949350 0.066348
C18   C     C_R   0.497381 0.499034 0.050946 0.066532
C19   C     C_R   0.278231 0.514018 0.946681 -0.209936
C20   C     C_R   0.719519 0.512009 0.053293 -0.210054
C21   C     C_R   0.280319 0.513459 0.896922 -0.145291
C22   C     C_R   0.717750 0.517540 0.103023 -0.144325
C23   C     C_R   0.501450 0.499579 0.407373 0.806678
C24   C     C_R   0.498762 0.500435 0.592683 0.831118
C25   C     C_R   0.275723 0.487014 0.051318 -0.262983
C26   C     C_R   0.720619 0.467882 0.949297 -0.263626
C27   C     C_R   0.063545 0.372190 0.483143 -0.049258
C28   C     C_R   0.935750 0.631185 0.486600 -0.047150
C29   C     C_R   0.935657 0.371936 0.483938 -0.055293
C30   C     C_R   0.063681 0.631105 0.487200 -0.046077
C31   C     C_R   0.871317 0.501029 0.489308 -0.205448
C32   C     C_R   0.128173 0.501116 0.489275 -0.206790
C33   C     C_R   0.437061 0.073918 0.465691 0.043948
C34   C     C_R   0.564466 0.925956 0.533911 0.022344
C35   C     C_R   0.564330 0.075121 0.533952 -0.013847
C36   C     C_R   0.436559 0.924849 0.465821 -0.008368
C37   C     C_R   0.388568 0.499841 0.178257 0.561686
C38   C     C_R   0.609097 0.476506 0.822200 0.560070
C39   C     C_R   0.606047 0.513536 0.178074 0.536378
C40   C     C_R   0.392236 0.499159 0.822042 0.535038
C41   C     C_R   0.541520 0.384594 0.277572 -0.127117
C42   C     C_R   0.469371 0.617503 0.722982 -0.130808
C43   C     C_R   0.544289 0.380390 0.327912 0.120011
C44   C     C_R   0.467215 0.623209 0.672647 0.130520
C45   C     C_R   0.461658 0.619355 0.329749 -0.247285
C46   C     C_R   0.527735 0.375604 0.670186 -0.255311
C47   C     C_R   0.459769 0.621954 0.279762 -0.096650
C48   C     C_R   0.528899 0.371620 0.720153 -0.099824
C49   C     C_R   0.499477 0.504651 0.253584 0.319271
C50   C     C_R   0.499845 0.492415 0.746667 0.320814
Cu1   Cu    Cu3+1 0.500000 0.640660 0.500000 0.963183
Cu2   Cu    Cu3+1 0.500000 0.359340 0.500000 0.973505
H1    H     H_    0.429516 0.711300 0.349180 0.170931
H2    H     H_    0.551374 0.280490 0.650619 0.165688
H3    H     H_    0.387756 0.129685 0.437971 0.125942
H4    H     H_    0.616298 0.869896 0.560929 0.152444
H5    H     H_    0.616067 0.132015 0.561008 0.119492
H6    H     H_    0.385835 0.867981 0.438479 0.150716
H7    H     H_    0.427501 0.715248 0.261294 0.151760
H8    H     H_    0.552196 0.274411 0.738347 0.149459
H9    H     H_    0.446537 0.710146 0.744030 0.138201
H10   H     H_    0.572693 0.294822 0.256765 0.139451
H11   H     H_    0.194475 0.524347 0.877749 0.185530
H12   H     H_    0.804033 0.526980 0.122031 0.185959
H13   H     H_    0.189685 0.529226 0.962484 0.133130
H14   H     H_    0.808327 0.521983 0.037220 0.132987
H15   H     H_    0.188090 0.475345 0.034008 0.133507
H16   H     H_    0.807476 0.452899 0.966872 0.134214
N1    N     N_R   0.497901 0.507158 0.202103 -0.474045
N2    N     N_R   0.500377 0.488312 0.798161 -0.473038
N3    N     N_R   0.500000 0.852070 0.500000 -0.184748
N4    N     N_R   0.500000 0.147930 0.500000 -0.170939
O1    O     O_R   0.319640 0.618740 0.500000 -0.599656
O2    O     O_R   0.680360 0.381260 0.500000 -0.595680
O3    O     O_R   0.680360 0.618740 0.500000 -0.592629
O4    O     O_R   0.319640 0.381260 0.500000 -0.583048
O5    O     O_R   0.500020 0.618770 0.430260 -0.598731
O6    O     O_R   0.499980 0.381230 0.569740 -0.589123
O7    O     O_R   0.499980 0.618770 0.569740 -0.556135
O8    O     O_R   0.500020 0.381230 0.430260 -0.562285
O9    O     O_2   0.284498 0.493508 0.203863 -0.483888
O10   O     O_2   0.713339 0.467277 0.796797 -0.488066
O11   O     O_2   0.286535 0.508579 0.797074 -0.530264
O12   O     O_2   0.712077 0.522477 0.202893 -0.525982
N5    N     N_3   0.158741 0.479305 0.125293 -0.499770
H17   H     H_    0.115549 0.385836 0.114401 0.218364
H18   H     H_    0.104695 0.564037 0.114037 0.216001
N6    N     N_3   0.837114 0.443980 0.875564 -0.501389
H19   H     H_    0.895296 0.526432 0.885968 0.216552
H20   H     H_    0.875541 0.349280 0.887481 0.217176
N7    N     N_3   0.432265 0.751798 0.649054 -0.567747
H21   H     H_    0.423342 0.834135 0.673923 0.215686
H22   H     H_    0.345662 0.735439 0.634019 0.228807
N8    N     N_3   0.591190 0.257708 0.351980 -0.553226
H23   H     H_    0.609766 0.177081 0.327317 0.223276
H24   H     H_    0.674769 0.286038 0.367638 0.256205
C51   C     C_2   0.128111 0.237253 0.472928 0.488833
H25   H     H_    0.193119 0.232339 0.443769 0.059228
O13   O     O_2   0.110078 0.132396 0.497274 -0.521805
C52   C     C_2   0.871242 0.769003 0.481296 0.480425
H26   H     H_    0.804510 0.782988 0.452745 0.092732
O14   O     O_2   0.891213 0.866519 0.509110 -0.543679
C53   C     C_2   0.871131 0.235404 0.476370 0.515135
H27   H     H_    0.831815 0.180191 0.506667 0.100464
O15   O     O_2   0.863011 0.184106 0.436194 -0.536871
C54   C     C_2   0.127723 0.768988 0.482927 0.505839
H28   H     H_    0.173674 0.815171 0.513869 0.104686
O16   O     O_2   0.127766 0.831807 0.444742 -0.533760

loop_
_geom_bond_atom_site_label_1
_geom_bond_atom_site_label_2
_ccdc_geom_bond_type
C33   H3    S    
C38   N2    A    
C34   H4    S    
C5    C37   A    
C27   C29   A    
C8    C26   A    
C14   C18   A    
C25   H15   S    
C33   C36   A    
C51   H25   S    
C47   C49   A    
N5    H17   S    
Cu2   O2    S    
C40   N2    A    
Cu2   N4    S    
C20   H14   S    
C19   C21   A    
Cu1   O3    S    
C39   O12   S    
C37   N1    A    
C9    C22   A    
C54   H28   S    
C9    C39   A    
C43   N8    S    
C29   C53   S    
C3    C18   A    
C10   C40   A    
C34   C35   A    
C33   N4    A    
C6    C38   A    
C11   C43   A    
C23   O8    A    
C2    O2    A    
C36   N3    A    
C28   C52   S    
C48   C50   A    
C45   H1    S    
C49   N1    S    
C38   O10   S    
C41   C43   A    
C40   O11   S    
C37   O9    S    
C42   C44   A    
C41   H10   S    
Cu2   O6    S    
C41   C49   A    
C51   O13   D    
C48   H8    S    
C45   C47   A    
C10   C21   A    
C46   C48   A    
C13   C19   A    
N5    H18   S    
Cu1   Cu2   S    
C14   C20   A    
C4    C6    A    
N7    H21   S    
C5    C7    A    
C15   C26   A    
C6    C8    A    
C3    C5    A    
C47   H7    S    
C1    C32   S    
C2    C31   S    
C8    N6    S    
C12   C46   A    
Cu1   O5    S    
C3    C9    A    
N7    H22   S    
C24   O7    A    
C46   H2    S    
C52   O14   D    
C39   N1    A    
C53   O15   D    
C23   O5    A    
N8    H24   S    
C42   H9    S    
C44   N7    S    
C42   C50   A    
C4    C17   A    
C24   O6    A    
N6    H20   S    
C35   N4    A    
C11   C45   A    
C4    C10   A    
C16   C25   A    
C15   C17   A    
C27   C51   S    
C27   C32   A    
C1    O4    A    
C28   C31   A    
Cu1   O1    S    
C20   C22   A    
Cu2   O4    S    
Cu1   N3    S    
C12   C24   S    
C36   H6    S    
C7    C25   A    
C13   C17   A    
C35   H5    S    
C26   H16   S    
C28   C30   A    
C50   N2    S    
C1    O1    A    
C29   C31   A    
C30   C32   A    
C7    N5    S    
C54   O16   D    
C11   C23   S    
C52   H26   S    
C19   H13   S    
N8    H23   S    
Cu1   O7    S    
C21   H11   S    
C22   H12   S    
N6    H19   S    
C16   C18   A    
C13   C16   A    
C53   H27   S    
C14   C15   A    
C12   C44   A    
Cu2   O8    S    
C34   N3    A    
C30   C54   S    
C2    O3    A    
