data_mof_unit_54787.cif
_audit_creation_date              2012-12-10T17:33:14-0500
_audit_creation_method            fapswitch 2.2
_symmetry_space_group_name_H-M    P1
_symmetry_Int_Tables_number       1
_space_group_crystal_system       triclinic
_cell_length_a                    12.190466
_cell_length_b                    12.807223
_cell_length_c                    13.608405
_cell_angle_alpha                 94.158746
_cell_angle_beta                  79.142398
_cell_angle_gamma                 96.996555
_cell_volume                      2068.37385455

loop_
_atom_site_label
_atom_site_type_symbol
_atom_type_description
_atom_site_fract_x
_atom_site_fract_y
_atom_site_fract_z
_atom_type_partial_charge
C1    C     C_R   0.526093 0.700809 0.494450 0.897524
C2    C     C_R   0.474347 0.298884 0.502183 0.909843
C3    C     C_R   0.451802 0.967943 0.482969 -0.110770
C4    C     C_R   0.530823 0.027271 0.536396 -0.100136
C5    C     C_R   0.971491 0.462054 0.372051 0.131592
C6    C     C_R   0.028399 0.541219 0.627361 0.132354
C7    C     C_R   0.853120 0.442732 0.393342 0.268395
C8    C     C_R   0.147079 0.558001 0.606584 0.267109
C9    C     C_R   0.851360 0.524641 0.555817 0.257344
C10   C     C_R   0.148402 0.478265 0.443403 0.242270
C11   C     C_R   0.969196 0.516729 0.546819 -0.061482
C12   C     C_R   0.030810 0.487080 0.452464 -0.060738
C13   C     C_R   0.479887 0.501484 0.686410 0.893493
C14   C     C_R   0.520088 0.498353 0.313578 0.891343
C15   C     C_1   0.535969 0.497487 0.208914 -0.221907
C16   C     C_1   0.463754 0.500688 0.790990 -0.226071
C17   C     C_2   0.548625 0.496940 0.015980 0.201353
C18   C     C_2   0.450745 0.497746 0.983717 0.200768
C19   C     C_1   0.453386 0.499468 0.879333 0.009822
C20   C     C_1   0.546163 0.496985 0.120473 0.010913
C21   C     C_R   0.451198 0.184942 0.510327 -0.161269
C22   C     C_R   0.547508 0.814560 0.484356 -0.171192
C23   C     C_R   0.624834 0.980452 0.554301 0.498454
C24   C     C_R   0.360689 0.015413 0.462552 0.515785
C25   C     C_R   0.637437 0.875654 0.519395 0.019181
C26   C     C_R   0.369895 0.124956 0.461949 0.022974
C27   C     C_R   0.466348 0.863366 0.450370 0.110779
C28   C     C_R   0.517979 0.134507 0.561924 0.121414
N1    N     N_R   0.206090 0.519450 0.517820 -0.121409
N2    N     N_R   0.793910 0.480550 0.482180 -0.120207
O1    O     O_R   0.421240 0.658850 0.504760 -0.618947
O2    O     O_R   0.578760 0.341150 0.495240 -0.611778
O3    O     O_R   0.609960 0.646370 0.493320 -0.618824
O4    O     O_R   0.390040 0.353630 0.506680 -0.618592
O5    O     O_R   0.392060 0.507120 0.646890 -0.608786
O6    O     O_R   0.607940 0.492880 0.353110 -0.611961
O7    O     O_R   0.580780 0.494630 0.635450 -0.614642
O8    O     O_R   0.419220 0.505370 0.364550 -0.617009
Zn1   Zn    Zn3+2 0.373990 0.508340 0.507630 0.915525
Zn2   Zn    Zn3+2 0.626010 0.491660 0.492370 0.921505
C29   C     C_3   0.338291 0.496696 0.053419 -0.939094
H1    H     H_    0.269063 0.498021 0.010952 0.247373
H2    H     H_    0.321359 0.424238 0.096466 0.242567
H3    H     H_    0.338211 0.566931 0.106337 0.244211
C30   C     C_3   0.661086 0.498007 0.946273 -0.939502
H4    H     H_    0.730136 0.495300 0.988646 0.247517
H5    H     H_    0.660730 0.428467 0.892528 0.243109
H6    H     H_    0.678641 0.571100 0.904150 0.241618
C31   C     C_3   0.569976 0.195281 0.644860 -0.753659
H7    H     H_    0.526866 0.265921 0.673171 0.203494
H8    H     H_    0.558507 0.146646 0.710744 0.213151
H9    H     H_    0.660056 0.221748 0.617899 0.276650
C32   C     C_3   0.409250 0.807111 0.367804 -0.702479
H10   H     H_    0.455957 0.741953 0.329355 0.197185
H11   H     H_    0.322471 0.773448 0.398908 0.261250
H12   H     H_    0.408225 0.861945 0.308476 0.239394
C33   C     C_3   0.296590 0.174604 0.405368 -0.880656
H13   H     H_    0.247523 0.116336 0.361609 0.265438
H14   H     H_    0.235625 0.217557 0.459352 0.248342
H15   H     H_    0.350726 0.226820 0.349893 0.229925
C34   C     C_3   0.751664 0.836247 0.503881 -0.840345
H16   H     H_    0.820128 0.902252 0.492922 0.254005
H17   H     H_    0.759676 0.794024 0.569395 0.217235
H18   H     H_    0.765682 0.783919 0.435035 0.257357
O9    O     O_3   0.712138 0.041426 0.590729 -0.640454
C35   C     C_3   0.720179 0.008866 0.686270 0.060537
H19   H     H_    0.754794 0.932182 0.680177 0.156096
H20   H     H_    0.636757 0.001033 0.737062 0.123412
C36   C     C_3   0.800373 0.090021 0.733318 -0.322632
H21   H     H_    0.883552 0.098464 0.682606 0.228620
H22   H     H_    0.766887 0.167733 0.743178 0.220987
C37   C     C_3   0.815818 0.057155 0.834982 -0.971880
H23   H     H_    0.733922 0.049675 0.887485 0.267079
H24   H     H_    0.874289 0.117716 0.867021 0.267359
H25   H     H_    0.851823 0.980683 0.826711 0.266170
O10   O     O_3   0.268664 0.955082 0.433306 -0.658505
C38   C     C_3   0.171664 0.961278 0.508704 0.072849
H26   H     H_    0.099771 0.967972 0.470888 0.169831
H27   H     H_    0.176625 0.031538 0.562029 0.134352
C39   C     C_3   0.146739 0.860837 0.567144 -0.333860
H28   H     H_    0.137184 0.791129 0.514566 0.230805
H29   H     H_    0.218023 0.852992 0.605400 0.218919
C40   C     C_3   0.038991 0.863196 0.645090 -0.988393
H30   H     H_    0.047124 0.931221 0.699698 0.269017
H31   H     H_    0.022594 0.789697 0.686313 0.265437
H32   H     H_    0.966367 0.869303 0.608132 0.266660
C41   C     C_3   0.204900 0.407687 0.361660 -0.837742
H33   H     H_    0.271067 0.374162 0.388306 0.279157
H34   H     H_    0.146180 0.338879 0.343518 0.219508
H35   H     H_    0.242794 0.451273 0.293870 0.245513
C42   C     C_3   0.794163 0.596429 0.636682 -0.836907
H36   H     H_    0.727645 0.630967 0.610704 0.273281
H37   H     H_    0.756452 0.553574 0.704955 0.243715
H38   H     H_    0.853275 0.664902 0.654622 0.212079
C43   C     C_3   0.206048 0.616810 0.685267 -0.819660
H39   H     H_    0.217367 0.562433 0.741496 0.242527
H40   H     H_    0.286707 0.659904 0.652352 0.265597
H41   H     H_    0.155346 0.678386 0.725403 0.208906
C44   C     C_3   0.794725 0.381963 0.315280 -0.797613
H42   H     H_    0.784170 0.434705 0.257367 0.235566
H43   H     H_    0.845559 0.319205 0.277687 0.208458
H44   H     H_    0.713397 0.340211 0.348294 0.269515
C45   C     C_3   0.029150 0.471970 0.263564 -0.909828
H45   H     H_    0.973834 0.503060 0.219204 0.241196
H46   H     H_    0.104315 0.530988 0.257260 0.250354
H47   H     H_    0.051158 0.394479 0.228714 0.246422
C46   C     C_3   0.969818 0.532356 0.735737 -0.915765
H48   H     H_    0.024507 0.502024 0.781186 0.243076
H49   H     H_    0.947362 0.610035 0.769672 0.242744
H50   H     H_    0.894765 0.473194 0.741957 0.249392

loop_
_geom_bond_atom_site_label_1
_geom_bond_atom_site_label_2
_ccdc_geom_bond_type
C35   H20   S    
C41   H33   S    
C5    C45   S    
C36   C37   S    
C29   H2    S    
C29   H1    S    
C43   H39   S    
C21   C26   A    
C9    C42   S    
C43   H41   S    
C1    O3    A    
C32   H10   S    
C7    C44   S    
C8    N1    A    
C24   C26   A    
C13   O5    A    
O7    Zn2   S    
C39   C40   S    
C14   O6    A    
O8    Zn1   S    
C30   H6    S    
C35   C36   S    
C14   O8    A    
C1    O1    A    
C17   C20   S    
C2    O2    A    
C18   C19   S    
C30   H5    S    
C36   H22   S    
C44   H42   S    
C31   H8    S    
C22   C25   A    
C44   H44   S    
C6    C46   S    
C13   O7    A    
C38   H26   S    
C37   H23   S    
C2    O4    A    
C38   H27   S    
C35   H19   S    
C1    C22   S    
C7    N2    A    
C27   C32   S    
C46   H49   S    
C3    C24   A    
C34   H16   S    
C8    C43   S    
C37   H25   S    
C4    C28   A    
C32   H11   S    
C15   C20   T    
C10   C41   S    
O3    Zn2   S    
O4    Zn1   S    
O6    Zn2   S    
O10   C38   S    
C5    C12   A    
C37   H24   S    
C18   C29   S    
C6    C11   A    
C5    C7    A    
C4    C23   A    
C24   O10   S    
C33   H15   S    
C6    C8    A    
C30   H4    S    
C34   H18   S    
O5    Zn1   S    
C42   H37   S    
C28   C31   S    
C40   H30   S    
C46   H48   S    
C31   H9    S    
N1    Zn1   S    
C2    C21   S    
C34   H17   S    
C17   C18   D    
N2    Zn2   S    
C45   H46   S    
C25   C34   S    
C9    C11   A    
C10   C12   A    
C9    N2    A    
C39   H29   S    
C44   H43   S    
C21   C28   A    
O9    C35   S    
C22   C27   A    
C41   H34   S    
C46   H50   S    
C41   H35   S    
C3    C4    A    
C42   H36   S    
C23   C25   A    
C32   H12   S    
C40   H31   S    
C17   C30   S    
C39   H28   S    
C11   C12   A    
C43   H40   S    
C23   O9    S    
C3    C27   A    
C42   H38   S    
C38   C39   S    
C10   N1    A    
C33   H13   S    
C16   C19   T    
C29   H3    S    
O1    Zn1   S    
C45   H47   S    
O2    Zn2   S    
C36   H21   S    
C26   C33   S    
C33   H14   S    
C40   H32   S    
C31   H7    S    
C13   C16   S    
C45   H45   S    
C14   C15   S    
