data_mof_unit_9033.cif
_audit_creation_date              2012-10-26T21:04:55-0400
_audit_creation_method            fapswitch 2.2
_symmetry_space_group_name_H-M    P1
_symmetry_Int_Tables_number       1
_space_group_crystal_system       triclinic
_cell_length_a                    11.682294
_cell_length_b                    12.395541
_cell_length_c                    13.247993
_cell_angle_alpha                 116.968546
_cell_angle_beta                  77.125004
_cell_angle_gamma                 101.074856
_cell_volume                      1657.6401693

loop_
_atom_site_label
_atom_site_type_symbol
_atom_type_description
_atom_site_fract_x
_atom_site_fract_y
_atom_site_fract_z
_atom_type_partial_charge
C1    C     C_R   0.515576 0.855129 0.286897 0.604028
C2    C     C_R   0.335321 0.497551 0.142877 -0.120419
C3    C     C_R   0.376154 0.619980 0.173410 0.256264
C4    C     C_R   0.715617 0.999664 0.499647 0.529158
C5    C     C_R   0.536316 0.344795 0.872948 0.247694
C6    C     C_R   0.384426 0.196492 0.910130 -0.161319
C7    C     C_R   0.543768 0.772766 0.165611 0.015741
C8    C     C_R   0.674972 0.331682 0.310511 -0.006052
C9    C     C_R   0.333912 0.756047 0.636854 0.061890
C10   C     C_R   0.283909 0.651100 0.649486 -0.134365
C11   C     C_R   0.340528 0.545618 0.588807 -0.087847
C12   C     C_R   0.473747 0.227353 0.835278 0.005580
C13   C     C_R   0.452786 0.545764 0.521094 0.020940
C14   C     C_R   0.493357 0.651266 0.501368 0.185247
C15   C     C_R   0.521724 0.442879 0.466112 -0.007098
C16   C     C_R   0.486952 0.144816 0.713061 0.532520
C17   C     C_R   0.614657 0.437751 0.374571 -0.009547
C18   C     C_R   0.647918 0.540672 0.352241 -0.173016
C19   C     C_R   0.591274 0.645463 0.416353 -0.086036
C20   C     C_R   0.505665 0.347046 0.501024 0.147189
C21   C     C_R   0.647441 0.236969 0.344724 0.075969
C22   C     C_R   0.284401 0.000240 0.500217 0.567094
C23   C     C_R   0.647717 0.806016 0.105286 -0.182114
C24   C     C_1   0.837411 0.999449 0.499599 -0.008473
C25   C     C_1   0.940046 0.999560 0.499616 -0.025324
C26   C     C_1   0.060014 0.999907 0.499743 -0.027526
C27   C     C_1   0.162637 0.000186 0.499938 -0.003530
C28   C     C_R   0.344309 0.285920 0.016161 -0.138901
C29   C     C_2   0.763112 0.314508 0.205514 0.204646
C30   C     C_2   0.435822 0.361854 0.612829 0.297914
C31   C     C_2   0.825989 0.753791 0.957636 0.241568
C32   C     C_R   0.709720 0.717521 0.012205 -0.000408
C33   C     C_R   0.664963 0.595211 0.977647 -0.032164
C34   C     C_R   0.550480 0.560226 0.024598 -0.010160
C35   C     C_R   0.488953 0.651678 0.121106 0.045125
C36   C     C_R   0.496924 0.437201 0.982125 0.062733
C37   C     C_R   0.394042 0.406740 0.048862 -0.025309
Cu1   Cu    Cu3+1 0.526510 0.098270 0.475420 0.968231
Cu2   Cu    Cu3+1 0.473490 0.901730 0.524580 0.954059
H1    H     H_    0.337576 0.105930 0.882357 0.138463
H2    H     H_    0.724839 0.529796 0.919157 0.215287
H3    H     H_    0.690383 0.154273 0.296457 0.166884
H4    H     H_    0.767002 0.368123 0.158950 0.110723
H5    H     H_    0.361453 0.296614 0.618552 0.113921
H6    H     H_    0.671874 0.301627 0.753493 0.327884
H7    H     H_    0.861200 0.848984 0.989510 0.120092
H8    H     H_    0.230017 0.671801 0.278976 0.323471
H9    H     H_    0.721939 0.544459 0.288077 0.101384
H10   H     H_    0.288144 0.837010 0.681432 0.132240
H11   H     H_    0.291930 0.463837 0.592236 0.107122
H12   H     H_    0.199373 0.650305 0.703271 0.141527
H13   H     H_    0.625502 0.719183 0.393939 0.172492
H14   H     H_    0.252523 0.473374 0.188030 0.109780
H15   H     H_    0.268310 0.262103 0.069017 0.137488
H16   H     H_    0.687928 0.899459 0.138700 0.121128
N1    N     N_R   0.566700 0.246290 0.438210 -0.273531
N2    N     N_R   0.434010 0.754320 0.561170 -0.237003
O1    O     O_R   0.533340 0.972510 0.318140 -0.513417
O2    O     O_2   0.460681 0.448895 0.700562 -0.458094
O3    O     O_3   0.625313 0.372416 0.797812 -0.661404
O4    O     O_2   0.883567 0.678401 0.876330 -0.495713
O5    O     O_3   0.305395 0.709642 0.251261 -0.679387
O6    O     O_R   0.488570 0.806530 0.359650 -0.484532
O7    O     O_R   0.685190 0.083000 0.479260 -0.494447
O8    O     O_R   0.640410 0.917020 0.520770 -0.517174
O9    O     O_R   0.511430 0.193470 0.640350 -0.467942
O10   O     O_R   0.466660 0.027490 0.681860 -0.513347
O11   O     O_R   0.359590 0.082980 0.479230 -0.523696
O12   O     O_R   0.314810 0.917000 0.520740 -0.484768
O13   O     O_2   0.831848 0.237347 0.167849 -0.519412

loop_
_geom_bond_atom_site_label_1
_geom_bond_atom_site_label_2
_ccdc_geom_bond_type
C21   N1    A    
H6    O3    S    
C23   H16   S    
C8    C21   A    
C2    C3    A    
C11   C13   A    
C9    C10   A    
C31   O4    D    
C22   O12   A    
C34   C36   A    
C8    C17   A    
C3    C35   A    
C20   N1    A    
C33   H2    S    
C30   O2    D    
H8    O5    S    
C17   C18   A    
Cu2   O12   S    
Cu1   N1    S    
C11   H11   S    
C20   C30   S    
C13   C14   A    
C29   H4    S    
C23   C32   A    
Cu2   O8    S    
C2    C37   A    
C30   H5    S    
C26   C27   T    
Cu1   Cu2   S    
C1    O1    A    
C28   C37   A    
C5    C12   A    
C34   C35   A    
C7    C23   A    
C10   H12   S    
C1    O6    A    
C36   C37   A    
Cu1   O11   S    
C33   C34   A    
Cu1   O7    S    
Cu2   O6    S    
C13   C15   A    
C6    C12   A    
C4    O8    A    
C4    C24   S    
C6    H1    S    
C16   O9    A    
C10   C11   A    
C8    C29   S    
Cu1   O1    S    
C21   H3    S    
Cu2   N2    S    
C5    C36   A    
Cu1   O9    S    
C22   C27   S    
C9    H10   S    
C24   C25   T    
C9    N2    A    
C15   C17   A    
C29   O13   D    
C3    O5    S    
C16   O10   A    
C14   N2    A    
C4    O7    A    
C18   C19   A    
C28   H15   S    
C19   H13   S    
C5    O3    S    
C1    C7    S    
C25   C26   S    
C22   O11   A    
C7    C35   A    
C14   C19   A    
C31   H7    S    
C31   C32   S    
C6    C28   A    
C12   C16   S    
C32   C33   A    
Cu2   O10   S    
C15   C20   A    
C2    H14   S    
C18   H9    S    
