data_mof_unit_11645.cif
_audit_creation_date              2012-12-11T17:33:39-0500
_audit_creation_method            fapswitch 2.2
_symmetry_space_group_name_H-M    P1
_symmetry_Int_Tables_number       1
_space_group_crystal_system       triclinic
_cell_length_a                    8.522465
_cell_length_b                    16.320805
_cell_length_c                    18.785867
_cell_angle_alpha                 100.175407
_cell_angle_beta                  91.731357
_cell_angle_gamma                 93.044291
_cell_volume                      2566.17907057

loop_
_atom_site_label
_atom_site_type_symbol
_atom_type_description
_atom_site_fract_x
_atom_site_fract_y
_atom_site_fract_z
_atom_type_partial_charge
Ba1   Ba    Ba6+2 0.845660 0.536000 0.465120 1.727743
Ba2   Ba    Ba6+2 0.344160 0.464070 0.534880 1.737173
C1    C     C_3   0.599080 0.821781 0.270511 0.375574
C2    C     C_3   0.551688 0.732908 0.280163 0.323914
C3    C     C_3   0.490366 0.330441 0.312874 0.297282
C4    C     C_3   0.477208 0.302118 0.231208 -0.372287
C5    C     C_3   0.146109 0.208785 0.691265 0.675955
C6    C     C_3   0.174799 0.131448 0.724384 -0.328379
C7    C     C_3   0.539496 0.263870 0.750114 0.716807
C8    C     C_3   0.494032 0.217197 0.811450 -0.294350
C9    C     C_R   0.011337 0.456860 0.047907 0.011385
C10   C     C_R   0.915433 0.421646 0.095789 0.043066
C11   C     C_R   0.759938 0.393768 0.073709 -0.072067
C12   C     C_3   0.112847 0.789758 0.284448 1.469000
C13   C     C_R   0.699452 0.402376 0.005522 -0.101416
C14   C     C_R   0.794194 0.437420 0.957415 0.021186
C15   C     C_R   0.951317 0.463397 0.977961 0.034744
C16   C     C_R   0.734112 0.445828 0.888927 -0.147147
C17   C     C_R   0.831669 0.472820 0.837019 -0.033731
C18   C     C_R   0.987536 0.503925 0.858961 -0.046082
C19   C     C_R   0.046867 0.497957 0.929453 -0.005917
C20   C     C_R   0.780441 0.467776 0.763627 0.072385
C21   C     C_R   0.882618 0.494091 0.714695 -0.250777
C22   C     C_R   0.028536 0.535181 0.736722 0.032740
C23   C     C_3   0.098684 0.877745 0.268845 -0.153510
C24   C     C_R   0.082437 0.543038 0.811605 -0.093544
C25   C     C_R   0.166229 0.486428 0.070193 0.015095
C26   C     C_R   0.221641 0.487329 0.142491 0.059745
C27   C     C_R   0.122465 0.455013 0.191993 -0.007574
C28   C     C_R   0.974213 0.416995 0.165642 -0.039673
C29   C     C_R   0.225530 0.586451 0.842624 0.360363
C30   C     C_R   0.296723 0.563063 0.904383 0.000247
C31   C     C_R   0.203364 0.524493 0.950837 -0.030141
C32   C     C_R   0.263135 0.518822 0.021047 0.042910
C33   C     C_R   0.454817 0.587428 0.925520 -0.004506
C34   C     C_3   0.160187 0.732221 0.627588 0.720194
C35   C     C_R   0.514693 0.580260 0.993896 -0.077777
C36   C     C_R   0.418183 0.548721 0.042950 0.059274
C37   C     C_R   0.374504 0.522716 0.165409 -0.018212
C38   C     C_R   0.473249 0.549553 0.114106 -0.055592
C39   C     C_R   0.422576 0.532312 0.239275 -0.056833
C40   C     C_R   0.319616 0.505807 0.288670 -0.245584
C41   C     C_R   0.172343 0.465256 0.266501 0.076582
C42   C     C_R   0.384363 0.728198 0.469576 -0.213920
C43   C     C_R   0.528260 0.757458 0.505709 0.092370
C44   C     C_R   0.580194 0.841216 0.510387 -0.158471
C45   C     C_3   0.047844 0.804408 0.640220 -0.361963
C46   C     C_R   0.485772 0.896655 0.480897 0.231321
C47   C     C_R   0.337651 0.867212 0.449132 -0.115669
C48   C     C_R   0.286654 0.783338 0.443252 0.060523
C49   C     C_R   0.607320 0.145712 0.484128 -0.125545
C50   C     C_R   0.654561 0.229792 0.489087 -0.014135
C51   C     C_R   0.706031 0.092341 0.513927 0.292310
C52   C     C_R   0.791992 0.262991 0.526603 -0.169099
C53   C     C_R   0.894526 0.211079 0.551655 0.043688
C54   C     C_R   0.853363 0.125392 0.544924 -0.080035
C55   C     C_3   0.944251 0.281830 0.365154 0.313322
C56   C     C_3   0.937702 0.186974 0.347811 -0.333072
C57   C     C_3   0.720096 0.659498 0.682515 0.282735
C58   C     C_3   0.778152 0.701019 0.758489 -0.362359
H1    H     H_    0.541683 0.734183 0.339199 -0.078653
H2    H     H_    0.068893 0.843611 0.694616 0.101120
H3    H     H_    0.062068 0.844538 0.598736 0.096404
H4    H     H_    0.924940 0.780811 0.639340 0.112944
H5    H     H_    0.825150 0.302564 0.356517 0.027020
H6    H     H_    0.985836 0.303549 0.422137 0.025726
H7    H     H_    0.892051 0.164938 0.291283 0.133764
H8    H     H_    0.859029 0.160240 0.384733 0.034550
H9    H     H_    0.057095 0.164309 0.353890 0.146323
H10   H     H_    0.822889 0.636265 0.652095 -0.019976
H11   H     H_    0.635404 0.606297 0.685283 0.049913
H12   H     H_    0.521223 0.865637 0.302399 0.016898
H13   H     H_    0.820142 0.654340 0.789669 0.083552
H14   H     H_    0.684941 0.734919 0.788702 0.169262
H15   H     H_    0.874099 0.748078 0.754613 0.168580
H16   H     H_    0.436137 0.712774 0.252241 0.160465
H17   H     H_    0.373761 0.349674 0.332098 0.024668
H18   H     H_    0.578171 0.384405 0.325095 0.036757
H19   H     H_    0.387622 0.249310 0.217039 0.145786
H20   H     H_    0.441801 0.354025 0.204486 0.032822
H21   H     H_    0.592530 0.281856 0.210864 0.119909
H22   H     H_    0.721398 0.838471 0.292132 0.016965
H23   H     H_    0.179519 0.889710 0.226342 0.150207
H24   H     H_    0.018665 0.212298 0.689626 0.113060
H25   H     H_    0.297300 0.113149 0.717055 0.099352
H26   H     H_    0.146735 0.140942 0.782386 0.112957
H27   H     H_    0.096989 0.078285 0.695699 0.099141
H28   H     H_    0.471991 0.237633 0.699299 0.079940
H29   H     H_    0.565936 0.242382 0.861566 0.120701
H30   H     H_    0.511528 0.149471 0.796412 0.126547
H31   H     H_    0.371342 0.225777 0.826459 0.080191
H32   H     H_    0.683742 0.367070 0.109842 0.063943
H33   H     H_    0.578297 0.381436 0.990331 0.068535
H34   H     H_    0.842931 0.486645 0.658506 0.045615
H35   H     H_    0.610936 0.430265 0.877254 0.118609
H36   H     H_    0.899718 0.386421 0.199635 0.089063
H37   H     H_    0.531319 0.614742 0.889902 0.091961
H38   H     H_    0.635447 0.601972 0.009204 0.094488
H39   H     H_    0.592495 0.573617 0.129178 0.127121
H40   H     H_    0.235331 0.784724 0.303835 -1.116288
H41   H     H_    0.357686 0.513945 0.345090 0.044833
H42   H     H_    0.497876 0.122225 0.455071 0.108332
H43   H     H_    0.260940 0.910219 0.430150 0.078134
H44   H     H_    0.690965 0.863129 0.538905 0.109888
H45   H     H_    0.936383 0.084422 0.562626 0.068350
H46   H     H_    0.342509 0.663974 0.467261 0.053849
H47   H     H_    0.828277 0.328123 0.529382 0.044463
H48   H     H_    0.976823 0.886459 0.250481 0.078059
H49   H     H_    0.128800 0.924268 0.318615 0.004884
H50   H     H_    0.122095 0.692280 0.575236 0.007580
N1    N     N_2   0.530185 0.982834 0.484744 -0.231602
N2    N     N_2   0.665563 0.005626 0.510579 -0.226525
O1    O     O_2   0.884010 0.444810 0.325060 -0.478161
O2    O     O_3   0.645555 0.718879 0.650489 -0.603109
O3    O     O_3   0.998728 0.775060 0.334090 -0.631108
O4    O     O_2   0.305690 0.555220 0.674980 -0.430523
O5    O     O_3   0.057610 0.548940 0.585700 -0.527817
O6    O     O_3   0.548930 0.405410 0.631060 -0.440343
O7    O     O_3   0.149776 0.688635 0.685591 -0.561129
O8    O     O_3   0.631040 0.400420 0.463490 -0.499981
O9    O     O_3   0.135930 0.361590 0.595000 -0.448989
O10   O     O_2   0.162078 0.223732 0.493416 -0.494599
O11   O     O_3   0.204753 0.195158 0.621467 -0.607588
O12   O     O_3   0.132090 0.451130 0.414310 -0.488990
O13   O     O_3   0.558660 0.599640 0.536520 -0.478903
O14   O     O_2   0.381010 0.300300 0.465220 -0.418183
O15   O     O_3   0.537644 0.263906 0.344927 -0.638751
O16   O     O_2   0.477675 0.496286 0.755143 -0.530467
O17   O     O_3   0.505132 0.348089 0.773544 -0.625061
O18   O     O_3   0.640770 0.594650 0.368950 -0.479325
O19   O     O_2   0.751033 0.527262 0.243209 -0.445656
O20   O     O_3   0.047174 0.312548 0.318488 -0.644496
O21   O     O_3   0.665577 0.678362 0.251918 -0.533262
O22   O     O_2   0.808690 0.699720 0.534830 -0.490575
O23   O     O_3   0.053760 0.638480 0.405010 -0.446473
O24   O     O_2   0.974608 0.785920 0.470815 -0.510455
P1    P     P_3+3 0.056550 0.421630 0.336220 0.982530
P2    P     P_3+3 0.635450 0.689180 0.556380 1.034891
P3    P     P_3+3 0.083356 0.746618 0.411826 1.056469
P4    P     P_3+3 0.133150 0.578440 0.663790 1.051735
P5    P     P_3+3 0.097460 0.251670 0.568710 1.021240
P6    P     P_3+3 0.617909 0.581062 0.275070 1.011907
P7    P     P_3+3 0.553363 0.296839 0.438810 0.948812
P8    P     P_3+3 0.582553 0.424722 0.726888 1.030666
S1    S     S_3+6 0.584432 0.834861 0.177875 0.006940
O25   O     O_2   0.436019 0.876558 0.164947 -0.257925
O26   O     O_2   0.722779 0.889046 0.162402 -0.251286
O27   O     O_3   0.581848 0.742390 0.121779 -0.487801
H51   H     H_    0.570031 0.755842 0.072581 0.380724
O28   O     O_3   0.224048 0.282576 0.730129 -0.653060
C59   C     C_3   0.142017 0.321307 0.789305 0.144667
H52   H     H_    0.116889 0.278940 0.828073 0.071085
H53   H     H_    0.036218 0.348519 0.770548 0.112806
H54   H     H_    0.218170 0.374100 0.819304 0.076186
S2    S     S_3+6 0.736569 0.241903 0.732842 -0.197212
O29   O     O_2   0.733674 0.155013 0.689832 -0.343504
O30   O     O_2   0.811176 0.301149 0.689611 -0.453323
O31   O     O_3   0.838575 0.242123 0.810737 -0.562608
H55   H     H_    0.823633 0.296790 0.840941 0.310280
S3    S     S_3+6 0.076009 0.714932 0.203130 -0.022069
O32   O     O_2   0.216686 0.712561 0.156682 -0.274157
O33   O     O_2   0.043112 0.631009 0.223337 -0.322709
O34   O     O_3   0.919438 0.739114 0.156288 -0.472449
H56   H     H_    0.897499 0.690445 0.116891 0.373372
S4    S     S_3+6 0.263131 0.693855 0.838800 -0.049138
O35   O     O_2   0.113690 0.732385 0.822458 -0.284012
O36   O     O_2   0.329820 0.740947 0.910346 -0.244617
O37   O     O_3   0.394524 0.703941 0.776156 -0.494161
H57   H     H_    0.459255 0.655516 0.775563 0.315848
O38   O     O_3   0.319194 0.760658 0.621965 -0.689320
C60   C     C_3   0.366886 0.834077 0.672096 0.219777
H58   H     H_    0.328794 0.831511 0.727691 0.153054
H59   H     H_    0.323313 0.889900 0.653323 -0.015117
H60   H     H_    0.496591 0.842921 0.674617 0.094973

loop_
_geom_bond_atom_site_label_1
_geom_bond_atom_site_label_2
_ccdc_geom_bond_type
C60   H58   S    
S4    O35   D    
C53   P5    S    
S2    O30   D    
C39   C40   A    
O14   P7    D    
C55   O20   S    
N1    N2    D    
C55   H6    S    
C53   C54   A    
C38   H39   S    
S1    O25   D    
Ba2   O6    S    
C5    C6    S    
C37   C39   A    
O17   P8    S    
C43   C44   A    
C22   P4    S    
C49   H42   S    
O23   P3    S    
C60   H59   S    
O21   P6    S    
C35   C36   A    
C52   H47   S    
O7    P4    S    
C26   C27   A    
C33   C35   A    
Ba1   O13   S    
C6    H25   S    
O6    P8    S    
C7    H28   S    
C45   H3    S    
C3    C4    S    
Ba2   O9    S    
C19   C31   A    
O38   C60   S    
C12   O3    S    
C58   H13   S    
C34   C45   S    
Ba1   Ba2   S    
C59   H54   S    
C34   O7    S    
C28   H36   S    
Ba2   O4    S    
C29   S4    S    
C8    H29   S    
C14   C15   A    
C21   C22   A    
C7    C8    S    
C23   H49   S    
O2    P2    S    
C5    H24   S    
C24   C29   A    
S4    O36   D    
C4    H21   S    
C27   C41   A    
S2    O31   S    
C16   H35   S    
O11   P5    S    
O8    P7    S    
Ba1   O1    S    
C45   H2    S    
O24   P3    D    
C35   H38   S    
S1    O26   D    
Ba2   O5    S    
C50   C52   A    
C25   C32   A    
C60   H60   S    
C44   C46   A    
S2    O29   D    
C50   P7    S    
C13   C14   A    
C49   C50   A    
S3    O34   S    
O9    P5    S    
O12   P1    S    
C17   C20   A    
O27   H51   S    
Ba1   O18   S    
C5    O11   S    
C45   H4    S    
Ba2   O8    S    
C48   P3    S    
C16   C17   A    
O15   P7    S    
C26   C37   A    
O20   P1    S    
C44   H44   S    
C2    H1    S    
C15   C19   A    
C12   S3    S    
C49   C51   A    
Ba1   O8    S    
S3    O33   D    
C30   C33   A    
C47   H43   S    
C27   C28   A    
C5    O28   S    
C4    H20   S    
C29   C30   A    
C9    C25   A    
C59   H52   S    
C3    O15   S    
C1    H22   S    
C31   C32   A    
Ba1   O5    S    
C10   C11   A    
O16   P8    D    
C7    S2    S    
O19   P6    D    
Ba2   O14   S    
C51   N2    S    
C56   H8    S    
O37   H57   S    
O3    P3    S    
C8    H31   S    
C1    S1    S    
S4    O37   S    
C7    O17   S    
C11   C13   A    
C11   H32   S    
C34   H50   S    
O31   H55   S    
O13   P2    S    
O1    P1    D    
O5    P4    S    
C40   C41   A    
C3    H17   S    
C1    C2    S    
C40   H41   S    
C37   C38   A    
S1    O27   S    
Ba1   P1    S    
C42   C43   A    
C51   C54   A    
C42   C48   A    
C52   C53   A    
C9    C15   A    
Ba2   O12   S    
C10   C28   A    
C32   C36   A    
C22   C24   A    
C55   H5    S    
C13   H33   S    
C9    C10   A    
C56   H9    S    
C12   H40   S    
C42   H46   S    
O22   P2    D    
C58   H15   S    
C34   O38   S    
O28   C59   S    
C21   H34   S    
C6    H27   S    
Ba2   P4    S    
C30   C31   A    
C17   C18   A    
C1    H12   S    
Ba1   O12   S    
C39   P6    S    
C33   H37   S    
S3    O32   D    
C36   C38   A    
C55   C56   S    
C18   C24   A    
C57   O2    S    
C46   C47   A    
C58   H14   S    
C43   P2    S    
C41   P1    S    
C6    H26   S    
C59   H53   S    
C12   C23   S    
O18   P6    S    
C54   H45   S    
C2    H16   S    
O34   H56   S    
C57   H10   S    
C4    H19   S    
Ba2   O13   S    
C56   H7    S    
C57   C58   S    
C46   N1    S    
C18   C19   A    
C8    H30   S    
C14   C16   A    
C47   C48   A    
C20   P8    S    
C25   C26   A    
C23   H23   S    
C20   C21   A    
O10   P5    D    
C3    H18   S    
Ba1   O23   S    
Ba1   P2    S    
Ba1   O22   S    
C23   H48   S    
C57   H11   S    
C2    O21   S    
O4    P4    D    
