data_mof_unit_36063.cif
_audit_creation_date              2012-12-11T15:14:50-0500
_audit_creation_method            fapswitch 2.2
_symmetry_space_group_name_H-M    P1
_symmetry_Int_Tables_number       1
_space_group_crystal_system       triclinic
_cell_length_a                    22.179514
_cell_length_b                    7.236877
_cell_length_c                    19.417946
_cell_angle_alpha                 89.126086
_cell_angle_beta                  98.965872
_cell_angle_gamma                 89.737246
_cell_volume                      3078.26506296

loop_
_atom_site_label
_atom_site_type_symbol
_atom_type_description
_atom_site_fract_x
_atom_site_fract_y
_atom_site_fract_z
_atom_type_partial_charge
O1    O     O_R   0.448470 0.506130 0.415700 -0.517261
O2    O     O_R   0.551530 0.006130 0.584300 -0.545157
O3    O     O_R   0.436320 0.174490 0.555800 -0.544108
O4    O     O_R   0.563680 0.674490 0.444200 -0.520516
C1    C     C_R   0.420936 0.344164 0.574815 0.702354
C2    C     C_R   0.579694 0.844845 0.426079 0.711369
O5    O     O_R   0.441350 0.176340 0.414480 -0.549493
O6    O     O_R   0.558650 0.676340 0.585520 -0.524616
O7    O     O_R   0.556600 0.007100 0.441970 -0.540091
O8    O     O_R   0.443400 0.507100 0.558030 -0.531385
C3    C     C_R   0.428074 0.347048 0.388822 0.759970
C4    C     C_R   0.573090 0.843382 0.610401 0.710127
O9    O     O_3   0.537810 0.339550 0.509190 -0.371380
O10   O     O_3   0.462190 0.839550 0.490810 -0.380869
V1    V     V_3+5 0.492990 0.064280 0.498300 1.413561
V2    V     V_3+5 0.507010 0.564280 0.501700 1.496454
C5    C     C_R   0.866930 0.003058 0.698088 0.479782
C6    C     C_R   0.131507 0.296520 0.292574 0.474106
H1    H     H_    0.951452 0.052559 0.764989 0.149635
H2    H     H_    0.044342 0.355178 0.231848 0.148585
C7    C     C_R   0.884005 0.946457 0.822790 -0.202736
C8    C     C_R   0.116924 0.425208 0.175291 -0.182701
C9    C     C_R   0.587985 0.806945 0.738999 0.332215
C10   C     C_R   0.416024 0.456513 0.267013 0.335497
C11   C     C_R   0.623111 0.829321 0.804482 0.392844
C12   C     C_R   0.378765 0.530119 0.208068 0.337781
C13   C     C_R   0.685060 0.871109 0.810461 -0.300987
C14   C     C_R   0.315532 0.510247 0.199792 -0.240314
C15   C     C_R   0.714766 0.888772 0.751452 0.049875
C16   C     C_R   0.286766 0.410670 0.248650 0.047749
C17   C     C_R   0.676968 0.889798 0.684667 -0.078781
C18   C     C_R   0.324519 0.345036 0.310779 -0.099761
C19   C     C_R   0.779964 0.913288 0.756418 -0.089030
C20   C     C_R   0.221480 0.386753 0.240345 -0.097504
C21   C     C_R   0.803892 0.963409 0.694461 -0.161822
C22   C     C_R   0.195585 0.313626 0.297827 -0.156048
C23   C     C_R   0.764608 0.973514 0.629980 0.641614
C24   C     C_R   0.234020 0.254124 0.358863 0.639726
C25   C     C_R   0.703086 0.932146 0.625237 -0.221495
C26   C     C_R   0.296977 0.266778 0.364431 -0.245264
C27   C     C_R   0.822943 0.887227 0.819630 0.362418
C28   C     C_R   0.180979 0.422489 0.176145 0.378721
C29   C     C_R   0.904579 0.007967 0.762525 -0.342642
C30   C     C_R   0.093334 0.365176 0.233951 -0.345551
C31   C     C_R   0.613577 0.847422 0.678577 -0.202275
C32   C     C_R   0.388978 0.370054 0.319999 -0.208675
H3    H     H_    0.708032 0.891925 0.862499 0.204330
H4    H     H_    0.290448 0.585599 0.156438 0.197210
H5    H     H_    0.675637 0.937291 0.573979 0.136107
H6    H     H_    0.324033 0.218132 0.412569 0.144675
C33   C     C_3   0.780983 0.804501 0.313045 0.377142
C34   C     C_3   0.233716 0.261835 0.705840 0.392230
C35   C     C_3   0.804264 0.988044 0.284595 -0.317607
C36   C     C_3   0.191769 0.432599 0.710759 -0.381959
H7    H     H_    0.845358 0.065201 0.308047 0.172538
H8    H     H_    0.145565 0.459949 0.681118 0.151574
H9    H     H_    0.723275 0.205605 0.285797 0.200086
H10   H     H_    0.248782 0.690447 0.677989 0.187893
C37   C     C_1   0.875324 0.937318 0.121257 -0.159705
C38   C     C_1   0.124477 0.442629 0.878754 -0.165706
C39   C     C_1   0.628387 0.855300 0.384210 -0.156660
C40   C     C_1   0.374055 0.354682 0.619193 -0.174501
C41   C     C_3   0.770804 0.722303 0.239577 0.447903
C42   C     C_3   0.248509 0.247526 0.785769 0.511326
C43   C     C_3   0.793410 0.905583 0.210134 -0.142558
C44   C     C_3   0.207482 0.418294 0.791391 -0.134546
C45   C     C_3   0.705427 0.800199 0.227987 0.239057
C46   C     C_3   0.303353 0.375675 0.784189 0.196474
C47   C     C_3   0.715314 0.880859 0.301643 -0.082916
C48   C     C_3   0.289203 0.387808 0.704115 -0.094684
C49   C     C_3   0.727296 0.982171 0.198348 0.564189
C50   C     C_3   0.262773 0.545990 0.789726 0.600487
C51   C     C_3   0.737376 0.064931 0.272371 -0.219032
C52   C     C_3   0.248217 0.560764 0.709116 -0.258373
C53   C     C_1   0.837918 0.923277 0.160662 0.121026
C54   C     C_1   0.162196 0.432975 0.839766 0.118411
C55   C     C_1   0.668561 0.866102 0.348383 0.128577
C56   C     C_1   0.335385 0.368795 0.656875 0.071560
O11   O     O_R   0.056650 0.288730 0.942060 -0.537741
O12   O     O_R   0.943350 0.788730 0.057940 -0.533198
O13   O     O_R   0.058660 0.616870 0.085540 -0.534272
O14   O     O_R   0.941340 0.116870 0.914460 -0.540242
C57   C     C_R   0.073262 0.446496 0.110129 0.746650
C58   C     C_R   0.926957 0.949857 0.889307 0.766114
O15   O     O_R   0.063700 0.618520 0.944220 -0.528256
O16   O     O_R   0.936300 0.118520 0.055780 -0.530236
O17   O     O_R   0.948460 0.787610 0.915680 -0.544200
O18   O     O_R   0.051540 0.287610 0.084320 -0.543736
C59   C     C_R   0.078661 0.450701 0.924472 0.692098
C60   C     C_R   0.921026 0.949393 0.075244 0.718541
O19   O     O_3   0.962230 0.453430 0.990860 -0.384035
O20   O     O_3   0.037770 0.953430 0.009140 -0.381329
V3    V     V_3+5 0.007010 0.728750 0.001700 1.417836
V4    V     V_3+5 0.992990 0.228750 0.998300 1.406825
O21   O     O_3   0.806227 0.709039 0.374858 -0.541326
C61   C     C_3   0.867922 0.664867 0.372457 0.107806
H11   H     H_    0.896025 0.792324 0.378715 0.108334
H12   H     H_    0.873446 0.597977 0.322521 0.162528
C62   C     C_3   0.891160 0.529611 0.431992 -0.265450
H13   H     H_    0.889892 0.597424 0.482715 0.199908
H14   H     H_    0.860927 0.406905 0.428858 0.229481
C63   C     C_3   0.956296 0.465472 0.428436 -0.846746
H15   H     H_    0.957936 0.389795 0.379389 0.241942
H16   H     H_    0.972400 0.371256 0.473277 0.245062
H17   H     H_    0.987406 0.585737 0.430599 0.232723
O22   O     O_3   0.222865 0.101912 0.664921 -0.554374
C64   C     C_3   0.170234 0.127235 0.614710 0.109691
H18   H     H_    0.176064 0.247656 0.579904 0.151219
H19   H     H_    0.129460 0.148804 0.640762 0.115285
C65   C     C_3   0.159557 0.954173 0.570571 -0.263118
H20   H     H_    0.200210 0.926504 0.545187 0.227794
H21   H     H_    0.152681 0.833757 0.604661 0.190550
C66   C     C_3   0.103479 0.977456 0.514576 -0.804904
H22   H     H_    0.062368 0.007439 0.538655 0.219452
H23   H     H_    0.095720 0.848364 0.484388 0.224878
H24   H     H_    0.110308 0.093213 0.478540 0.297531
F1    F     F_    0.699616 0.073294 0.138536 -0.696363
F2    F     F_    0.277203 0.691949 0.834187 -0.643467
O23   O     O_3   0.652009 0.698507 0.206335 -0.575974
C67   C     C_3   0.645616 0.654245 0.135190 0.171597
H25   H     H_    0.641554 0.501525 0.131546 0.172117
H26   H     H_    0.684935 0.695176 0.108849 0.137946
C68   C     C_3   0.587050 0.745058 0.097465 -0.362505
H27   H     H_    0.550206 0.732613 0.130052 0.210574
H28   H     H_    0.595372 0.894160 0.089033 0.240492
C69   C     C_3   0.565276 0.654989 0.027867 -0.846382
H29   H     H_    0.603068 0.642952 0.996819 0.266533
H30   H     H_    0.527915 0.739150 0.998098 0.238915
H31   H     H_    0.547232 0.515813 0.037236 0.243204
O24   O     O_3   0.363287 0.347164 0.819493 -0.573081
C70   C     C_3   0.364562 0.341548 0.892470 0.177948
H32   H     H_    0.384845 0.206819 0.912601 0.141334
H33   H     H_    0.318797 0.351703 0.909403 0.129227
C71   C     C_3   0.404960 0.497475 0.925229 -0.346743
H34   H     H_    0.451385 0.484044 0.910881 0.206543
H35   H     H_    0.385402 0.632870 0.905029 0.249408
C72   C     C_3   0.409860 0.492305 0.004308 -0.803178
H36   H     H_    0.363814 0.499656 0.019911 0.259142
H37   H     H_    0.436467 0.612119 0.026550 0.253119
H38   H     H_    0.433723 0.363961 0.025711 0.227949
F3    F     F_    0.786760 0.546276 0.221891 -0.673004
F4    F     F_    0.248700 0.086385 0.824952 -0.626877
F5    F     F_    0.785228 0.023205 0.570127 -0.663444
F6    F     F_    0.211101 0.184060 0.414600 -0.688762
O25   O     O_3   0.892103 0.049482 0.639293 -0.538049
C73   C     C_3   0.911905 0.886881 0.609344 0.180244
H39   H     H_    0.911085 0.916623 0.552885 0.166539
H40   H     H_    0.880755 0.767310 0.612608 0.113605
C74   C     C_3   0.977442 0.834461 0.641853 -0.390099
H41   H     H_    0.007456 0.956666 0.640749 0.208487
H42   H     H_    0.978638 0.789310 0.696936 0.197190
C75   C     C_3   0.002118 0.676732 0.602817 -0.829313
H43   H     H_    0.973563 0.551634 0.604840 0.246885
H44   H     H_    0.049590 0.642935 0.627270 0.236657
H45   H     H_    0.002401 0.717763 0.547611 0.237161
O26   O     O_3   0.105337 0.202899 0.342966 -0.541959
C76   C     C_3   0.093630 0.017557 0.321911 0.144324
H46   H     H_    0.117289 0.924030 0.363465 0.164548
H47   H     H_    0.111224 0.979428 0.272963 0.088562
C77   C     C_3   0.025000 0.980091 0.312997 -0.351546
H48   H     H_    0.008749 0.994916 0.363993 0.199708
H49   H     H_    0.000126 0.082318 0.275629 0.196290
C78   C     C_3   0.010385 0.786225 0.285490 -0.838024
H50   H     H_    0.025340 0.769884 0.233892 0.238833
H51   H     H_    0.960396 0.763680 0.279027 0.226961
H52   H     H_    0.033661 0.680406 0.322507 0.243853
O27   O     O_3   0.806085 0.811139 0.879476 -0.591645
C79   C     C_3   0.821957 0.621171 0.885305 0.103319
H53   H     H_    0.840861 0.591315 0.940790 0.162381
H54   H     H_    0.857884 0.579764 0.853948 0.114667
C80   C     C_3   0.765260 0.502821 0.865196 -0.351399
H55   H     H_    0.729815 0.540444 0.897274 0.221482
H56   H     H_    0.746678 0.527403 0.809308 0.208592
C81   C     C_3   0.780718 0.298601 0.876098 -0.771205
H57   H     H_    0.817405 0.261532 0.845947 0.234539
H58   H     H_    0.739737 0.216109 0.857121 0.228225
H59   H     H_    0.795951 0.266126 0.932229 0.240611
O28   O     O_3   0.204077 0.443504 0.114164 -0.599715
C82   C     C_3   0.196268 0.284371 0.071628 0.071605
H60   H     H_    0.229486 0.296079 0.034481 0.150138
H61   H     H_    0.150876 0.287341 0.039078 0.134864
C83   C     C_3   0.206891 0.095760 0.109969 -0.385994
H62   H     H_    0.252123 0.093502 0.143533 0.209437
H63   H     H_    0.171324 0.071210 0.143479 0.190609
C84   C     C_3   0.203639 0.938770 0.057928 -0.738245
H64   H     H_    0.157519 0.933085 0.026344 0.253139
H65   H     H_    0.213057 0.805312 0.086458 0.241433
H66   H     H_    0.237728 0.958768 0.022270 0.239578
O29   O     O_3   0.530938 0.726668 0.735443 -0.557372
C85   C     C_3   0.483975 0.859993 0.718709 0.082857
H67   H     H_    0.468856 0.862908 0.661420 0.140577
H68   H     H_    0.498053 0.002164 0.735658 0.087578
C86   C     C_3   0.429724 0.802740 0.753795 -0.304706
H69   H     H_    0.416320 0.658938 0.739363 0.229050
H70   H     H_    0.443055 0.807213 0.811340 0.200992
C87   C     C_3   0.375246 0.930929 0.731756 -0.728173
H71   H     H_    0.388535 0.075413 0.744103 0.254423
H72   H     H_    0.337505 0.892971 0.760346 0.310538
H73   H     H_    0.358856 0.920251 0.674915 0.223680
O30   O     O_3   0.477559 0.501524 0.280146 -0.569589
C88   C     C_3   0.511055 0.403669 0.236026 0.078360
H74   H     H_    0.555298 0.475491 0.236862 0.182811
H75   H     H_    0.488878 0.405678 0.180664 0.150076
C89   C     C_3   0.524307 0.204942 0.262498 -0.373904
H76   H     H_    0.549577 0.206816 0.316578 0.220434
H77   H     H_    0.480797 0.129902 0.262992 0.184420
C90   C     C_3   0.562256 0.102674 0.216032 -0.799544
H78   H     H_    0.538181 0.101923 0.161424 0.218984
H79   H     H_    0.569521 0.957722 0.234938 0.254128
H80   H     H_    0.607258 0.170060 0.217319 0.267347
O31   O     O_3   0.597062 0.802001 0.863905 -0.563147
C91   C     C_3   0.574432 0.972581 0.884478 0.067533
H81   H     H_    0.531399 0.943683 0.904992 0.146187
H82   H     H_    0.562049 0.074765 0.840822 0.099195
C92   C     C_3   0.620507 0.059303 0.941733 -0.292315
H83   H     H_    0.639747 0.952567 0.980740 0.234190
H84   H     H_    0.658636 0.119860 0.918435 0.184693
C93   C     C_3   0.591025 0.211921 0.978311 -0.800567
H85   H     H_    0.572453 0.321261 0.939943 0.240351
H86   H     H_    0.625804 0.273556 0.018649 0.269593
H87   H     H_    0.553503 0.155707 0.004053 0.218577
O32   O     O_3   0.404326 0.623798 0.157478 -0.580389
C94   C     C_3   0.408473 0.813991 0.172565 0.088093
H88   H     H_    0.457485 0.851161 0.183071 0.150211
H89   H     H_    0.387662 0.855043 0.219072 0.110748
C95   C     C_3   0.377587 0.922596 0.108732 -0.327147
H90   H     H_    0.401851 0.898301 0.063769 0.201701
H91   H     H_    0.330064 0.873588 0.095021 0.213532
C96   C     C_3   0.376919 0.128395 0.122669 -0.834435
H92   H     H_    0.357842 0.154443 0.171101 0.232179
H93   H     H_    0.348208 0.201149 0.078526 0.245545
H94   H     H_    0.423989 0.182441 0.128385 0.231616

loop_
_geom_bond_atom_site_label_1
_geom_bond_atom_site_label_2
_ccdc_geom_bond_type
O18   V4    S    
C24   C26   A    
C80   H55   S    
C41   C43   S    
C34   C48   S    
C69   H29   S    
C9    C31   A    
C48   C56   S    
C64   H19   S    
C88   H74   S    
C47   C55   S    
O21   C61   S    
O1    C3    A    
C58   O17   A    
C70   C71   S    
O2    C4    A    
C71   C72   S    
O25   C73   S    
C93   H85   S    
C94   C95   S    
O3    V1    S    
C68   H27   S    
C38   C59   S    
O5    C3    A    
C72   H37   S    
H10   C52   S    
C85   H67   S    
O14   V4    S    
C27   O27   S    
C42   C46   S    
C2    C39   S    
O26   C76   S    
C21   C23   A    
C10   C12   A    
C73   H39   S    
C96   H94   S    
C74   H42   S    
C19   C21   A    
C84   H65   S    
C13   C15   A    
O22   C64   S    
C61   C62   S    
C15   C19   A    
C63   H17   S    
H9    C51   S    
C11   O31   S    
C81   H57   S    
O16   V4    S    
C85   C86   S    
O13   C57   A    
C7    C29   A    
O15   V3    S    
O15   C59   A    
C79   C80   S    
C8    C30   A    
C94   H88   S    
C39   C55   T    
O30   C88   S    
C86   H70   S    
C61   H12   S    
C48   C52   S    
C90   H80   S    
C85   H68   S    
C64   H18   S    
C7    C58   S    
C47   C51   S    
C35   C43   S    
C45   C49   S    
C92   H84   S    
C67   C68   S    
C46   C50   S    
C66   H24   S    
C79   H54   S    
C57   O18   A    
C34   O22   S    
O6    V2    S    
C36   C52   S    
C76   H46   S    
C88   H75   S    
C63   H15   S    
C18   C32   A    
C2    O7    A    
C87   H73   S    
C12   C14   A    
H2    C30   S    
C34   C36   S    
O28   C82   S    
C73   H40   S    
C35   H7    S    
C23   C25   A    
C80   C81   S    
C44   C50   S    
C20   C28   A    
C16   C20   A    
C90   H78   S    
C77   C78   S    
C78   H52   S    
C33   C41   S    
O11   V4    S    
C87   H72   S    
O16   C60   A    
C92   C93   S    
O27   C79   S    
C49   C51   S    
C49   F1    S    
C4    C31   S    
C84   H66   S    
C71   H35   S    
O5    V1    S    
H1    C29   S    
C69   H31   S    
O3    C1    A    
C43   C49   S    
C38   C54   T    
C65   H20   S    
C45   C47   S    
C83   C84   S    
C77   H49   S    
O4    V2    S    
C75   H45   S    
C5    O25   S    
C92   H83   S    
C5    C29   A    
C41   C45   S    
C12   O32   S    
C96   H92   S    
C6    C30   A    
C73   C74   S    
O13   V3    S    
C93   H86   S    
O31   C91   S    
C65   C66   S    
C91   C92   S    
O6    C4    A    
C86   C87   S    
C44   C54   S    
C61   H11   S    
C62   C63   S    
C94   H89   S    
C41   F3    S    
O1    V2    S    
C89   H76   S    
C63   H16   S    
O2    V1    S    
C81   H59   S    
C42   C44   S    
C7    C27   A    
C50   C52   S    
C79   H53   S    
C62   H14   S    
C75   H44   S    
C86   H69   S    
C76   C77   S    
O14   C58   A    
C34   C42   S    
C96   H93   S    
C88   C89   S    
C74   C75   S    
O4    C2    A    
C11   C13   A    
C70   H32   S    
C37   C53   T    
C9    O29   S    
C6    O26   S    
C67   H25   S    
C67   H26   S    
C93   H87   S    
C66   H22   S    
C13   H3    S    
C14   H4    S    
C69   H30   S    
C23   F5    S    
C83   H63   S    
C78   H51   S    
C24   F6    S    
C40   C56   T    
C35   C51   S    
C89   H77   S    
C87   H71   S    
C70   H33   S    
C68   C69   S    
O23   C67   S    
C25   H5    S    
C36   H8    S    
C71   H34   S    
C36   C44   S    
C80   H56   S    
C95   C96   S    
C33   C47   S    
C72   H36   S    
C95   H91   S    
C43   C53   S    
C62   H13   S    
C19   C27   A    
C8    C57   S    
C82   C83   S    
C14   C16   A    
O24   C70   S    
O7    V1    S    
C10   C32   A    
C1    O8    A    
C15   C17   A    
O8    V2    S    
C74   H41   S    
C77   H48   S    
O19   V4    S    
C16   C18   A    
C6    C22   A    
C84   H64   S    
C8    C28   A    
C42   F4    S    
C28   O28   S    
C26   H6    S    
C72   H38   S    
O17   V3    S    
C22   C24   A    
O20   V3    S    
C64   C65   S    
C81   H58   S    
C17   C25   A    
C1    C40   S    
C89   C90   S    
C20   C22   A    
C18   C26   A    
O12   C60   A    
O29   C85   S    
C65   H21   S    
O11   C59   A    
C78   H50   S    
C68   H28   S    
C91   H82   S    
C82   H60   S    
C9    C11   A    
C91   H81   S    
C10   O30   S    
C76   H47   S    
C95   H90   S    
C17   C31   A    
O9    V2    S    
C50   F2    S    
C90   H79   S    
C46   C48   S    
O10   V1    S    
C46   O24   S    
C3    C32   S    
C82   H61   S    
C75   H43   S    
C5    C21   A    
C33   C35   S    
O12   V3    S    
C45   O23   S    
O32   C94   S    
C37   C60   S    
C83   H62   S    
C33   O21   S    
C66   H23   S    
