data_mof_unit_11588.cif
_audit_creation_date              2013-03-05T16:36:43-0500
_audit_creation_method            fapswitch 2.2
_symmetry_space_group_name_H-M    P1
_symmetry_Int_Tables_number       1
_space_group_crystal_system       triclinic
_cell_length_a                    7.789917
_cell_length_b                    9.093574
_cell_length_c                    16.958672
_cell_angle_alpha                 89.369598
_cell_angle_beta                  94.612948
_cell_angle_gamma                 89.927208
_cell_volume                      1197.35488989

loop_
_atom_site_label
_atom_site_type_symbol
_atom_site_description
_atom_site_fract_x
_atom_site_fract_y
_atom_site_fract_z
_atom_type_partial_charge
O1    O     O_R   0.642760 0.288400 0.500000 -0.552677
O2    O     O_R   0.357240 0.711600 0.500000 -0.552712
O3    O     O_R   0.357190 0.288380 0.500000 -0.585174
O4    O     O_R   0.642810 0.711620 0.500000 -0.585144
C1    C     C_R   0.500051 0.220032 0.500076 0.884254
C2    C     C_R   0.499948 0.779968 0.499920 0.884103
O5    O     O_R   0.658410 0.498660 0.613920 -0.547989
O6    O     O_R   0.341590 0.501340 0.386080 -0.547960
O7    O     O_R   0.372840 0.498650 0.613930 -0.571181
O8    O     O_R   0.627160 0.501350 0.386070 -0.571163
C3    C     C_R   0.522422 0.494143 0.651403 0.915140
C4    C     C_R   0.477578 0.505849 0.348597 0.914918
Cu1   Cu    Cu3+1 0.669080 0.500010 0.500000 1.112596
Cu2   Cu    Cu3+1 0.330920 0.499990 0.500000 1.112596
N1    N     N_1   0.076820 0.499970 0.500010 -0.014942
N2    N     N_1   0.923180 0.500030 0.499990 -0.014952
C5    C     C_R   0.539132 0.494381 0.737905 -0.258081
C6    C     C_R   0.460875 0.505618 0.262096 -0.258046
C7    C     C_R   0.492231 0.621994 0.777748 0.158201
C8    C     C_R   0.507871 0.378050 0.222242 0.158282
C9    C     C_R   0.505794 0.623961 0.860823 0.264689
C10   C     C_R   0.494345 0.376126 0.139165 0.264645
C11   C     C_R   0.562294 0.496956 0.903613 0.203573
C12   C     C_R   0.437810 0.503138 0.096388 0.203580
C13   C     C_R   0.611296 0.372283 0.864005 -0.211253
C14   C     C_R   0.388723 0.627769 0.136010 -0.211184
C15   C     C_R   0.600626 0.368467 0.781406 0.253054
C16   C     C_R   0.399332 0.631523 0.218608 0.253120
N3    N     N_2   0.571924 0.491617 0.987018 -0.146591
N4    N     N_2   0.428190 0.508510 0.012983 -0.146612
C17   C     C_1   0.500083 0.065371 0.500033 -0.058965
C18   C     C_1   0.499916 0.934629 0.499961 -0.059018
H1    H     H_    0.656578 0.276543 0.898215 0.237246
H2    H     H_    0.343409 0.723519 0.101816 0.237193
Br1   Br    Br    0.587653 0.205170 0.281442 -0.342415
Br2   Br    Br    0.412521 0.794879 0.718532 -0.342441
Br3   Br    Br    0.545306 0.199069 0.083919 -0.281068
Br4   Br    Br    0.454916 0.801055 0.916054 -0.280977
N5    N     N_R   0.645866 0.234248 0.743614 0.138362
O9    O     O_R   0.623271 0.108239 0.778364 -0.259751
O10   O     O_R   0.731145 0.236994 0.680794 -0.336949
N6    N     N_R   0.353966 0.765671 0.256424 0.138207
O11   O     O_R   0.376871 0.891741 0.221793 -0.259827
O12   O     O_R   0.268155 0.762802 0.319081 -0.336687

loop_
_geom_bond_atom_site_label_1
_geom_bond_atom_site_label_2
_geom_bond_distance
_ccdc_geom_bond_type
C2    C18   1.406430 S    
O7    Cu2   1.933336 S    
N3    N4    1.245599 D    
C13   C15   1.397366 A    
C14   C16   1.397337 A    
C17   C18   1.188933 T    
O6    C4    1.278977 A    
C11   C13   1.392522 A    
N5    O10   1.300079 A    
Cu1   Cu2   2.634239 S    
C14   H2    1.083601 S    
O5    C3    1.278983 A    
O7    C3    1.281991 A    
C12   C14   1.392535 A    
O2    C2    1.274498 A    
O3    Cu2   1.934884 S    
N6    O12   1.300109 A    
O1    C1    1.274499 A    
C11   N3    1.410683 S    
C16   N6    1.441126 S    
C7    C9    1.404622 A    
C8    C10   1.404628 A    
O8    C4    1.281985 A    
C7    Br2   1.930842 S    
C9    C11   1.408203 A    
O2    Cu2   1.935442 S    
C10   C12   1.408234 A    
C1    C17   1.406430 S    
C12   N4    1.410691 S    
O1    Cu1   1.935443 S    
N6    O11   1.301392 A    
C4    C6    1.462272 S    
N1    N2    1.196816 T    
C5    C15   1.417008 A    
O5    Cu1   1.940291 S    
C6    C16   1.416946 A    
C6    C8    1.411564 A    
O4    C2    1.273883 A    
Cu1   N2    1.979431 S    
C15   N5    1.441212 S    
N5    O9    1.301392 A    
Cu2   N1    1.979431 S    
C3    C5    1.462280 S    
O6    Cu2   1.940293 S    
C5    C7    1.411586 A    
C10   Br3   1.928503 S    
C8    Br1   1.930832 S    
C9    Br4   1.928502 S    
O4    Cu1   1.934884 S    
C13   H1    1.083599 S    
O3    C1    1.273882 A    
O8    Cu1   1.933338 S    
