data_mof_unit_13578.cif
_audit_creation_date              2012-12-10T19:27:31-0500
_audit_creation_method            fapswitch 2.2
_symmetry_space_group_name_H-M    P1
_symmetry_Int_Tables_number       1
_space_group_crystal_system       triclinic
_cell_length_a                    22.646523
_cell_length_b                    10.643444
_cell_length_c                    9.818335
_cell_angle_alpha                 90.540698
_cell_angle_beta                  87.698418
_cell_angle_gamma                 88.505422
_cell_volume                      2363.73816627

loop_
_atom_site_label
_atom_site_type_symbol
_atom_type_description
_atom_site_fract_x
_atom_site_fract_y
_atom_site_fract_z
_atom_type_partial_charge
C1    C     C_R   0.499139 0.257196 0.499673 0.881615
C2    C     C_R   0.498846 0.742335 0.500866 0.905840
C3    C     C_R   0.232794 0.635335 0.512244 0.197969
C4    C     C_R   0.764844 0.390214 0.383682 0.169701
C5    C     C_R   0.294479 0.629660 0.527257 0.119317
C6    C     C_R   0.703346 0.396365 0.398185 0.133769
C7    C     C_R   0.324954 0.513688 0.506764 -0.130933
C8    C     C_R   0.675994 0.488870 0.484883 -0.124331
C9    C     C_R   0.293528 0.404116 0.496658 -0.293322
C10   C     C_R   0.711203 0.569610 0.557608 -0.275202
C11   C     C_R   0.232707 0.410822 0.486592 0.268461
C12   C     C_R   0.772062 0.573405 0.526106 0.262390
C13   C     C_R   0.204604 0.528195 0.460148 0.061955
C14   C     C_R   0.797270 0.496491 0.418202 0.080305
C15   C     C_3   0.544894 0.038530 0.569409 -0.216468
C16   C     C_3   0.451705 0.959162 0.433360 -0.193699
C17   C     C_3   0.548426 0.953332 0.441223 0.166748
C18   C     C_3   0.448314 0.044420 0.561534 0.179938
C19   C     C_3   0.498015 0.877307 0.502552 -0.048069
C20   C     C_3   0.498676 0.121202 0.499734 -0.056445
C21   C     C_3   0.494226 0.960103 0.631069 -0.192895
C22   C     C_3   0.502501 0.037555 0.371077 -0.210942
C23   C     C_R   0.388927 0.504257 0.502455 0.940605
C24   C     C_R   0.611447 0.500362 0.496834 0.925105
C25   C     C_3   0.486229 0.392225 0.047589 0.178353
C26   C     C_3   0.513794 0.607765 0.952403 0.168663
C27   C     C_3   0.538027 0.416112 0.946786 0.164242
C28   C     C_3   0.461964 0.583863 0.053174 0.157485
C29   C     C_3   0.448842 0.474434 0.957503 0.130505
C30   C     C_3   0.551176 0.525486 0.042462 0.139158
C31   C     C_R   0.877854 0.639630 0.348858 0.586570
C32   C     C_R   0.129030 0.431919 0.319883 0.588299
C33   C     C_R   0.883183 0.434019 0.266252 0.596444
C34   C     C_R   0.123981 0.649278 0.348878 0.602194
C35   C     C_R   0.945126 0.428865 0.261789 -0.089795
C36   C     C_R   0.063563 0.652648 0.320372 -0.110457
C37   C     C_R   0.973090 0.538742 0.301577 -0.071675
C38   C     C_R   0.034648 0.538987 0.309675 -0.085076
C39   C     C_R   0.939549 0.651358 0.324107 -0.096739
C40   C     C_R   0.068266 0.427499 0.293760 -0.066147
C41   C     C_R   0.979865 0.320842 0.222417 0.155305
C42   C     C_R   0.031584 0.763606 0.295162 0.199913
C43   C     C_R   0.040854 0.318030 0.248852 0.146586
C44   C     C_R   0.969719 0.766802 0.316202 0.159264
H1    H     H_    0.315994 0.313603 0.501324 0.198916
H2    H     H_    0.691292 0.632046 0.635301 0.182317
H3    H     H_    0.583082 0.071559 0.625855 0.189696
H4    H     H_    0.413246 0.924098 0.379238 0.191248
H5    H     H_    0.489753 0.926609 0.737369 0.194357
H6    H     H_    0.506969 0.070514 0.264595 0.195674
N1    N     N_R   0.854038 0.522302 0.348396 -0.329461
N2    N     N_R   0.150978 0.536732 0.380835 -0.336078
N3    N     N_3   0.499960 0.500030 0.863290 -0.164636
N4    N     N_3   0.500040 0.499970 0.136710 -0.164043
O1    O     O_R   0.500000 0.313960 0.616610 -0.594696
O2    O     O_R   0.500000 0.686040 0.383390 -0.594776
O3    O     O_R   0.500030 0.313950 0.383350 -0.608886
O4    O     O_R   0.499970 0.686050 0.616650 -0.624651
O5    O     O_R   0.416140 0.499970 0.616650 -0.615496
O6    O     O_R   0.583860 0.500030 0.383350 -0.585226
O7    O     O_R   0.416170 0.499960 0.383400 -0.601762
O8    O     O_R   0.583830 0.500040 0.616600 -0.609390
O9    O     O_2   0.842071 0.741719 0.367750 -0.533361
O10   O     O_2   0.166144 0.337839 0.275700 -0.498356
O11   O     O_2   0.852833 0.362490 0.181470 -0.489221
O12   O     O_2   0.155118 0.754990 0.339892 -0.502335
Zn1   Zn    Zn3+2 0.499980 0.500010 0.655740 0.967545
Zn2   Zn    Zn3+2 0.500020 0.499990 0.344260 0.988806
I1    I     I_    0.943307 0.158311 0.131093 -0.219443
I2    I     I_    0.067989 0.882563 0.143835 -0.228753
I3    I     I_    0.600858 0.281442 0.858348 -0.352063
I4    I     I_    0.398873 0.718172 0.141310 -0.352319
N5    N     N_2   0.468412 0.274898 0.108338 -0.274209
H7    H     H_    0.432594 0.286295 0.175845 0.253112
C45   C     C_3   0.463669 0.169087 0.016191 -0.776288
H8    H     H_    0.438007 0.094155 0.067303 0.243136
H9    H     H_    0.508170 0.129110 0.988358 0.269450
H10   H     H_    0.441031 0.197001 0.922735 0.267614
N6    N     N_2   0.531663 0.725028 0.891584 -0.277373
H11   H     H_    0.567413 0.713434 0.823911 0.252658
C46   C     C_3   0.536724 0.830751 0.983699 -0.780286
H12   H     H_    0.561395 0.906479 0.931385 0.243024
H13   H     H_    0.560565 0.803210 0.075634 0.266643
H14   H     H_    0.492289 0.869553 0.014144 0.269815
N7    N     N_2   0.392375 0.443824 0.902893 -0.289010
H15   H     H_    0.396330 0.379508 0.823903 0.273771
C47   C     C_3   0.345449 0.413086 0.000272 -0.690813
H16   H     H_    0.302291 0.425200 0.951650 0.266841
H17   H     H_    0.345143 0.474773 0.091747 0.265915
H18   H     H_    0.350260 0.313712 0.032009 0.242631
N8    N     N_2   0.607731 0.555526 0.096983 -0.267858
H19   H     H_    0.603897 0.619827 0.175952 0.272735
C48   C     C_3   0.654713 0.585900 0.999571 -0.696208
H20   H     H_    0.697853 0.573769 0.048294 0.270438
H21   H     H_    0.649982 0.685181 0.967470 0.234763
H22   H     H_    0.655007 0.524009 0.908272 0.262214
N9    N     N_2   0.073764 0.203074 0.243008 -0.245016
H23   H     H_    0.070632 0.152478 0.154069 0.278245
C49   C     C_3   0.068747 0.130944 0.366922 -0.577725
H24   H     H_    0.106490 0.062635 0.370581 0.289060
H25   H     H_    0.026879 0.079884 0.369834 0.231072
H26   H     H_    0.069009 0.192860 0.458542 0.239396
N10   N     N_2   0.939821 0.885725 0.321007 -0.283067
H27   H     H_    0.903065 0.893773 0.262950 0.305950
C50   C     C_3   0.932456 0.940261 0.456445 -0.617109
H28   H     H_    0.898894 0.889304 0.518114 0.287238
H29   H     H_    0.917840 0.040093 0.449053 0.257966
H30   H     H_    0.974904 0.936490 0.509476 0.226096
I5    I     I_    0.183427 0.774768 0.631701 -0.221294
I6    I     I_    0.803062 0.205470 0.404954 -0.252986
N11   N     N_2   0.325651 0.739258 0.562123 -0.323182
H31   H     H_    0.309006 0.822539 0.524555 0.273701
C51   C     C_3   0.343608 0.748110 0.701939 -0.624273
H32   H     H_    0.314920 0.818160 0.759385 0.266752
H33   H     H_    0.389901 0.779405 0.702914 0.248352
H34   H     H_    0.340792 0.656634 0.755250 0.261555
N12   N     N_2   0.669473 0.310956 0.323269 -0.274303
H35   H     H_    0.690007 0.278276 0.233611 0.275801
C52   C     C_3   0.642787 0.212055 0.401712 -0.657227
H36   H     H_    0.676497 0.140201 0.428694 0.272172
H37   H     H_    0.609563 0.166983 0.339091 0.251350
H38   H     H_    0.620793 0.249564 0.496908 0.220259
I7    I     I_    0.187383 0.253078 0.565365 -0.239254
I8    I     I_    0.822876 0.671374 0.668675 -0.259047
I9    I     I_    0.627970 0.871292 0.349726 -0.395208
I10   I     I_    0.368950 0.110449 0.665698 -0.426104

loop_
_geom_bond_atom_site_label_1
_geom_bond_atom_site_label_2
_ccdc_geom_bond_type
C47   H16   S    
C9    H1    S    
C48   H20   S    
C8    C24   S    
C26   N6    S    
C18   C21   S    
N5    C45   S    
N5    H7    S    
C36   C42   A    
N11   H31   S    
C15   H3    S    
C34   O12   S    
C21   H5    S    
C46   H12   S    
C33   O11   S    
N11   C51   S    
N7    H15   S    
C23   O5    A    
C50   H29   S    
O8    Zn1   S    
C28   C29   S    
C35   C37   A    
N12   C52   S    
N4    Zn2   S    
C42   I2    S    
C18   C20   S    
C15   C17   S    
C45   H9    S    
C32   N2    A    
O5    Zn1   S    
C40   C43   A    
C14   N1    S    
C10   H2    S    
C24   O8    A    
C6    N12   S    
C29   N7    S    
C3    C13   A    
C22   H6    S    
C51   H34   S    
N7    C47   S    
C48   H21   S    
C27   C30   S    
C41   C43   A    
C16   H4    S    
C28   I4    S    
C42   C44   A    
C35   C41   A    
C26   C28   S    
N9    C49   S    
C44   N10   S    
N9    H23   S    
C52   H37   S    
C25   C29   S    
C15   C20   S    
C50   H30   S    
C31   O9    S    
C25   N4    S    
C32   O10   S    
C4    C6    A    
N8    H19   S    
C5    C7    A    
C28   N4    S    
C17   C19   S    
C6    C8    A    
C5    N11   S    
O2    Zn2   S    
C45   H8    S    
C37   C38   A    
C1    O3    A    
N8    C48   S    
C13   N2    S    
C30   N4    S    
C49   H24   S    
C12   I8    S    
C23   O7    A    
C24   O6    A    
C27   N3    S    
N10   C50   S    
C9    C11   A    
C10   C12   A    
C16   C18   S    
C49   H25   S    
C12   C14   A    
C26   C30   S    
C48   H22   S    
C47   H17   S    
C33   N1    A    
C20   C22   S    
O3    Zn2   S    
C26   N3    S    
C46   H14   S    
C27   I3    S    
C41   I1    S    
C51   H32   S    
C52   H38   S    
C7    C9    A    
C4    I6    S    
C1    C20   S    
C16   C22   S    
C19   C21   S    
C2    C19   S    
C34   N2    A    
C11   I7    S    
C43   N9    S    
C31   N1    A    
C30   N8    S    
C3    C5    A    
C46   H13   S    
O1    Zn1   S    
C52   H36   S    
C2    O4    A    
C39   C44   A    
C25   C27   S    
C50   H28   S    
N6    C46   S    
C17   C22   S    
C36   C38   A    
C1    O1    A    
C37   C39   A    
C2    O2    A    
N12   H35   S    
C18   I10   S    
C38   C40   A    
C11   C13   A    
O7    Zn2   S    
C17   I9    S    
C29   N3    S    
C3    I5    S    
C16   C19   S    
C7    C23   S    
C33   C35   A    
C34   C36   A    
C31   C39   A    
C25   N5    S    
C32   C40   A    
C4    C14   A    
N3    Zn1   S    
C45   H10   S    
N6    H11   S    
O4    Zn1   S    
C15   C21   S    
C49   H26   S    
O6    Zn2   S    
C8    C10   A    
C47   H18   S    
N10   H27   S    
C51   H33   S    
