data_mof_unit_37178.cif
_audit_creation_date              2012-12-10T19:00:16-0500
_audit_creation_method            fapswitch 2.2
_symmetry_space_group_name_H-M    P1
_symmetry_Int_Tables_number       1
_space_group_crystal_system       triclinic
_cell_length_a                    9.604178
_cell_length_b                    10.8405
_cell_length_c                    13.38666
_cell_angle_alpha                 91.533091
_cell_angle_beta                  73.640289
_cell_angle_gamma                 89.134492
_cell_volume                      1336.45938843

loop_
_atom_site_label
_atom_site_type_symbol
_atom_type_description
_atom_site_fract_x
_atom_site_fract_y
_atom_site_fract_z
_atom_type_partial_charge
C1    C     C_R   0.500334 0.737239 0.496365 0.825095
C2    C     C_R   0.455751 0.456279 0.967880 0.067288
C3    C     C_R   0.431942 0.523663 0.884014 -0.069949
C4    C     C_R   0.529437 0.514385 0.034705 -0.106021
C5    C     C_R   0.588258 0.633115 0.009828 -0.093454
C6    C     C_R   0.547740 0.702164 0.935567 0.626655
C7    C     C_R   0.462255 0.650697 0.877657 0.055837
C8    C     C_R   0.539720 0.463901 0.128841 0.571516
C9    C     C_R   0.692201 0.631146 0.154770 -0.294534
C10   C     C_R   0.379470 0.461439 0.808487 -0.030974
C11   C     C_R   0.375058 0.938414 0.493221 -0.000031
C12   C     C_R   0.422516 0.496249 0.699399 0.819502
C13   C     C_R   0.502725 0.869696 0.484011 -0.108820
C14   C     C_R   0.634797 0.931720 0.461406 -0.152347
C15   C     C_R   0.634800 0.060386 0.464149 -0.099708
C16   C     C_R   0.503244 0.128406 0.492604 -0.158589
C17   C     C_R   0.374868 0.065409 0.502046 0.029108
C18   C     C_3   0.235174 0.069003 0.587463 0.457299
C19   C     C_3   0.228310 0.930438 0.568767 -0.013455
C20   C     C_R   0.959780 0.447206 0.418643 0.109991
C21   C     C_R   0.899030 0.567939 0.571997 0.257039
C22   C     C_R   0.045912 0.563828 0.573810 -0.024018
C23   C     C_R   0.500700 0.262305 0.499860 0.817733
C24   C     C_R   0.107358 0.451814 0.416480 0.145166
C25   C     C_3   0.139991 0.325152 0.369996 -0.416603
C26   C     C_3   0.978816 0.314976 0.382152 0.602599
C27   C     C_R   0.576803 0.501745 0.300735 0.870934
C28   C     C_R   0.676733 0.686202 0.065994 -0.083259
C29   C     C_R   0.614953 0.525417 0.190027 -0.101871
C30   C     C_R   0.322968 0.343375 0.827046 -0.164928
C31   C     C_R   0.337149 0.279721 0.912076 -0.135995
C32   C     C_R   0.409977 0.332242 0.978256 -0.047999
Cu1   Cu    Cu3+1 0.359330 0.500020 0.500010 1.014536
Cu2   Cu    Cu3+1 0.640670 0.499980 0.499990 1.037249
H1    H     H_    0.749559 0.679386 0.202521 0.177842
H2    H     H_    0.737108 0.105423 0.447090 0.255676
H3    H     H_    0.249371 0.095185 0.664836 0.048501
H4    H     H_    0.226611 0.875391 0.637651 0.121633
H5    H     H_    0.078591 0.615386 0.633447 0.160042
H6    H     H_    0.206898 0.326694 0.287631 0.214360
H7    H     H_    0.182319 0.261651 0.418082 0.289835
H8    H     H_    0.726370 0.774538 0.045442 0.215951
H9    H     H_    0.281273 0.295305 0.769877 0.147758
H10   H     H_    0.433701 0.270733 0.033145 0.222734
H11   H     H_    0.301731 0.185329 0.922045 0.178647
H12   H     H_    0.737419 0.881500 0.445721 0.197042
N1    N     N_R   0.852320 0.499070 0.499340 -0.189906
N2    N     N_R   0.148230 0.499110 0.499340 -0.180040
O1    O     O_R   0.381190 0.680360 0.500000 -0.577145
O2    O     O_R   0.618780 0.680320 0.499990 -0.571372
O3    O     O_R   0.323230 0.500000 0.650990 -0.583217
O4    O     O_R   0.560820 0.499960 0.650980 -0.547934
O5    O     O_R   0.381220 0.319680 0.500010 -0.566439
O6    O     O_R   0.618810 0.319640 0.500000 -0.530242
O7    O     O_R   0.439180 0.500040 0.349020 -0.546676
O8    O     O_R   0.676770 0.500000 0.349010 -0.593435
F1    F     F_    0.125683 0.135553 0.563710 -0.584527
I1    I     I_    0.076522 0.878707 0.484877 -0.212873
I2    I     I_    0.770088 0.698614 0.678304 -0.221038
I3    I     I_    0.926898 0.276866 0.239213 -0.299523
F2    F     F_    0.584406 0.822646 0.923519 -0.623733
F3    F     F_    0.915276 0.237666 0.461681 -0.597432
F4    F     F_    0.461413 0.365610 0.171017 -0.707997
I4    I     I_    0.361231 0.776115 0.797824 -0.301480

loop_
_geom_bond_atom_site_label_1
_geom_bond_atom_site_label_2
_ccdc_geom_bond_type
C19   I1    S    
Cu1   O7    S    
C22   N2    A    
C32   H10   S    
Cu2   O8    S    
C6    C7    A    
C19   H4    S    
Cu1   O3    S    
C5    C28   A    
C1    O2    A    
C10   C30   A    
C18   F1    S    
C2    C4    A    
C31   C32   A    
C9    C29   A    
C4    C8    A    
C27   O8    A    
C17   C18   S    
C26   F3    S    
C14   H12   S    
C3    C10   A    
C13   C14   A    
C11   C13   A    
Cu2   O6    S    
C11   C19   S    
C30   C31   A    
C10   C12   S    
C22   H5    S    
C23   O5    A    
C28   H8    S    
C12   O4    A    
C18   H3    S    
Cu1   Cu2   S    
C2    C3    A    
C16   C23   S    
C3    C7    A    
C25   H6    S    
Cu1   O5    S    
C5    C6    A    
C30   H9    S    
C16   C17   A    
C27   O7    A    
C7    I4    S    
Cu2   O2    S    
C20   N1    A    
C27   C29   S    
C8    C29   A    
C8    F4    S    
Cu1   O1    S    
C15   C16   A    
C24   N2    A    
C21   I2    S    
C15   H2    S    
C12   O3    A    
C1    C13   S    
C24   C25   S    
C6    F2    S    
C23   O6    A    
C2    C32   A    
C18   C19   S    
C31   H11   S    
C25   H7    S    
Cu2   O4    S    
C9    H1    S    
Cu1   N2    S    
C14   C15   A    
C11   C17   A    
Cu2   N1    S    
C21   N1    A    
C25   C26   S    
C21   C22   A    
C26   I3    S    
C20   C24   A    
C9    C28   A    
C4    C5    A    
C20   C26   S    
C1    O1    A    
