data_mof_unit_66525.cif
_audit_creation_date              2012-12-11T17:19:15-0500
_audit_creation_method            fapswitch 2.2
_symmetry_space_group_name_H-M    P1
_symmetry_Int_Tables_number       1
_space_group_crystal_system       triclinic
_cell_length_a                    14.553663
_cell_length_b                    7.280595
_cell_length_c                    13.573469
_cell_angle_alpha                 90.002003
_cell_angle_beta                  100.085736
_cell_angle_gamma                 89.998014
_cell_volume                      1416.01029444

loop_
_atom_site_label
_atom_site_type_symbol
_atom_type_description
_atom_site_fract_x
_atom_site_fract_y
_atom_site_fract_z
_atom_type_partial_charge
O1    O     O_R   0.648180 0.355050 0.151550 -0.535810
O2    O     O_R   0.351820 0.644950 0.848450 -0.535807
O3    O     O_R   0.851820 0.855050 0.348450 -0.535833
O4    O     O_R   0.148180 0.144950 0.651550 -0.535832
O5    O     O_R   0.835240 0.681980 0.154280 -0.543304
O6    O     O_R   0.164760 0.318020 0.845720 -0.543305
O7    O     O_R   0.664760 0.181980 0.345720 -0.543302
O8    O     O_R   0.335240 0.818020 0.654280 -0.543300
C1    C     C_R   0.866581 0.516291 0.136683 0.782069
C2    C     C_R   0.133419 0.483709 0.863317 0.782070
C3    C     C_R   0.633422 0.016299 0.363321 0.782054
C4    C     C_R   0.366577 0.983701 0.636678 0.782057
O9    O     O_R   0.647870 0.684600 0.139630 -0.533582
O10   O     O_R   0.352130 0.315400 0.860370 -0.533583
O11   O     O_R   0.852130 0.184600 0.360370 -0.533598
O12   O     O_R   0.147870 0.815400 0.639630 -0.533599
O13   O     O_R   0.663110 0.857440 0.333700 -0.530273
O14   O     O_R   0.336890 0.142560 0.666300 -0.530277
O15   O     O_R   0.836890 0.357440 0.166300 -0.530258
O16   O     O_R   0.163110 0.642560 0.833700 -0.530259
C5    C     C_R   0.615196 0.515995 0.113195 0.701806
C6    C     C_R   0.384804 0.484005 0.886805 0.701804
C7    C     C_R   0.884803 0.015994 0.386805 0.701776
C8    C     C_R   0.115196 0.984006 0.613195 0.701772
O17   O     O_3   0.755220 0.522230 0.313690 -0.374475
O18   O     O_3   0.244780 0.477770 0.686310 -0.374476
O19   O     O_3   0.744780 0.022230 0.186310 -0.374440
O20   O     O_3   0.255220 0.977770 0.813690 -0.374439
V1    V     V_3+5 0.749030 0.796100 0.238190 1.413499
V2    V     V_3+5 0.250970 0.203900 0.761810 1.413500
V3    V     V_3+5 0.750970 0.296100 0.261810 1.413484
V4    V     V_3+5 0.249030 0.703900 0.738190 1.413489
C9    C     C_1   0.965945 0.005430 0.466789 -0.217408
C10   C     C_1   0.034055 0.994570 0.533211 -0.217410
C11   C     C_1   0.534054 0.505431 0.033211 -0.217455
C12   C     C_1   0.465945 0.494569 0.966789 -0.217458
H1    H     H_    0.202195 0.852283 0.308569 0.138546
H2    H     H_    0.797799 0.147762 0.691427 0.138546
H3    H     H_    0.297850 0.352649 0.191435 0.138460
H4    H     H_    0.702154 0.647377 0.808566 0.138456
C13   C     C_R   0.569507 0.070933 0.708854 0.182727
C14   C     C_R   0.430491 0.929070 0.291145 0.182717
C15   C     C_R   0.930480 0.570912 0.791146 0.182680
C16   C     C_R   0.069521 0.429092 0.208854 0.182674
C17   C     C_R   0.665152 0.113186 0.740181 0.297062
C18   C     C_R   0.334843 0.886836 0.259816 0.297068
C19   C     C_R   0.834822 0.613067 0.759815 0.297133
C20   C     C_R   0.165180 0.386949 0.240186 0.297126
C21   C     C_R   0.724423 0.116268 0.669992 -0.199209
C22   C     C_R   0.275572 0.883763 0.330005 -0.199195
C23   C     C_R   0.775543 0.615997 0.829999 -0.199225
C24   C     C_R   0.224460 0.384021 0.170002 -0.199205
C25   C     C_R   0.690419 0.082374 0.570163 -0.223045
C26   C     C_R   0.309578 0.917646 0.429835 -0.223044
C27   C     C_R   0.809555 0.582134 0.929829 -0.223008
C28   C     C_R   0.190446 0.417876 0.070171 -0.223000
C29   C     C_R   0.595059 0.043253 0.534961 0.006822
C30   C     C_R   0.404938 0.956755 0.465037 0.006820
C31   C     C_R   0.904928 0.543145 0.965034 0.006841
C32   C     C_R   0.095073 0.456858 0.034966 0.006836
C33   C     C_R   0.532394 0.036204 0.604880 -0.019399
C34   C     C_R   0.467604 0.963799 0.395118 -0.019396
C35   C     C_R   0.967596 0.536163 0.895116 -0.019434
C36   C     C_R   0.032405 0.463838 0.104884 -0.019431
C37   C     C_R   0.563666 0.007390 0.431440 -0.133899
C38   C     C_R   0.436333 0.992611 0.568559 -0.133900
C39   C     C_R   0.936333 0.507354 0.068560 -0.133867
C40   C     C_R   0.063668 0.492646 0.931440 -0.133863
H5    H     H_    0.741437 0.085818 0.521176 0.126738
H6    H     H_    0.258559 0.914207 0.478822 0.126733
H7    H     H_    0.758534 0.585493 0.978815 0.126666
H8    H     H_    0.241467 0.414518 0.021185 0.126665
N1    N     N_2   0.699477 0.153297 0.843237 -0.525318
H9    H     H_    0.671717 0.269434 0.870096 0.250538
C41   C     C_3   0.796396 0.117515 0.884812 -0.523502
H10   H     H_    0.806761 0.127858 0.967629 0.210426
H11   H     H_    0.842276 0.219148 0.856842 0.194161
H12   H     H_    0.816458 0.977519 0.864767 0.207337
N2    N     N_2   0.300515 0.846739 0.156760 -0.525318
H13   H     H_    0.328280 0.730618 0.129888 0.250541
C42   C     C_3   0.203596 0.882520 0.115187 -0.523506
H14   H     H_    0.193232 0.872217 0.032369 0.210428
H15   H     H_    0.183528 0.022501 0.135251 0.207330
H16   H     H_    0.157718 0.780864 0.143143 0.194165
N3    N     N_2   0.800504 0.653305 0.656774 -0.525312
H17   H     H_    0.828291 0.769453 0.629963 0.250540
C43   C     C_3   0.703568 0.617719 0.615192 -0.523575
H18   H     H_    0.693195 0.628219 0.532381 0.210420
H19   H     H_    0.657734 0.719367 0.643232 0.194185
H20   H     H_    0.683454 0.477716 0.635156 0.207356
N4    N     N_2   0.199501 0.346727 0.343229 -0.525313
H21   H     H_    0.171712 0.230588 0.370047 0.250540
C44   C     C_3   0.296437 0.382310 0.384807 -0.523575
H22   H     H_    0.306812 0.371822 0.467619 0.210419
H23   H     H_    0.316554 0.522308 0.364837 0.207356
H24   H     H_    0.342269 0.280653 0.356770 0.194186
N5    N     N_2   0.512256 0.060927 0.783546 -0.520715
H25   H     H_    0.514855 0.177635 0.826904 0.256150
C45   C     C_3   0.524039 0.895186 0.843199 -0.482246
H26   H     H_    0.474480 0.897257 0.896680 0.208868
H27   H     H_    0.595761 0.885869 0.887186 0.203128
H28   H     H_    0.510188 0.772387 0.794265 0.182428
N6    N     N_2   0.487746 0.939046 0.216455 -0.520722
H29   H     H_    0.485145 0.822328 0.173106 0.256138
C46   C     C_3   0.475975 0.104775 0.156792 -0.482233
H30   H     H_    0.525548 0.102690 0.103326 0.208873
H31   H     H_    0.489815 0.227584 0.205720 0.182427
H32   H     H_    0.404260 0.114083 0.112788 0.203132
N7    N     N_2   0.987760 0.561153 0.716471 -0.520751
H33   H     H_    0.985170 0.677986 0.673216 0.256095
C47   C     C_3   0.976042 0.395565 0.656686 -0.482182
H34   H     H_    0.025733 0.397725 0.603349 0.208883
H35   H     H_    0.904381 0.386420 0.612536 0.203141
H36   H     H_    0.989761 0.272633 0.705532 0.182398
N8    N     N_2   0.012240 0.438844 0.283527 -0.520753
H37   H     H_    0.014835 0.322015 0.326785 0.256090
C48   C     C_3   0.023954 0.604435 0.343311 -0.482182
H38   H     H_    0.974259 0.602278 0.396644 0.208887
H39   H     H_    0.010237 0.727365 0.294461 0.182398
H40   H     H_    0.095613 0.613581 0.387463 0.203145

loop_
_geom_bond_atom_site_label_1
_geom_bond_atom_site_label_2
_ccdc_geom_bond_type
O17   V3    S    
C16   C20   A    
C43   H18   S    
O1    C5    A    
C44   H22   S    
C27   C31   A    
O19   V1    S    
O13   V1    S    
N1    H9    S    
O3    C7    A    
C47   H34   S    
C13   C33   A    
C25   H5    S    
C14   N6    S    
C42   H14   S    
C15   C35   A    
H2    C21   S    
N3    H17   S    
C16   C36   A    
O7    C3    A    
C46   H31   S    
C22   C26   A    
C19   N3    S    
C17   N1    S    
N7    C47   S    
O16   V4    S    
C18   N2    S    
O4    C8    A    
N8    H37   S    
O1    V3    S    
C7    C9    S    
O2    V4    S    
C14   C18   A    
O3    V1    S    
N5    C45   S    
C33   C38   A    
C30   C38   A    
C11   C12   T    
C16   N8    S    
C2    O16   A    
C28   H8    S    
C20   N4    S    
O2    C6    A    
O14   V2    S    
C14   C34   A    
C31   C39   A    
O11   C7    A    
H3    C24   S    
O15   V3    S    
O12   C8    A    
N1    C41   S    
O10   V2    S    
C42   H15   S    
C1    O15   A    
N5    H25   S    
O5    V1    S    
N3    C43   S    
C46   H32   S    
O7    V3    S    
O8    V4    S    
C36   C39   A    
N6    C46   S    
C48   H40   S    
N4    H21   S    
N2    C42   S    
C25   C29   A    
O18   V4    S    
C19   C23   A    
N8    C48   S    
C4    C38   S    
C8    C10   S    
C28   C32   A    
C41   H10   S    
C1    C39   S    
O5    C1    A    
N4    C44   S    
C45   H26   S    
C26   H6    S    
C17   C21   A    
O8    C4    A    
C9    C10   T    
O9    C5    A    
C47   H35   S    
O11   V3    S    
C41   H11   S    
C30   C34   A    
O6    V2    S    
C44   H24   S    
C43   H19   S    
C13   N5    S    
C42   H16   S    
C26   C30   A    
O9    V1    S    
C35   C40   A    
C3    O13   A    
C34   C37   A    
C45   H27   S    
C29   C37   A    
O6    C2    A    
C29   C33   A    
C5    C11   S    
C2    C40   S    
O12   V4    S    
H4    C23   S    
C6    C12   S    
C46   H30   S    
C18   C22   A    
C31   C35   A    
C32   C36   A    
O10   C6    A    
C48   H39   S    
C48   H38   S    
H1    C22   S    
C21   C25   A    
O20   V2    S    
C47   H36   S    
C23   C27   A    
C41   H12   S    
O4    V2    S    
N2    H13   S    
C24   C28   A    
C20   C24   A    
C45   H28   S    
C32   C40   A    
C44   H23   S    
C43   H20   S    
C4    O14   A    
N6    H29   S    
C13   C17   A    
C15   N7    S    
N7    H33   S    
C15   C19   A    
C27   H7    S    
C3    C37   S    
