data_mof_unit_10394.cif
_audit_creation_date              2013-03-05T16:33:14-0500
_audit_creation_method            fapswitch 2.2
_symmetry_space_group_name_H-M    P1
_symmetry_Int_Tables_number       1
_space_group_crystal_system       triclinic
_cell_length_a                    27.756892
_cell_length_b                    10.810942
_cell_length_c                    9.571231
_cell_angle_alpha                 90.08343
_cell_angle_beta                  89.458371
_cell_angle_gamma                 89.946576
_cell_volume                      2871.98462676

loop_
_atom_site_label
_atom_site_type_symbol
_atom_site_description
_atom_site_fract_x
_atom_site_fract_y
_atom_site_fract_z
_atom_type_partial_charge
O1    O     O_R   0.500000 0.319640 0.618810 -0.569383
O2    O     O_R   0.500010 0.319680 0.381230 -0.541875
C1    C     C_R   0.499324 0.262409 0.500024 0.869124
O3    O     O_R   0.430260 0.500000 0.618780 -0.544404
O4    O     O_R   0.430270 0.500040 0.381190 -0.563806
C2    C     C_R   0.407695 0.499612 0.500489 0.886838
Cu1   Cu    Cu3+1 0.500000 0.499980 0.640670 1.080664
Cu2   Cu    Cu3+1 0.500000 0.500020 0.359330 1.061408
O5    O     O_R   0.499990 0.680320 0.618770 -0.534976
O6    O     O_R   0.500000 0.680360 0.381190 -0.558012
O7    O     O_R   0.569730 0.499960 0.618810 -0.574810
O8    O     O_R   0.569740 0.500000 0.381220 -0.586584
C3    C     C_R   0.497265 0.737505 0.499945 0.840739
C4    C     C_R   0.592276 0.499770 0.499278 0.807403
C5    C     C_R   0.177683 0.527642 0.622271 0.556220
O9    O     O_2   0.201906 0.519933 0.743575 -0.497242
N1    N     N_R   0.202394 0.529329 0.497658 -0.459651
C6    C     C_R   0.178492 0.534904 0.373212 0.556781
C7    C     C_R   0.281617 0.609493 0.568386 -0.056096
C8    C     C_R   0.331605 0.599341 0.571114 -0.167138
C9    C     C_R   0.327705 0.412578 0.428499 0.295658
C10   C     C_R   0.277380 0.423519 0.427648 -0.132523
C11   C     C_R   0.254165 0.521335 0.497284 0.257763
C12   C     C_R   0.101878 0.533593 0.497831 -0.043798
C13   C     C_R   0.127118 0.531835 0.624678 -0.025398
C14   C     C_R   0.101464 0.531888 0.751008 -0.130056
C15   C     C_R   0.127921 0.534920 0.370929 -0.025853
C16   C     C_R   0.354988 0.501843 0.501501 -0.143827
H1    H     H_    0.255930 0.354256 0.375134 0.191385
H2    H     H_    0.119987 0.528980 0.850102 0.186641
C17   C     C_R   0.644806 0.504294 0.497003 -0.038658
C18   C     C_R   0.973832 0.544631 0.625970 0.044777
C19   C     C_R   0.974823 0.516470 0.369882 0.046060
C20   C     C_R   0.949034 0.529200 0.497982 0.074501
C21   C     C_R   0.946426 0.566307 0.749024 -0.198122
C22   C     C_R   0.896380 0.567638 0.747053 -0.123636
C23   C     C_R   0.871680 0.546281 0.622815 -0.029436
C24   C     C_R   0.897866 0.526211 0.498135 -0.040025
C25   C     C_R   0.872793 0.502789 0.373690 -0.024767
C26   C     C_R   0.822259 0.497625 0.376754 0.614556
N2    N     N_R   0.797432 0.521503 0.498204 -0.455879
C27   C     C_R   0.821124 0.545697 0.620078 0.587069
C28   C     C_R   0.721515 0.429665 0.578865 -0.095890
C29   C     C_R   0.671435 0.423376 0.579809 -0.136014
C30   C     C_R   0.668403 0.592431 0.414173 -0.230951
C31   C     C_R   0.718718 0.603440 0.416709 0.399863
C32   C     C_R   0.745597 0.519302 0.498470 0.220294
O10   O     O_2   0.795813 0.569874 0.738116 -0.479173
C33   C     C_R   0.024951 0.538441 0.626735 0.046366
C34   C     C_R   0.050689 0.533246 0.497872 0.071336
C35   C     C_R   0.025824 0.526981 0.369041 0.046510
C36   C     C_R   0.051424 0.535611 0.752325 -0.197086
H3    H     H_    0.653482 0.354235 0.643344 0.144256
H4    H     H_    0.962594 0.585868 0.848530 0.137892
H5    H     H_    0.034498 0.532387 0.854007 0.130108
O11   O     O_2   0.203589 0.540657 0.251912 -0.495018
C37   C     C_R   0.103060 0.536323 0.244654 -0.129022
H6    H     H_    0.352216 0.669462 0.624984 0.216197
H7    H     H_    0.264178 0.686231 0.621303 0.179120
H8    H     H_    0.122207 0.539615 0.145547 0.188184
C38   C     C_R   0.948551 0.491797 0.246960 -0.197569
C39   C     C_R   0.898571 0.484405 0.249286 -0.120586
O12   O     O_2   0.798088 0.469113 0.259328 -0.477502
C40   C     C_R   0.053034 0.532031 0.243426 -0.196942
H9    H     H_    0.965657 0.474089 0.147388 0.135681
H10   H     H_    0.647343 0.656243 0.352376 0.177488
H11   H     H_    0.880175 0.464907 0.152369 0.190667
H12   H     H_    0.036668 0.535705 0.141878 0.130955
C41   C     C_R   0.498091 0.063676 0.624885 0.105346
C42   C     C_R   0.493756 0.129529 0.500734 -0.191963
C43   C     C_R   0.479152 0.066410 0.379982 -0.121311
H13   H     H_    0.470528 0.117153 0.285910 0.236897
C44   C     C_R   0.475629 0.937048 0.379864 0.314424
C45   C     C_R   0.489948 0.870691 0.500573 -0.210702
C46   C     C_R   0.497090 0.936683 0.624063 0.052344
C47   C     C_3   0.535243 0.926362 0.732429 -0.352881
C48   C     C_3   0.536580 0.067160 0.733614 0.114538
H14   H     H_    0.520881 0.884931 0.830533 0.285197
H15   H     H_    0.571098 0.108131 0.696078 0.098817
C49   C     C_R   0.535837 0.443181 0.072874 0.203015
N3    N     N_R   0.500300 0.500930 0.147930 -0.240282
C50   C     C_R   0.462466 0.548618 0.076531 -0.014077
C51   C     C_R   0.462418 0.550534 0.928466 0.448748
N4    N     N_R   0.500310 0.500890 0.852020 -0.229239
C52   C     C_R   0.536444 0.445955 0.925538 0.096806
C53   C     C_3   0.589122 0.478870 0.923157 0.049950
C54   C     C_3   0.588531 0.470601 0.081667 0.059366
H16   H     H_    0.611946 0.408127 0.869936 0.142255
N5    N     N_R   0.350089 0.309101 0.358880 0.136630
O13   O     O_R   0.329850 0.259352 0.250358 -0.284862
O14   O     O_R   0.387169 0.254380 0.413384 -0.367881
N6    N     N_R   0.741677 0.701578 0.339489 0.149460
O15   O     O_R   0.720961 0.748309 0.230120 -0.276330
O16   O     O_R   0.780627 0.753663 0.385968 -0.325877
N7    N     N_R   0.457043 0.875942 0.258627 0.150054
O17   O     O_R   0.421699 0.797835 0.272573 -0.344024
O18   O     O_R   0.468591 0.915121 0.134259 -0.275165
H17   H     H_    0.568976 0.883688 0.691227 0.195568
N8    N     N_R   0.520038 0.118465 0.867400 0.164915
O19   O     O_R   0.547934 0.111821 0.975521 -0.282558
O20   O     O_R   0.478543 0.173938 0.879328 -0.296501
H18   H     H_    0.432782 0.589861 0.133637 0.210422
N9    N     N_R   0.423295 0.611724 0.861886 0.129772
O21   O     O_R   0.379464 0.576394 0.889864 -0.327626
O22   O     O_R   0.430130 0.720677 0.808059 -0.327195
N10   N     N_R   0.598709 0.605465 0.875888 0.154277
O23   O     O_R   0.572510 0.697403 0.920979 -0.363534
O24   O     O_R   0.637624 0.628714 0.803967 -0.305630
N11   N     N_R   0.616874 0.365983 0.132567 0.135476
O25   O     O_R   0.663640 0.370462 0.124466 -0.288493
O26   O     O_R   0.596443 0.274570 0.198700 -0.294649
H19   H     H_    0.597036 0.558590 0.136497 0.163075
H20   H     H_    0.741822 0.364576 0.640946 0.176714
H21   H     H_    0.877093 0.584904 0.844106 0.195915

loop_
_geom_bond_atom_site_label_1
_geom_bond_atom_site_label_2
_geom_bond_distance
_ccdc_geom_bond_type
C10   H1    1.083135 S    
N7    O17   1.301043 A    
N2    C27   1.369468 A    
C41   C48   1.498914 S    
C7    C8    1.392246 A    
C12   C15   1.407659 A    
C4    C17   1.458893 S    
C28   C29   1.391738 A    
C22   H21   1.083614 S    
C49   C52   1.410487 A    
N3    C50   1.359856 A    
Cu1   Cu2   2.692770 S    
C9    N5    1.438815 S    
C52   C53   1.505140 S    
Cu1   O7    1.944796 S    
N1    C11   1.439503 S    
C26   O12   1.349794 S    
C51   N9    1.426865 S    
C39   H11   1.083613 S    
C40   H12   1.077505 S    
C22   C23   1.397224 A    
C47   H14   1.111616 S    
C49   C54   1.495762 S    
N11   O26   1.301929 A    
C24   C25   1.407933 A    
O7    C4    1.298845 A    
C53   H16   1.112482 S    
C5    C13   1.404179 A    
C31   N6    1.439670 S    
N10   O23   1.301724 A    
C47   H17   1.112097 S    
C5    O9    1.349787 S    
C5    N1    1.370390 A    
C44   C45   1.420560 A    
C23   C27   1.403806 A    
O5    C3    1.298064 A    
C29   H3    1.083113 S    
N9    O22   1.299681 A    
C2    C16   1.463099 S    
N8    O19   1.300338 A    
C41   C46   1.373229 A    
C42   C43   1.404561 A    
N5    O14   1.300510 A    
C38   C39   1.389637 A    
C36   H5    1.077296 S    
C6    O11   1.349829 S    
Cu1   N4    2.022990 S    
O1    Cu1   1.960537 S    
C9    C10   1.401875 A    
C21   H4    1.077420 S    
C53   N10   1.465875 S    
O3    Cu1   1.949042 S    
C19   C20   1.420320 A    
C47   C48   1.522675 S    
C48   H15   1.112647 S    
C12   C34   1.420844 A    
C17   C29   1.397012 A    
C6    C15   1.404067 A    
Cu2   N3    2.023336 S    
C18   C21   1.415154 A    
C1    C42   1.445012 S    
C12   C13   1.407584 A    
O3    C2    1.299060 A    
C45   C46   1.395546 A    
C25   C26   1.403875 A    
C43   C44   1.402025 A    
C53   C54   1.519831 S    
C37   H8    1.083569 S    
C54   H19   1.112344 S    
C8    C16   1.401684 A    
C7    H7    1.082812 S    
C13   C14   1.397414 A    
C30   C31   1.402194 A    
C50   C51   1.417363 A    
O1    C1    1.293892 A    
C21   C22   1.389506 A    
C18   C20   1.420494 A    
C7    C11   1.400479 A    
C46   C47   1.493518 S    
C23   C24   1.407833 A    
C14   C36   1.389460 A    
C51   N4    1.383058 A    
Cu2   O8    1.949036 S    
C33   C36   1.415115 A    
N6    O16   1.301273 A    
N1    C6    1.370249 A    
N2    C32   1.438981 S    
C34   C35   1.420326 A    
C27   O10   1.349827 S    
N4    C52   1.366481 A    
C50   H18   1.080053 S    
Cu2   O6    1.960536 S    
C26   N2    1.369813 A    
N8    O20   1.302035 A    
C9    C16   1.415056 A    
O8    C4    1.296724 A    
C14   H2    1.083590 S    
C15   C37   1.397478 A    
C44   N7    1.434838 S    
C8    H6    1.083070 S    
C30   H10   1.083722 S    
C37   C40   1.389536 A    
Cu1   O5    1.961183 S    
C25   C39   1.397192 A    
C31   C32   1.417135 A    
C20   C24   1.420658 A    
O2    Cu2   1.961185 S    
C35   C40   1.414934 A    
C49   N3    1.364907 A    
O6    C3    1.294445 A    
O4    Cu2   1.944799 S    
N7    O18   1.301383 A    
C54   N11   1.463781 S    
C19   C35   1.420236 A    
O2    C1    1.295434 A    
C43   H13   1.083604 S    
N11   O25   1.300611 A    
C28   H20   1.082921 S    
O4    C2    1.297287 A    
N10   O24   1.300276 A    
N6    O15   1.301546 A    
C48   N8    1.464400 S    
C41   C42   1.392233 A    
C18   C33   1.420516 A    
C38   H9    1.077543 S    
C3    C45   1.453926 S    
C19   C38   1.415200 A    
C33   C34   1.420494 A    
C17   C30   1.399627 A    
N9    O21   1.301046 A    
C10   C11   1.402229 A    
N5    O13   1.301422 A    
C28   C32   1.404147 A    
