data_mof_unit_21491.cif
_audit_creation_date              2012-12-10T20:48:45-0500
_audit_creation_method            fapswitch 2.2
_symmetry_space_group_name_H-M    P1
_symmetry_Int_Tables_number       1
_space_group_crystal_system       triclinic
_cell_length_a                    15.808694
_cell_length_b                    8.923988
_cell_length_c                    8.108174
_cell_angle_alpha                 89.989005
_cell_angle_beta                  89.985764
_cell_angle_gamma                 89.987751
_cell_volume                      1143.87350156

loop_
_atom_site_label
_atom_site_type_symbol
_atom_type_description
_atom_site_fract_x
_atom_site_fract_y
_atom_site_fract_z
_atom_type_partial_charge
C1    C     C_R   0.500005 0.217997 0.500010 0.927731
C2    C     C_1   0.825328 0.505767 0.499474 -0.068860
C3    C     C_1   0.174683 0.507837 0.501924 0.042980
C4    C     C_R   0.337972 0.500121 0.500046 0.904212
C5    C     C_R   0.662028 0.499976 0.499974 0.909748
C6    C     C_1   0.500003 0.934775 0.499984 -0.158971
C7    C     C_1   0.500005 0.065197 0.500014 -0.166878
C8    C     C_R   0.499999 0.781976 0.499990 0.951052
C9    C     C_3   0.048019 0.510946 0.685578 -0.078447
C10   C     C_3   0.049837 0.370052 0.406837 -0.065338
C11   C     C_3   0.949949 0.487271 0.681687 -0.084002
C12   C     C_3   0.952970 0.384779 0.380814 -0.059652
C13   C     C_1   0.750412 0.502683 0.499845 -0.150190
C14   C     C_1   0.249601 0.503829 0.500460 -0.113737
C15   C     C_3   0.083025 0.512166 0.503572 0.113425
C16   C     C_3   0.916934 0.509993 0.498987 0.079657
C17   C     C_3   0.948730 0.669304 0.432880 -0.225905
C18   C     C_3   0.050585 0.661217 0.412787 -0.199865
H1    H     H_    0.079502 0.368037 0.282267 0.135243
H2    H     H_    0.059367 0.622962 0.741161 0.173203
H3    H     H_    0.944283 0.424013 0.251875 0.088123
H4    H     H_    0.921036 0.574364 0.762448 0.121581
N1    N     N_1   0.500000 0.500030 0.073640 -0.022480
N2    N     N_1   0.500000 0.500030 0.926360 -0.022843
O1    O     O_R   0.500000 0.285340 0.636850 -0.616734
O2    O     O_R   0.500000 0.285340 0.363150 -0.617071
O3    O     O_R   0.377140 0.500000 0.636930 -0.613288
O4    O     O_R   0.377140 0.500000 0.363070 -0.604281
O5    O     O_R   0.622860 0.500000 0.636930 -0.615681
O6    O     O_R   0.622860 0.500000 0.363070 -0.620434
O7    O     O_R   0.500000 0.714650 0.636900 -0.610705
O8    O     O_R   0.500000 0.714650 0.363100 -0.611114
Zn1   Zn    Zn3+2 0.500000 0.499990 0.682780 1.016950
Zn2   Zn    Zn3+2 0.500000 0.499990 0.317220 1.018403
C19   C     C_2   0.091226 0.806063 0.478440 0.459515
H5    H     H_    0.072948 0.912120 0.423303 0.122310
O9    O     O_2   0.143633 0.807019 0.589057 -0.581866
C20   C     C_2   0.078349 0.652808 0.230775 0.419066
H6    H     H_    0.040098 0.594320 0.140519 0.025747
O10   O     O_2   0.145836 0.704946 0.184425 -0.541543
C21   C     C_2   0.920644 0.790352 0.557252 0.434842
H7    H     H_    0.958383 0.813888 0.665908 0.061003
O11   O     O_2   0.853826 0.857935 0.541440 -0.545916
C22   C     C_2   0.905938 0.710714 0.268890 0.454636
H8    H     H_    0.862259 0.634548 0.208733 0.053183
O12   O     O_2   0.920201 0.831379 0.203153 -0.546415
N3    N     N_3   0.924452 0.342303 0.752420 -0.431447
H9    H     H_    0.858732 0.331896 0.744913 0.196141
H10   H     H_    0.936150 0.343769 0.879276 0.192152
N4    N     N_3   0.909345 0.238988 0.386990 -0.377594
H11   H     H_    0.902018 0.199637 0.506793 0.245946
H12   H     H_    0.849004 0.249690 0.335489 0.198778
N5    N     N_3   0.091339 0.401954 0.792763 -0.433954
H13   H     H_    0.155452 0.429375 0.800435 0.212016
H14   H     H_    0.069483 0.416818 0.913317 0.181223
N6    N     N_3   0.073347 0.226024 0.482755 -0.415119
H15   H     H_    0.043541 0.210000 0.595893 0.261785
H16   H     H_    0.138708 0.220931 0.501012 0.199680

loop_
_geom_bond_atom_site_label_1
_geom_bond_atom_site_label_2
_ccdc_geom_bond_type
C15   C18   S    
N4    H12   S    
N1    N2    T    
O7    Zn1   S    
C6    C7    T    
C2    C16   S    
C18   C19   S    
C9    H2    S    
C11   N3    S    
N2    Zn1   S    
C10   H1    S    
C9    C11   S    
N1    Zn2   S    
N4    H11   S    
C18   C20   S    
C17   C22   S    
O4    Zn2   S    
N3    H10   S    
N5    H13   S    
O3    Zn1   S    
C1    O1    A    
C21   O11   D    
C1    O2    A    
C3    C14   T    
C10   C12   S    
C12   C16   S    
C20   O10   D    
C22   O12   D    
C17   C18   S    
C5    O5    A    
C10   C15   S    
N5    H14   S    
C4    C14   S    
C20   H6    S    
C17   C21   S    
C11   C16   S    
C9    N5    S    
O6    Zn2   S    
C8    O8    A    
O5    Zn1   S    
C4    O3    A    
C10   N6    S    
N6    H15   S    
C19   O9    D    
C5    O6    A    
C21   H7    S    
O1    Zn1   S    
C2    C13   T    
C16   C17   S    
C3    C15   S    
C6    C8    S    
C11   H4    S    
C4    O4    A    
C1    C7    S    
C8    O7    A    
C5    C13   S    
C12   H3    S    
O2    Zn2   S    
C22   H8    S    
N3    H9    S    
C9    C15   S    
N6    H16   S    
C12   N4    S    
C19   H5    S    
O8    Zn2   S    
