data_mof_unit_48354.cif
_audit_creation_date              2012-12-10T17:19:54-0500
_audit_creation_method            fapswitch 2.2
_symmetry_space_group_name_H-M    P1
_symmetry_Int_Tables_number       1
_space_group_crystal_system       triclinic
_cell_length_a                    9.683606
_cell_length_b                    10.8753
_cell_length_c                    15.757569
_cell_angle_alpha                 84.798449
_cell_angle_beta                  73.252005
_cell_angle_gamma                 88.435299
_cell_volume                      1582.52588484

loop_
_atom_site_label
_atom_site_type_symbol
_atom_type_description
_atom_site_fract_x
_atom_site_fract_y
_atom_site_fract_z
_atom_type_partial_charge
C1    C     C_R   0.002302 0.262400 0.500740 0.758222
C2    C     C_R   0.676305 0.501517 0.905513 0.079418
C3    C     C_R   0.764319 0.564849 0.945072 0.049224
C4    C     C_R   0.527022 0.486371 0.951707 0.090374
C5    C     C_R   0.478766 0.502047 0.043922 0.073843
C6    C     C_R   0.575563 0.550984 0.083800 -0.233495
C7    C     C_R   0.713905 0.586648 0.034478 -0.198816
C8    C     C_R   0.422666 0.471802 0.906636 -0.229182
C9    C     C_R   0.276162 0.469357 0.951824 -0.218242
C10   C     C_R   0.229277 0.477178 0.043508 0.067915
C11   C     C_R   0.330840 0.482391 0.091620 0.077503
C12   C     C_R   0.917398 0.501731 0.670934 0.844370
C13   C     C_R   0.081826 0.480299 0.087391 -0.312308
C14   C     C_R   0.032609 0.487808 0.179511 0.462654
C15   C     C_R   0.281149 0.466070 0.185566 0.046391
C16   C     C_R   0.255896 0.126064 0.393068 -0.206565
C17   C     C_R   0.349882 0.071573 0.321897 -0.157607
C18   C     C_R   0.315504 0.958500 0.299403 -0.105937
C19   C     C_R   0.197956 0.892192 0.355132 -0.198529
C20   C     C_R   0.109370 0.941625 0.432036 0.090771
C21   C     C_R   0.126127 0.066783 0.443492 0.112574
C22   C     C_R   0.009410 0.127805 0.501148 -0.101436
C23   C     C_R   0.998937 0.737445 0.498475 0.830121
C24   C     C_R   0.890507 0.059505 0.554919 -0.206436
C25   C     C_R   0.887752 0.931966 0.554030 -0.180850
C26   C     C_R   0.997902 0.872150 0.493866 -0.109097
C27   C     C_R   0.694465 0.650662 0.360463 0.624973
C28   C     C_R   0.646903 0.684814 0.284945 -0.222530
C29   C     C_R   0.503036 0.690600 0.293116 -0.369633
C30   C     C_R   0.407410 0.646613 0.371557 -0.117781
C31   C     C_R   0.451676 0.573865 0.436604 0.098882
C32   C     C_R   0.601772 0.574204 0.434100 0.061663
C33   C     C_R   0.549968 0.426833 0.559021 -0.071319
C34   C     C_R   0.083342 0.494932 0.328286 0.842631
C35   C     C_R   0.403267 0.424638 0.559015 0.267121
C36   C     C_R   0.870362 0.515785 0.766714 -0.154556
C37   C     C_R   0.132553 0.484635 0.229974 -0.176355
C38   C     C_R   0.899052 0.610695 0.893843 -0.313119
C39   C     C_R   0.948664 0.593184 0.803134 0.447788
C40   C     C_R   0.740494 0.460458 0.820359 0.050358
Cu1   Cu    Cu3+1 0.140660 0.499990 0.500010 0.940007
Cu2   Cu    Cu3+1 0.859340 0.500010 0.499990 0.984153
H1    H     H_    0.781127 0.632487 0.066310 0.163143
H2    H     H_    0.004202 0.480778 0.049707 0.159580
H3    H     H_    0.801330 0.104853 0.599660 0.149469
H4    H     H_    0.288521 0.213775 0.406757 0.179534
H5    H     H_    0.446304 0.119703 0.281776 0.132531
H6    H     H_    0.380574 0.922769 0.238915 0.125149
H7    H     H_    0.170594 0.805998 0.335002 0.109922
H8    H     H_    0.799294 0.879897 0.600041 0.154761
H9    H     H_    0.586222 0.365397 0.606119 0.135887
H10   H     H_    0.719505 0.723257 0.222955 0.166949
H11   H     H_    0.465065 0.731375 0.238898 0.169552
H12   H     H_    0.299125 0.664752 0.376331 0.220538
H13   H     H_    0.198659 0.461180 0.915066 0.137923
H14   H     H_    0.960027 0.668249 0.922722 0.155318
H15   H     H_    0.541548 0.572329 0.151614 0.185467
H16   H     H_    0.451596 0.472681 0.835158 0.159438
N1    N     N_R   0.648320 0.501210 0.499140 -0.206084
N2    N     N_R   0.352470 0.501290 0.499110 -0.188305
O1    O     O_R   0.118810 0.319640 0.500010 -0.609658
O2    O     O_R   0.881240 0.319660 0.500000 -0.583036
O3    O     O_R   0.055570 0.499980 0.629840 -0.556880
O4    O     O_R   0.818000 0.500010 0.629830 -0.589383
O5    O     O_R   0.118760 0.680340 0.500000 -0.586364
O6    O     O_R   0.881190 0.680360 0.499990 -0.525881
O7    O     O_R   0.182000 0.499990 0.370170 -0.618354
O8    O     O_R   0.944430 0.500020 0.370160 -0.489502
O9    O     O_3   0.824757 0.697357 0.362444 -0.530144
C41   C     C_3   0.848873 0.820439 0.322657 -0.366021
H17   H     H_    0.749104 0.877929 0.338067 0.160298
H18   H     H_    0.899767 0.820970 0.249825 0.163688
H19   H     H_    0.925319 0.866037 0.348769 0.182340
C42   C     C_3   0.374526 0.392762 0.234101 -0.847132
H20   H     H_    0.464264 0.344507 0.188333 0.220139
H21   H     H_    0.419996 0.450658 0.273507 0.258534
H22   H     H_    0.307516 0.319672 0.278193 0.234319
C43   C     C_3   0.310861 0.330617 0.625580 -0.823680
H23   H     H_    0.199008 0.327368 0.624167 0.281088
H24   H     H_    0.357030 0.237176 0.612721 0.204804
H25   H     H_    0.310452 0.349173 0.693758 0.188069
O10   O     O_3   0.886665 0.501277 0.219484 -0.572164
C44   C     C_3   0.817519 0.386894 0.225807 -0.312467
H26   H     H_    0.866767 0.312504 0.261087 0.159192
H27   H     H_    0.818224 0.360657 0.159110 0.160789
H28   H     H_    0.703115 0.396004 0.265179 0.182363
O11   O     O_3   0.060981 0.664100 0.747263 -0.559653
C45   C     C_3   0.191431 0.629692 0.765553 -0.269143
H29   H     H_    0.208395 0.528101 0.766760 0.144216
H30   H     H_    0.196517 0.664675 0.828641 0.152039
H31   H     H_    0.281719 0.672597 0.711388 0.194041
C46   C     C_3   0.687215 0.344863 0.792756 -0.865480
H32   H     H_    0.615169 0.289772 0.850528 0.238329
H33   H     H_    0.629051 0.368465 0.742506 0.233705
H34   H     H_    0.779852 0.284088 0.764026 0.219050

loop_
_geom_bond_atom_site_label_1
_geom_bond_atom_site_label_2
_ccdc_geom_bond_type
O11   C45   S    
C16   C21   A    
C34   C37   S    
Cu1   Cu2   S    
C19   C20   A    
Cu1   O1    S    
C4    C8    A    
C1    O2    A    
Cu1   O7    S    
C30   H12   S    
C42   H21   S    
C5    C6    A    
C24   H3    S    
C23   O6    A    
C28   C29   A    
C5    C11   A    
C3    C7    A    
C30   C31   A    
C12   O4    A    
C43   H24   S    
C18   C19   A    
C23   C26   S    
C25   H8    S    
C15   C37   A    
C8    H16   S    
C11   C15   A    
C44   H26   S    
C3    C38   A    
C8    C9    A    
C42   H22   S    
C41   H17   S    
C9    H13   S    
C39   O11   S    
C12   C36   S    
C9    C10   A    
Cu2   O2    S    
C27   O9    S    
C1    C22   S    
C33   N1    A    
C21   C22   A    
Cu2   O8    S    
C6    H15   S    
C42   H20   S    
C36   C40   A    
C24   C25   A    
C16   H4    S    
C12   O3    A    
C43   H23   S    
C16   C17   A    
Cu1   O5    S    
C25   C26   A    
C46   H34   S    
C18   H6    S    
C35   N2    A    
C29   H11   S    
C31   N2    A    
Cu2   N1    S    
C2    C4    A    
C29   C30   A    
C19   H7    S    
C31   C32   A    
C45   H31   S    
C44   H28   S    
C41   H19   S    
C46   H33   S    
C17   C18   A    
C40   C46   S    
C44   H27   S    
C45   H30   S    
C7    H1    S    
C22   C24   A    
Cu1   O3    S    
C34   O8    A    
Cu2   O4    S    
C27   C32   A    
C36   C39   A    
C17   H5    S    
Cu1   N2    S    
C4    C5    A    
C10   C13   A    
C1    O1    A    
C34   O7    A    
C6    C7    A    
C33   H9    S    
C35   C43   S    
C23   O5    A    
C2    C3    A    
C14   C37   A    
C28   H10   S    
C43   H25   S    
C38   C39   A    
C20   C26   A    
C46   H32   S    
C33   C35   A    
O9    C41   S    
C10   C11   A    
C2    C40   A    
C15   C42   S    
C38   H14   S    
C45   H29   S    
C20   C21   A    
O10   C44   S    
C27   C28   A    
Cu2   O6    S    
C14   O10   S    
C41   H18   S    
C32   N1    A    
C13   C14   A    
C13   H2    S    
