data_mof_unit_57306.cif
_audit_creation_date              2012-12-10T17:52:21-0500
_audit_creation_method            fapswitch 2.2
_symmetry_space_group_name_H-M    P1
_symmetry_Int_Tables_number       1
_space_group_crystal_system       triclinic
_cell_length_a                    19.224756
_cell_length_b                    10.639872
_cell_length_c                    9.883915
_cell_angle_alpha                 89.569782
_cell_angle_beta                  91.379033
_cell_angle_gamma                 92.36134
_cell_volume                      2019.39956166

loop_
_atom_site_label
_atom_site_type_symbol
_atom_type_description
_atom_site_fract_x
_atom_site_fract_y
_atom_site_fract_z
_atom_type_partial_charge
C1    C     C_R   0.501739 0.260765 0.500680 0.885587
C2    C     C_R   0.290678 0.538691 0.494369 -0.202501
C3    C     C_R   0.931335 0.545313 0.493928 0.339894
C4    C     C_R   0.071110 0.568362 0.487926 0.338503
C5    C     C_R   0.822791 0.542314 0.626077 0.272220
C6    C     C_R   0.750117 0.531806 0.629384 0.143835
C7    C     C_R   0.711103 0.506834 0.507658 -0.146953
C8    C     C_R   0.746109 0.487064 0.387453 -0.219978
C9    C     C_R   0.817940 0.498588 0.384720 -0.200294
C10   C     C_R   0.856317 0.529150 0.502392 -0.030737
C11   C     C_R   0.618157 0.137291 0.628964 -0.172306
C12   C     C_R   0.365580 0.509850 0.498431 0.939016
C13   C     C_R   0.673182 0.074389 0.689326 -0.122965
C14   C     C_R   0.673289 0.943722 0.686494 -0.129479
C15   C     C_R   0.618359 0.875564 0.623359 -0.177928
C16   C     C_R   0.561450 0.937715 0.563477 0.059367
C17   C     C_R   0.561499 0.069350 0.566052 0.100451
C18   C     C_R   0.505405 0.128896 0.501873 -0.133580
C19   C     C_R   0.451746 0.062859 0.433654 -0.230871
C20   C     C_R   0.451581 0.934085 0.428987 0.192657
C21   C     C_R   0.505176 0.872273 0.497198 -0.142822
C22   C     C_R   0.410077 0.331166 0.137641 -0.236570
C23   C     C_R   0.501166 0.739526 0.499312 0.918091
C24   C     C_R   0.365975 0.246510 0.066508 0.225073
C25   C     C_R   0.366964 0.244771 0.925661 0.246964
C26   C     C_R   0.411297 0.328773 0.857268 -0.211447
C27   C     C_R   0.456641 0.414992 0.926504 0.135425
C28   C     C_R   0.456332 0.415579 0.071021 0.061665
C29   C     C_R   0.541073 0.582977 0.073057 0.249282
C30   C     C_R   0.540144 0.583428 0.929039 -0.144583
C31   C     C_R   0.634739 0.501413 0.502212 0.859387
C32   C     C_R   0.257583 0.578616 0.613755 0.201729
C33   C     C_R   0.185570 0.597026 0.610853 0.172043
C34   C     C_R   0.146898 0.574021 0.490803 -0.039220
C35   C     C_R   0.179833 0.545791 0.372043 -0.219777
C36   C     C_R   0.251562 0.531360 0.369828 0.191364
H1    H     H_    0.621057 0.238910 0.630707 0.151012
H2    H     H_    0.716257 0.127163 0.737094 0.141852
H3    H     H_    0.716418 0.895007 0.731985 0.150598
H4    H     H_    0.621676 0.774519 0.620006 0.126741
H5    H     H_    0.405181 0.330554 0.244613 0.241807
H6    H     H_    0.407514 0.325265 0.749924 0.237253
H7    H     H_    0.571723 0.652224 0.874512 0.146015
H8    H     H_    0.148262 0.536180 0.280378 0.176164
H9    H     H_    0.717942 0.462938 0.294598 0.178137
H10   H     H_    0.843613 0.485798 0.289655 0.181827
H11   H     H_    0.409759 0.111883 0.384211 0.190724
N1    N     N_R   0.036324 0.474020 0.420048 -0.157793
N2    N     N_R   0.967419 0.462659 0.422865 -0.158325
N3    N     N_R   0.965869 0.642192 0.557765 -0.113372
N4    N     N_R   0.034793 0.653271 0.555265 -0.130762
N5    N     N_R   0.499340 0.498800 0.142780 -0.128977
N6    N     N_R   0.499320 0.498720 0.857170 -0.112112
O1    O     O_R   0.500000 0.316780 0.614690 -0.641289
O2    O     O_R   0.499990 0.316750 0.385360 -0.631228
O3    O     O_R   0.398140 0.500000 0.614700 -0.578136
O4    O     O_R   0.398130 0.499970 0.385370 -0.642088
O5    O     O_R   0.500010 0.683250 0.614640 -0.607669
O6    O     O_R   0.500000 0.683220 0.385310 -0.605814
O7    O     O_R   0.601870 0.500030 0.614630 -0.637762
O8    O     O_R   0.601860 0.500000 0.385300 -0.588496
Zn1   Zn    Zn3+2 0.500000 0.500020 0.653130 0.958358
Zn2   Zn    Zn3+2 0.500000 0.499980 0.346870 0.951906
Br1   Br    Br    0.307942 0.618877 0.781695 -0.534097
N7    N     N_2   0.396580 0.866483 0.358350 -0.308442
H12   H     H_    0.347723 0.897567 0.378057 0.257457
C37   C     C_3   0.407538 0.848535 0.215038 -0.664079
H13   H     H_    0.363569 0.885588 0.154061 0.272078
H14   H     H_    0.410132 0.746692 0.194010 0.241193
H15   H     H_    0.456603 0.896645 0.180924 0.230123
N8    N     N_2   0.582569 0.673977 0.146181 -0.260502
H16   H     H_    0.561134 0.761193 0.145719 0.221835
C38   C     C_3   0.655887 0.680591 0.116031 -0.763977
H17   H     H_    0.664557 0.727660 0.016814 0.223091
H18   H     H_    0.676661 0.584959 0.114304 0.240375
H19   H     H_    0.684764 0.735820 0.195682 0.251439
Br2   Br    Br    0.301704 0.140666 0.165344 -0.513395
Br3   Br    Br    0.307088 0.131470 0.821784 -0.442229
N9    N     N_2   0.150918 0.631238 0.730250 -0.295796
H20   H     H_    0.164741 0.581234 0.815818 0.259410
C39   C     C_3   0.149311 0.765396 0.753160 -0.608431
H21   H     H_    0.202161 0.805039 0.779509 0.273407
H22   H     H_    0.114392 0.783121 0.838181 0.244930
H23   H     H_    0.129292 0.814688 0.661670 0.247039
N10   N     N_2   0.285074 0.516199 0.243216 -0.282536
H24   H     H_    0.319648 0.589583 0.221001 0.251077
C40   C     C_3   0.244717 0.473897 0.125187 -0.670685
H25   H     H_    0.280409 0.452266 0.042872 0.267089
H26   H     H_    0.210799 0.549268 0.087477 0.227760
H27   H     H_    0.213113 0.387220 0.149208 0.275672
Br4   Br    Br    0.874701 0.569618 0.794050 -0.485088
N11   N     N_2   0.718004 0.548425 0.755935 -0.277126
H28   H     H_    0.681505 0.616225 0.761594 0.222930
C41   C     C_3   0.707278 0.436894 0.839129 -0.674480
H29   H     H_    0.650878 0.411013 0.844194 0.231776
H30   H     H_    0.727789 0.456349 0.942987 0.241513
H31   H     H_    0.734751 0.355626 0.799076 0.231557

loop_
_geom_bond_atom_site_label_1
_geom_bond_atom_site_label_2
_ccdc_geom_bond_type
O5    Zn1   S    
C23   O5    A    
C40   H25   S    
C16   C21   A    
C28   N5    A    
C38   H17   S    
C31   O8    A    
C35   C36   A    
C2    C12   S    
C39   H21   S    
C3    N2    A    
C7    C8    A    
N10   H24   S    
C23   O6    A    
C1    C18   S    
C2    C32   A    
C34   C35   A    
C5    C6    A    
C19   H11   S    
C22   H5    S    
C15   C16   A    
C8    C9    A    
O7    Zn1   S    
C18   C19   A    
C11   H1    S    
C8    H9    S    
C14   H3    S    
C19   C20   A    
C16   C17   A    
N7    C37   S    
O2    Zn2   S    
C9    C10   A    
C9    H10   S    
C22   C28   A    
C13   C14   A    
C38   H18   S    
C39   H22   S    
C3    N3    A    
O4    Zn2   S    
N10   C40   S    
C30   N6    A    
C4    C34   S    
C7    C31   S    
C4    N4    A    
C37   H13   S    
C20   N7    S    
C24   C25   A    
C32   Br1   S    
N9    C39   S    
C33   N9    S    
O1    Zn1   S    
C41   H31   S    
N3    N4    A    
C25   C26   A    
C25   Br3   S    
C37   H14   S    
C31   O7    A    
C1    O1    A    
C29   C30   A    
N6    Zn1   S    
N11   C41   S    
C17   C18   A    
C26   C27   A    
C5    Br4   S    
C41   H30   S    
C35   H8    S    
C13   H2    S    
C12   O3    A    
C12   O4    A    
N1    N2    A    
C40   H26   S    
C38   H19   S    
O3    Zn1   S    
C30   H7    S    
C39   H23   S    
C26   H6    S    
N8    C38   S    
C4    N1    A    
C2    C36   A    
C11   C17   A    
O8    Zn2   S    
N5    Zn2   S    
C27   N6    A    
C6    C7    A    
C36   N10   S    
O6    Zn2   S    
C37   H15   S    
C32   C33   A    
C21   C23   S    
C1    O2    A    
C5    C10   A    
C3    C10   S    
C11   C13   A    
C6    N11   S    
N11   H28   S    
C33   C34   A    
C22   C24   A    
C41   H29   S    
C15   H4    S    
N9    H20   S    
C24   Br2   S    
N8    H16   S    
C20   C21   A    
N7    H12   S    
C40   H27   S    
C27   C28   A    
C14   C15   A    
C29   N8    S    
C29   N5    A    
