data_mof_unit_35630.cif
_audit_creation_date              2012-12-11T15:18:00-0500
_audit_creation_method            fapswitch 2.2
_symmetry_space_group_name_H-M    P1
_symmetry_Int_Tables_number       1
_space_group_crystal_system       triclinic
_cell_length_a                    15.687498
_cell_length_b                    15.687558
_cell_length_c                    34.396956
_cell_angle_alpha                 89.890044
_cell_angle_beta                  89.890657
_cell_angle_gamma                 119.46042
_cell_volume                      7370.42083963

loop_
_atom_site_label
_atom_site_type_symbol
_atom_type_description
_atom_site_fract_x
_atom_site_fract_y
_atom_site_fract_z
_atom_type_partial_charge
C1    C     C_R   0.578104 0.441599 0.554755 0.556445
C2    C     C_R   0.510143 0.007276 0.209271 0.335172
C3    C     C_R   0.500310 0.486155 0.208382 0.335554
C4    C     C_R   0.919881 0.470185 0.198475 0.332078
C5    C     C_R   0.017980 0.438031 0.851769 0.390168
C6    C     C_R   0.561067 0.583800 0.850418 0.387253
C7    C     C_R   0.340217 0.835548 0.835523 0.387296
C8    C     C_R   0.438044 0.018016 0.351763 0.390164
C9    C     C_R   0.583777 0.561071 0.350421 0.387263
C10   C     C_R   0.835542 0.340260 0.335515 0.387315
C11   C     C_R   0.045401 0.448703 0.890654 -0.082336
C12   C     C_R   0.558810 0.137136 0.555183 0.557657
C13   C     C_R   0.551051 0.599443 0.889542 -0.089928
C14   C     C_R   0.331724 0.826147 0.875827 -0.086481
C15   C     C_R   0.448710 0.045427 0.390649 -0.082338
C16   C     C_R   0.599425 0.551054 0.389545 -0.089920
C17   C     C_R   0.826134 0.331742 0.375819 -0.086497
C18   C     C_R   0.078473 0.616599 0.889350 -0.151123
C19   C     C_R   0.384103 0.465175 0.889005 -0.146110
C20   C     C_R   0.485116 0.824882 0.879179 -0.145989
C21   C     C_R   0.616599 0.078473 0.389351 -0.151133
C22   C     C_R   0.465178 0.384098 0.389004 -0.146115
C23   C     C_R   0.863419 0.421596 0.554799 0.569659
C24   C     C_R   0.824929 0.485161 0.379188 -0.145969
C25   C     C_R   0.051695 0.606455 0.850313 -0.147871
C26   C     C_R   0.393860 0.449278 0.849841 -0.167066
C27   C     C_R   0.494544 0.835365 0.838773 -0.163767
C28   C     C_R   0.606458 0.051703 0.350313 -0.147870
C29   C     C_R   0.449279 0.393856 0.349841 -0.167071
C30   C     C_R   0.835423 0.494614 0.338784 -0.163778
C31   C     C_R   0.026160 0.518742 0.830643 0.034602
C32   C     C_R   0.480620 0.511609 0.829722 0.035913
C33   C     C_R   0.422884 0.842006 0.816475 0.036181
C34   C     C_R   0.441599 0.578104 0.054755 0.556444
C35   C     C_R   0.518753 0.026186 0.330640 0.034616
C36   C     C_R   0.511597 0.480623 0.329724 0.035918
C37   C     C_R   0.842032 0.422950 0.316478 0.036208
C38   C     C_R   0.080926 0.539503 0.909084 -0.040878
C39   C     C_R   0.461030 0.543647 0.908550 -0.038740
C40   C     C_R   0.404567 0.822387 0.898143 -0.041152
C41   C     C_R   0.539504 0.080934 0.409082 -0.040876
C42   C     C_R   0.543643 0.461028 0.408550 -0.038742
C43   C     C_R   0.822398 0.404585 0.398143 -0.041150
C44   C     C_R   0.578271 0.442287 0.445459 0.546199
C45   C     C_R   0.137139 0.558811 0.055184 0.557656
C46   C     C_R   0.558021 0.135557 0.445573 0.549573
C47   C     C_R   0.809423 0.392010 0.440682 0.570280
C48   C     C_R   0.442287 0.578272 0.945459 0.546196
C49   C     C_R   0.135557 0.558021 0.945573 0.549573
C50   C     C_R   0.392007 0.809421 0.940683 0.570284
C51   C     C_R   0.921183 0.457290 0.590568 0.022071
C52   C     C_R   0.540912 0.464076 0.590204 0.022008
C53   C     C_R   0.533761 0.071471 0.589163 0.020642
C54   C     C_R   0.457294 0.921183 0.090567 0.022072
C55   C     C_R   0.464078 0.540914 0.090204 0.022008
C56   C     C_R   0.421597 0.863419 0.054799 0.569658
C57   C     C_R   0.071488 0.533781 0.089168 0.020643
C58   C     C_R   0.956102 0.400876 0.609115 -0.126099
C59   C     C_R   0.595091 0.555665 0.608028 -0.126314
C60   C     C_R   0.438011 0.024357 0.604091 -0.125670
C61   C     C_R   0.400888 0.956112 0.109113 -0.126104
C62   C     C_R   0.555665 0.595098 0.108030 -0.126313
C63   C     C_R   0.024343 0.438031 0.104097 -0.125677
C64   C     C_R   0.990987 0.422472 0.647024 -0.111502
C65   C     C_R   0.572434 0.570002 0.645709 -0.111620
C66   C     C_R   0.416288 0.970706 0.638588 -0.110852
C67   C     C_R   0.007263 0.510125 0.709273 0.335151
C68   C     C_R   0.422487 0.991001 0.147022 -0.111500
C69   C     C_R   0.570001 0.572442 0.145711 -0.111624
C70   C     C_R   0.970703 0.416332 0.138597 -0.110845
C71   C     C_R   0.991183 0.500643 0.666991 0.036900
C72   C     C_R   0.495484 0.492801 0.666147 0.036652
C73   C     C_R   0.490051 0.963610 0.659069 0.035495
C74   C     C_R   0.500655 0.991189 0.166989 0.036903
C75   C     C_R   0.492801 0.495490 0.166148 0.036654
C76   C     C_R   0.963658 0.490122 0.159079 0.035498
C77   C     C_R   0.965106 0.562597 0.647077 -0.110558
C78   C     C_R   0.486149 0.500311 0.708381 0.335551
C79   C     C_R   0.435348 0.404453 0.646852 -0.111826
C80   C     C_R   0.584820 0.006728 0.643085 -0.110656
C81   C     C_R   0.562601 0.965100 0.147076 -0.110555
C82   C     C_R   0.404457 0.435348 0.146852 -0.111824
C83   C     C_R   0.006815 0.584893 0.143095 -0.110661
C84   C     C_R   0.930387 0.541085 0.609106 -0.127612
C85   C     C_R   0.457903 0.390204 0.609103 -0.127843
C86   C     C_R   0.606418 0.060006 0.608406 -0.127845
C87   C     C_R   0.541086 0.930379 0.109106 -0.127610
C88   C     C_R   0.390207 0.457901 0.109103 -0.127842
C89   C     C_R   0.470087 0.919828 0.698466 0.332045
C90   C     C_R   0.060075 0.606464 0.108414 -0.127835
C91   C     C_R   0.016670 0.514592 0.788007 0.374161
C92   C     C_R   0.483725 0.506301 0.787095 0.369314
C93   C     C_R   0.437762 0.862074 0.774170 0.367976
C94   C     C_R   0.514608 0.016700 0.288005 0.374195
C95   C     C_R   0.506291 0.483731 0.287097 0.369323
C96   C     C_R   0.862111 0.437855 0.274177 0.368038
Cr1   Cr    Cr6+3 0.522350 0.263930 0.500020 1.022714
Cr2   Cr    Cr6+3 0.736070 0.258420 0.500020 1.023835
Cr3   Cr    Cr6+3 0.741580 0.477650 0.500020 1.028825
Cr4   Cr    Cr6+3 0.263930 0.522350 0.000020 1.022719
Cr5   Cr    Cr6+3 0.258420 0.736070 0.000020 1.023829
Cr6   Cr    Cr6+3 0.477650 0.741580 0.000020 1.028831
F1    F     F_    0.988006 0.350005 0.834579 -0.594137
F2    F     F_    0.648104 0.642302 0.832628 -0.596558
F3    F     F_    0.268514 0.841178 0.815612 -0.605673
F4    F     F_    0.350025 0.988061 0.334569 -0.594138
F5    F     F_    0.642263 0.648114 0.332633 -0.596563
F6    F     F_    0.841164 0.268570 0.315592 -0.605670
H1    H     H_    0.951005 0.336602 0.595248 0.136731
H2    H     H_    0.586477 0.904897 0.095254 0.133942
H3    H     H_    0.319213 0.414115 0.095767 0.134269
H4    H     H_    0.095352 0.680891 0.097470 0.132532
H5    H     H_    0.044529 0.387436 0.905610 0.162281
H6    H     H_    0.612000 0.659371 0.904254 0.160825
H7    H     H_    0.267904 0.822409 0.889628 0.149612
H8    H     H_    0.387446 0.044563 0.405602 0.162281
H9    H     H_    0.659346 0.612005 0.404259 0.160819
H10   H     H_    0.822372 0.267905 0.389613 0.149586
H11   H     H_    0.012349 0.374381 0.661360 0.148094
H12   H     H_    0.658573 0.614369 0.593811 0.136510
H13   H     H_    0.619028 0.639639 0.659560 0.148450
H14   H     H_    0.342372 0.938047 0.649926 0.147612
H15   H     H_    0.374402 0.012371 0.161357 0.148097
H16   H     H_    0.639636 0.619041 0.159563 0.148441
H17   H     H_    0.938018 0.342416 0.149938 0.147616
H18   H     H_    0.965833 0.624238 0.661504 0.149200
H19   H     H_    0.374577 0.344124 0.661651 0.147153
H20   H     H_    0.643220 0.002286 0.658014 0.146764
H21   H     H_    0.624239 0.965821 0.161504 0.149198
H22   H     H_    0.344128 0.374575 0.161651 0.147152
H23   H     H_    0.380335 0.031252 0.589702 0.136393
H24   H     H_    0.002409 0.643312 0.158026 0.146756
H25   H     H_    0.103833 0.686867 0.903200 0.147386
H26   H     H_    0.313996 0.420614 0.903089 0.157074
H27   H     H_    0.541119 0.819351 0.895544 0.161061
H28   H     H_    0.686862 0.103821 0.403203 0.147380
H29   H     H_    0.420628 0.313987 0.403086 0.157078
H30   H     H_    0.819418 0.541166 0.395558 0.161072
H31   H     H_    0.057003 0.669298 0.835019 0.196773
H32   H     H_    0.331214 0.392229 0.834807 0.168858
H33   H     H_    0.558382 0.838918 0.825028 0.177600
H34   H     H_    0.336615 0.951021 0.095245 0.136727
H35   H     H_    0.669300 0.057004 0.335020 0.196745
H36   H     H_    0.392238 0.331208 0.334805 0.168863
H37   H     H_    0.839004 0.558471 0.325044 0.177561
H38   H     H_    0.614367 0.658582 0.093813 0.136510
H39   H     H_    0.031202 0.380336 0.089705 0.136383
H40   H     H_    0.904912 0.586482 0.595253 0.133941
H41   H     H_    0.414121 0.319207 0.595769 0.134268
H42   H     H_    0.680843 0.095257 0.597462 0.132519
N1    N     N_R   0.023157 0.443930 0.767747 -0.112631
N2    N     N_R   0.441475 0.018141 0.229201 -0.215569
N3    N     N_R   0.580493 0.553181 0.227789 -0.213111
N4    N     N_R   0.882637 0.379573 0.214411 -0.215339
N5    N     N_R   0.001926 0.581669 0.729469 -0.204763
N6    N     N_R   0.417249 0.423375 0.729094 -0.216858
N7    N     N_R   0.543655 0.924709 0.720827 -0.213454
N8    N     N_R   0.581650 0.001879 0.229470 -0.204760
N9    N     N_R   0.423372 0.417253 0.229095 -0.216852
N10   N     N_R   0.925031 0.543815 0.220867 -0.213440
N11   N     N_R   0.007227 0.584266 0.768094 -0.201273
N12   N     N_R   0.551638 0.583607 0.766342 -0.113845
N13   N     N_R   0.415633 0.426575 0.767713 -0.223760
N14   N     N_R   0.527786 0.896290 0.757904 -0.216996
N15   N     N_R   0.584246 0.007187 0.268095 -0.201266
N16   N     N_R   0.426568 0.415637 0.267714 -0.223754
N17   N     N_R   0.896604 0.527944 0.257943 -0.216970
N18   N     N_R   0.363748 0.854549 0.751451 -0.106280
N19   N     N_R   0.443985 0.023249 0.267741 -0.112647
N20   N     N_R   0.583598 0.551646 0.266345 -0.113874
N21   N     N_R   0.854316 0.363785 0.251428 -0.106397
N22   N     N_R   0.018057 0.441419 0.729206 -0.215574
N23   N     N_R   0.553172 0.580497 0.727787 -0.213085
N24   N     N_R   0.379533 0.882862 0.714434 -0.215338
O1    O     O_R   0.498680 0.159540 0.541860 -0.514938
O2    O     O_R   0.358060 0.532760 0.040030 -0.502277
O3    O     O_R   0.174700 0.641940 0.040030 -0.503068
O4    O     O_R   0.467240 0.825300 0.040030 -0.498036
O5    O     O_R   0.498590 0.161190 0.456930 -0.517595
O6    O     O_R   0.838810 0.337400 0.456930 -0.506986
O7    O     O_R   0.662600 0.501410 0.456930 -0.532626
O8    O     O_R   0.161190 0.498590 0.956930 -0.517590
O9    O     O_R   0.337400 0.838810 0.956930 -0.507001
O10   O     O_R   0.501410 0.662600 0.956930 -0.532630
O11   O     O_R   0.532680 0.359580 0.461300 -0.499583
O12   O     O_R   0.840460 0.339140 0.541860 -0.512498
O13   O     O_R   0.640420 0.173100 0.461300 -0.519909
O14   O     O_R   0.826900 0.467320 0.461300 -0.487050
O15   O     O_R   0.359580 0.532680 0.961300 -0.499581
O16   O     O_R   0.173100 0.640420 0.961300 -0.519911
O17   O     O_R   0.467320 0.826900 0.961300 -0.487036
O18   O     O_3   0.666667 0.333333 0.499990 -0.272471
O19   O     O_3   0.333333 0.666667 0.999990 -0.272475
O20   O     O_R   0.660860 0.501320 0.541860 -0.516583
O21   O     O_R   0.159540 0.498680 0.041860 -0.514927
O22   O     O_R   0.339140 0.840460 0.041860 -0.512501
O23   O     O_R   0.501320 0.660860 0.041860 -0.516584
O24   O     O_R   0.532760 0.358060 0.540030 -0.502278
O25   O     O_R   0.641940 0.174700 0.540030 -0.503059
O26   O     O_R   0.825300 0.467240 0.540030 -0.498035

loop_
_geom_bond_atom_site_label_1
_geom_bond_atom_site_label_2
_ccdc_geom_bond_type
C25   C31   A    
C6    C32   A    
C5    F1    S    
C26   C32   A    
C59   H12   S    
Cr1   O1    S    
C22   C29   A    
C16   C42   A    
C58   H1    S    
C10   F6    S    
C50   O9    A    
C34   O23   A    
C90   H4    S    
Cr1   O18   S    
N12   N23   A    
C56   O4    A    
Cr4   O19   S    
N5    N11   A    
C19   H26   S    
Cr1   O11   S    
C29   C36   A    
C45   C57   S    
C47   O6    A    
C64   H11   S    
Cr2   O25   S    
C10   C37   A    
C52   C85   A    
C25   H31   S    
C9    C16   A    
C4    N4    A    
C5    C11   A    
C72   C79   A    
C26   H32   S    
C86   H42   S    
C94   N19   A    
C54   C87   A    
C20   C40   A    
C82   C88   A    
C64   C71   A    
Cr4   O15   S    
C10   C17   A    
C68   C74   A    
C14   H7    S    
C55   C62   A    
C3    N3    A    
C60   H23   S    
C18   H25   S    
C67   N5    A    
N10   N17   A    
C51   C58   A    
C55   C88   A    
C19   C26   A    
C80   C86   A    
C56   O22   A    
C88   H3    S    
C23   C51   S    
C12   O25   A    
C7    C14   A    
C1    O24   A    
C93   N18   A    
C96   N21   A    
Cr3   O26   S    
Cr4   O2    S    
C9    C36   A    
C72   C78   S    
C41   C46   S    
C7    F3    S    
C36   C95   S    
C53   C86   A    
C65   H13   S    
C46   O13   A    
C82   H22   S    
Cr4   O8    S    
C21   H28   S    
C13   H6    S    
C2    C74   S    
Cr5   O22   S    
C45   O3    A    
C44   O11   A    
C60   C66   A    
C34   C55   S    
C3    N9    A    
Cr1   O5    S    
C7    C33   A    
C18   C25   A    
C42   C44   S    
C89   N24   A    
Cr1   O24   S    
C94   N15   A    
C63   H39   S    
Cr3   O14   S    
C1    C52   S    
C53   C60   A    
Cr5   O19   S    
C57   C63   A    
C24   C30   A    
C84   H40   S    
C58   C64   A    
C54   C56   S    
C32   C92   S    
C4    C76   S    
C57   C90   A    
Cr5   O3    S    
N6    N13   A    
Cr2   O18   S    
Cr5   O16   S    
Cr6   O23   S    
C38   C49   S    
C49   O16   A    
C80   H20   S    
C93   N14   A    
C24   H30   S    
C66   C73   A    
C23   O26   A    
C27   C33   A    
N1    N22   A    
C37   C96   S    
C33   C93   S    
C8    C35   A    
N3    N20   A    
C11   C38   A    
N18   N24   A    
C17   C43   A    
Cr2   O13   S    
C52   C59   A    
C78   N23   A    
C81   H21   S    
C22   H29   S    
C63   C70   A    
C2    N8    A    
C2    N2    A    
C66   H14   S    
Cr6   O17   S    
C96   N17   A    
C28   H35   S    
C50   O17   A    
N7    N14   A    
C15   C41   A    
C48   O15   A    
C81   C87   A    
C19   C39   A    
C17   H10   S    
C12   O1    A    
C21   C41   A    
C62   C69   A    
C70   H17   S    
C54   C61   A    
C21   C28   A    
C8    C15   A    
C31   C91   S    
Cr6   O19   S    
C70   C76   A    
Cr6   O4    S    
C87   H2    S    
C74   C81   A    
Cr2   O6    S    
C95   N16   A    
C76   C83   A    
C79   C85   A    
C3    C75   S    
C92   N13   A    
C30   H37   S    
C48   O10   A    
Cr4   O21   S    
C92   N12   A    
C28   C35   A    
C83   C90   A    
C79   H19   S    
C45   O21   A    
C12   C53   S    
C8    F4    S    
C4    N10   A    
C23   O12   A    
C75   C82   A    
C89   N7    A    
C20   C27   A    
C67   N22   A    
C9    F5    S    
C65   C72   A    
C6    F2    S    
C77   C84   A    
N9    N16   A    
Cr6   O10   S    
C35   C94   S    
C1    O20   A    
C18   C38   A    
C73   C89   S    
C83   H24   S    
Cr2   O12   S    
C68   H15   S    
C16   H9    S    
C46   O5    A    
C6    C13   A    
C91   N1    A    
N2    N19   A    
C29   H36   S    
C61   C68   A    
C78   N6    A    
Cr3   O18   S    
C71   C77   A    
C40   C50   S    
C44   O7    A    
C27   H33   S    
C73   C80   A    
N4    N21   A    
C69   C75   A    
C67   C71   S    
C20   H27   S    
C11   H5    S    
C95   N20   A    
C85   H41   S    
C13   C39   A    
C34   O2    A    
C69   H16   S    
C14   C40   A    
C49   O8    A    
C61   H34   S    
Cr3   O20   S    
Cr5   O9    S    
C30   C37   A    
C62   H38   S    
C22   C42   A    
C24   C43   A    
C15   H8    S    
C91   N11   A    
Cr3   O7    S    
C47   O14   A    
C43   C47   S    
C51   C84   A    
C59   C65   A    
C77   H18   S    
N8    N15   A    
C39   C48   S    
C5    C31   A    
