data_mof_unit_65037.cif
_audit_creation_date              2012-12-10T19:18:37-0500
_audit_creation_method            fapswitch 2.2
_symmetry_space_group_name_H-M    P1
_symmetry_Int_Tables_number       1
_space_group_crystal_system       triclinic
_cell_length_a                    24.511299
_cell_length_b                    24.511318
_cell_length_c                    36.260273
_cell_angle_alpha                 89.99977
_cell_angle_beta                  90.0
_cell_angle_gamma                 89.998588
_cell_volume                      21785.3259141

loop_
_atom_site_label
_atom_site_type_symbol
_atom_type_description
_atom_site_fract_x
_atom_site_fract_y
_atom_site_fract_z
_atom_type_partial_charge
C1    C     C_R   0.728953 0.228959 0.249997 0.088555
C2    C     C_R   0.271105 0.228906 0.249996 0.088150
C3    C     C_R   0.742594 0.824877 0.241376 -0.208653
C4    C     C_R   0.824864 0.257412 0.758636 -0.208610
C5    C     C_R   0.175168 0.742569 0.241293 -0.208628
C6    C     C_R   0.742588 0.824866 0.758627 -0.208641
C7    C     C_R   0.257419 0.175144 0.241358 -0.208640
C8    C     C_R   0.198600 0.280766 0.218118 -0.207380
C9    C     C_R   0.801413 0.719248 0.781876 -0.207388
C10   C     C_R   0.280850 0.801331 0.218095 -0.207264
C11   C     C_R   0.719224 0.198608 0.781882 -0.207278
C12   C     C_R   0.801431 0.719270 0.218133 -0.207375
C13   C     C_R   0.771101 0.271096 0.749998 0.088126
C14   C     C_R   0.198587 0.280750 0.781873 -0.207375
C15   C     C_R   0.719253 0.198582 0.218124 -0.207301
C16   C     C_R   0.280888 0.801296 0.781911 -0.207238
C17   C     C_R   0.658666 0.178767 0.282345 -0.021882
C18   C     C_R   0.341209 0.821376 0.717623 -0.021834
C19   C     C_R   0.821238 0.658668 0.282352 -0.021933
C20   C     C_R   0.178749 0.341319 0.717646 -0.021928
C21   C     C_R   0.341247 0.821335 0.282371 -0.021848
C22   C     C_R   0.658699 0.178729 0.717642 -0.021870
C23   C     C_R   0.178748 0.341318 0.282353 -0.021924
C24   C     C_R   0.228911 0.728903 0.249996 0.088145
C25   C     C_R   0.821248 0.658678 0.717648 -0.021924
C26   C     C_R   0.634455 0.797139 0.741667 -0.021340
C27   C     C_R   0.365546 0.202861 0.258341 -0.021340
C28   C     C_R   0.797140 0.365540 0.741657 -0.021334
C29   C     C_R   0.202849 0.634480 0.258406 -0.021351
C30   C     C_R   0.365544 0.202860 0.741668 -0.021341
C31   C     C_R   0.634460 0.797142 0.258336 -0.021340
C32   C     C_R   0.202851 0.634482 0.741597 -0.021356
C33   C     C_R   0.797138 0.365548 0.258328 -0.021333
C34   C     C_R   0.134485 0.702848 0.758406 -0.021312
C35   C     C_R   0.271097 0.228897 0.749997 0.088140
C36   C     C_R   0.865545 0.297140 0.241670 -0.021288
C37   C     C_R   0.297137 0.134452 0.758329 -0.021286
C38   C     C_R   0.702865 0.865554 0.241670 -0.021278
C39   C     C_R   0.865543 0.297139 0.758342 -0.021295
C40   C     C_R   0.134485 0.702846 0.241590 -0.021308
C41   C     C_R   0.702862 0.865545 0.758332 -0.021282
C42   C     C_R   0.297142 0.134462 0.241656 -0.021285
C43   C     C_R   0.158686 0.321258 0.217644 -0.021915
C44   C     C_R   0.841322 0.678753 0.782351 -0.021920
C45   C     C_R   0.321346 0.841239 0.217623 -0.021969
C46   C     C_R   0.728909 0.771111 0.250006 0.088161
C47   C     C_R   0.678726 0.158702 0.782358 -0.021990
C48   C     C_R   0.841334 0.678768 0.217653 -0.021913
C49   C     C_R   0.158679 0.321248 0.782350 -0.021912
C50   C     C_R   0.678757 0.158674 0.217650 -0.021996
C51   C     C_R   0.321385 0.841202 0.782381 -0.021952
C52   C     C_R   0.647934 0.147939 0.249998 -0.097378
C53   C     C_R   0.352072 0.852067 0.750002 -0.097252
C54   C     C_R   0.852064 0.647937 0.250003 -0.097367
C55   C     C_R   0.147936 0.352063 0.749998 -0.097361
C56   C     C_R   0.352071 0.852066 0.249998 -0.097271
C57   C     C_R   0.228911 0.728906 0.750003 0.088107
C58   C     C_R   0.647934 0.147936 0.750000 -0.097339
C59   C     C_R   0.147937 0.352066 0.250000 -0.097346
C60   C     C_R   0.852064 0.647937 0.750000 -0.097362
C61   C     C_R   0.647900 0.852100 0.750000 -0.099698
C62   C     C_R   0.352101 0.147903 0.249999 -0.099709
C63   C     C_R   0.852099 0.352098 0.750000 -0.099720
C64   C     C_R   0.147907 0.647904 0.249999 -0.099798
C65   C     C_R   0.352098 0.147899 0.749999 -0.099695
C66   C     C_R   0.647903 0.852104 0.250002 -0.099692
C67   C     C_R   0.147907 0.647905 0.750001 -0.099802
C68   C     C_R   0.771098 0.271103 0.249997 0.088136
C69   C     C_R   0.852099 0.352101 0.249999 -0.099702
C70   C     C_1   0.586792 0.051895 0.039472 0.195962
C71   C     C_1   0.413209 0.948101 0.960528 0.195978
C72   C     C_1   0.953349 0.589761 0.039469 0.196079
C73   C     C_1   0.046651 0.410239 0.960531 0.196077
C74   C     C_1   0.413209 0.948101 0.039472 0.195973
C75   C     C_1   0.586792 0.051896 0.960528 0.195966
C76   C     C_1   0.046651 0.410239 0.039469 0.196076
C77   C     C_1   0.953349 0.589761 0.960530 0.196078
C78   C     C_1   0.089748 0.453354 0.539470 0.196053
C79   C     C_1   0.500000 0.999999 0.111777 -0.110773
C80   C     C_1   0.910251 0.546645 0.460529 0.196047
C81   C     C_1   0.545333 0.090396 0.539472 0.196075
C82   C     C_1   0.454663 0.909605 0.460528 0.196083
C83   C     C_1   0.910252 0.546645 0.539471 0.196050
C84   C     C_1   0.089749 0.453356 0.460529 0.196054
C85   C     C_1   0.454664 0.909604 0.539472 0.196090
C86   C     C_1   0.545333 0.090396 0.460528 0.196070
C87   C     C_1   0.630944 0.168811 0.316891 0.209332
C88   C     C_1   0.368793 0.831488 0.683053 0.209063
C89   C     C_1   0.831182 0.630934 0.316895 0.209388
C90   C     C_1   0.500000 0.999999 0.888223 -0.110763
C91   C     C_1   0.168778 0.369028 0.683098 0.209368
C92   C     C_1   0.368868 0.831404 0.316939 0.209142
C93   C     C_1   0.631009 0.168736 0.683089 0.209261
C94   C     C_1   0.168763 0.369014 0.316905 0.209357
C95   C     C_1   0.831218 0.630967 0.683098 0.209353
C96   C     C_1   0.579128 0.779603 0.734554 0.203509
C97   C     C_1   0.420872 0.220395 0.265469 0.203531
C98   C     C_1   0.779604 0.420864 0.734531 0.203489
C99   C     C_1   0.220373 0.579174 0.265605 0.203593
C100  C     C_1   0.420871 0.220398 0.734554 0.203509
C101  C     C_1   1.000000 0.500000 0.111781 -0.110802
C102  C     C_1   0.579133 0.779601 0.265451 0.203512
C103  C     C_1   0.220374 0.579176 0.734402 0.203586
C104  C     C_1   0.779602 0.420875 0.265444 0.203472
C105  C     C_1   0.079179 0.720374 0.765599 0.203526
C106  C     C_1   0.920873 0.279603 0.234556 0.203411
C107  C     C_1   0.279601 0.079125 0.765447 0.203319
C108  C     C_1   0.720400 0.920882 0.234549 0.203333
C109  C     C_1   0.920866 0.279606 0.765474 0.203434
C110  C     C_1   0.079180 0.720373 0.234393 0.203533
C111  C     C_1   0.720398 0.920872 0.765452 0.203326
C112  C     C_R   0.271056 0.771049 0.750003 0.088433
C113  C     C_1   0.000000 0.500000 0.888219 -0.110803
C114  C     C_1   0.279605 0.079139 0.234531 0.203339
C115  C     C_1   0.130977 0.331231 0.183093 0.209331
C116  C     C_1   0.869034 0.668787 0.816898 0.209359
C117  C     C_1   0.331422 0.868856 0.183056 0.209372
C118  C     C_1   0.668721 0.131023 0.816913 0.209492
C119  C     C_1   0.869039 0.668792 0.183099 0.209371
C120  C     C_1   0.130976 0.331227 0.816902 0.209336
C121  C     C_1   0.668790 0.130960 0.183102 0.209557
C122  C     C_1   0.331508 0.868778 0.816953 0.209286
C123  C     C_1   0.000000 0.500000 0.611780 -0.110827
C124  C     C_1   1.000000 0.500000 0.388220 -0.110829
C125  C     C_1   0.499999 1.000000 0.611777 -0.110809
C126  C     C_1   0.499999 1.000000 0.388223 -0.110820
C127  C     C_R   0.044265 0.476995 0.480580 -0.054012
C128  C     C_R   0.955735 0.523005 0.519420 -0.054010
C129  C     C_R   0.522360 0.044588 0.480582 -0.054048
C130  C     C_R   0.477636 0.955413 0.519418 -0.054058
C131  C     C_R   0.955735 0.523005 0.480580 -0.054008
C132  C     C_R   0.771057 0.728967 0.250007 0.088592
C133  C     C_R   0.044265 0.476995 0.519420 -0.054011
C134  C     C_R   0.477636 0.955413 0.480582 -0.054056
C135  C     C_R   0.522359 0.044588 0.519418 -0.054051
C136  C     C_R   0.542811 0.025597 0.980582 -0.053801
C137  C     C_R   0.457190 0.974399 0.019418 -0.053806
C138  C     C_R   0.976995 0.544269 0.980579 -0.053999
C139  C     C_R   0.023006 0.455731 0.019421 -0.053998
C140  C     C_R   0.457190 0.974399 0.980582 -0.053809
C141  C     C_R   0.542811 0.025597 0.019418 -0.053798
C142  C     C_R   0.023006 0.455731 0.980579 -0.053999
C143  C     C_R   0.228951 0.271042 0.749996 0.088566
C144  C     C_R   0.976995 0.544269 0.019421 -0.053999
C145  C     C_R   0.000000 0.500000 0.461228 0.027273
C146  C     C_R   0.000000 0.500000 0.538772 0.027273
C147  C     C_R   0.499998 0.000000 0.461229 0.027251
C148  C     C_R   0.499998 0.000000 0.538771 0.027250
C149  C     C_R   0.500000 0.999998 0.961229 0.027261
C150  C     C_R   0.500000 0.999998 0.038771 0.027261
C151  C     C_R   0.000000 0.500000 0.961228 0.027306
C152  C     C_R   0.000000 0.500000 0.038772 0.027306
C153  C     C_R   0.500000 1.000000 0.348837 0.819011
C154  C     C_R   0.271057 0.771047 0.249996 0.088517
C155  C     C_R   0.500000 1.000000 0.651163 0.819021
C156  C     C_R   1.000000 0.500000 0.348836 0.819043
C157  C     C_R   1.000000 0.500000 0.651164 0.819043
C158  C     C_R   1.000000 0.500000 0.848836 0.819069
C159  C     C_R   1.000000 0.500000 0.151164 0.819070
C160  C     C_R   0.500000 1.000000 0.848837 0.819220
C161  C     C_R   0.500000 1.000000 0.151163 0.819209
C162  C     C_R   0.605273 0.894728 0.250000 0.788053
C163  C     C_R   0.394726 0.105273 0.750000 0.788047
C164  C     C_R   0.105275 0.605275 0.250000 0.787986
C165  C     C_R   0.728956 0.228950 0.749998 0.088540
C166  C     C_R   0.894727 0.394726 0.750000 0.788028
C167  C     C_R   0.394727 0.105274 0.250000 0.788041
C168  C     C_R   0.605273 0.894727 0.750000 0.788045
C169  C     C_R   0.894727 0.394727 0.250000 0.788035
C170  C     C_R   0.105276 0.605275 0.750000 0.787981
C171  C     C_R   0.605286 0.105287 0.750000 0.789976
C172  C     C_R   0.394715 0.894714 0.250000 0.790003
C173  C     C_R   0.105287 0.394713 0.750000 0.789906
C174  C     C_R   0.894713 0.605286 0.250000 0.789906
C175  C     C_R   0.394715 0.894714 0.750000 0.790003
C176  C     C_R   0.228961 0.271053 0.249997 0.088580
C177  C     C_R   0.605286 0.105288 0.250000 0.789955
C178  C     C_R   0.894713 0.605287 0.750000 0.789904
C179  C     C_R   0.105286 0.394714 0.250000 0.789912
C180  C     C_1   1.000000 0.500000 0.421373 -0.025364
C181  C     C_1   0.000000 0.500000 0.578627 -0.025364
C182  C     C_1   0.499999 0.000000 0.421374 -0.025396
C183  C     C_1   0.499998 0.000000 0.578626 -0.025395
C184  C     C_1   0.500000 0.999999 0.921374 -0.025140
C185  C     C_1   0.500000 0.999999 0.078626 -0.025142
C186  C     C_1   0.000000 0.500000 0.921372 -0.025344
C187  C     C_R   0.771046 0.728955 0.749999 0.088573
C188  C     C_1   0.000000 0.500000 0.078628 -0.025344
C189  C     C_R   0.698575 0.219262 0.281869 -0.207390
C190  C     C_R   0.301303 0.780880 0.718094 -0.207326
C191  C     C_R   0.780749 0.698584 0.281879 -0.207398
C192  C     C_R   0.219244 0.301409 0.718120 -0.207378
C193  C     C_R   0.301340 0.780838 0.281898 -0.207349
C194  C     C_R   0.698610 0.219222 0.718115 -0.207373
C195  C     C_R   0.219246 0.301411 0.281877 -0.207373
C196  C     C_R   0.780753 0.698589 0.718122 -0.207371
C197  C     C_R   0.675135 0.757414 0.741371 -0.208569
C198  C     C_R   0.728901 0.771101 0.749998 0.088143
C199  C     C_R   0.324868 0.242589 0.258636 -0.208580
C200  C     C_R   0.757415 0.324859 0.741361 -0.208536
C201  C     C_R   0.242575 0.675161 0.258700 -0.208560
C202  C     C_R   0.324863 0.242585 0.741372 -0.208569
C203  C     C_R   0.675143 0.757419 0.258634 -0.208577
C204  C     C_R   0.242576 0.675163 0.741302 -0.208538
C205  C     C_R   0.757410 0.324869 0.258621 -0.208539
C206  C     C_R   0.175168 0.742572 0.758703 -0.208608
C207  C     C_R   0.824864 0.257414 0.241373 -0.208607
C208  C     C_R   0.257410 0.175131 0.758622 -0.208630
H1    H     H_    0.706867 0.242720 0.306621 0.148145
H2    H     H_    0.335170 0.284628 0.264916 0.148385
H3    H     H_    0.715374 0.335160 0.735082 0.148401
H4    H     H_    0.284601 0.664873 0.265031 0.148397
H5    H     H_    0.335166 0.284628 0.735102 0.148389
H6    H     H_    0.664842 0.715376 0.264906 0.148387
H7    H     H_    0.284604 0.664875 0.734974 0.148413
H8    H     H_    0.715367 0.335175 0.264889 0.148392
H9    H     H_    0.164881 0.784600 0.765032 0.148371
H10   H     H_    0.835169 0.215371 0.235105 0.148350
H11   H     H_    0.215366 0.164827 0.764892 0.148361
H12   H     H_    0.292909 0.757522 0.693319 0.148180
H13   H     H_    0.784636 0.835182 0.235105 0.148353
H14   H     H_    0.835166 0.215372 0.764915 0.148358
H15   H     H_    0.164882 0.784596 0.234961 0.148354
H16   H     H_    0.784631 0.835169 0.764899 0.148357
H17   H     H_    0.215378 0.164845 0.235078 0.148361
H18   H     H_    0.206903 0.257322 0.193359 0.148131
H19   H     H_    0.793113 0.742699 0.806631 0.148140
H20   H     H_    0.257467 0.792966 0.193321 0.148193
H21   H     H_    0.742656 0.206926 0.806644 0.148190
H22   H     H_    0.793142 0.742729 0.193378 0.148130
H23   H     H_    0.757290 0.706873 0.306632 0.148157
H24   H     H_    0.206887 0.257301 0.806629 0.148137
H25   H     H_    0.742709 0.206874 0.193371 0.148185
H26   H     H_    0.257532 0.792901 0.806687 0.148222
H27   H     H_    0.242693 0.293109 0.693365 0.148168
H28   H     H_    0.292976 0.757453 0.306671 0.148151
H29   H     H_    0.706927 0.242654 0.693354 0.148150
H30   H     H_    0.242690 0.293106 0.306634 0.148163
H31   H     H_    0.757304 0.706888 0.693366 0.148159
H32   H     H_    0.664832 0.715371 0.735099 0.148392
N1    N     N_1   0.621848 0.072862 0.055486 -0.170891
N2    N     N_1   0.874008 0.565477 0.444520 -0.170259
N3    N     N_1   0.563645 0.126907 0.555486 -0.170100
N4    N     N_1   0.436351 0.873093 0.444514 -0.170080
N5    N     N_1   0.874008 0.565477 0.555481 -0.170251
N6    N     N_1   0.125992 0.434524 0.444519 -0.170241
N7    N     N_1   0.436352 0.873093 0.555486 -0.170070
N8    N     N_1   0.563646 0.126907 0.444514 -0.170111
N9    N     N_1   0.608821 0.160886 0.344580 -0.163708
N10   N     N_1   0.390810 0.839549 0.655341 -0.163814
N11   N     N_1   0.839095 0.608799 0.344581 -0.163616
N12   N     N_1   0.378153 0.927135 0.944514 -0.170840
N13   N     N_1   0.160840 0.391140 0.655407 -0.163622
N14   N     N_1   0.390912 0.839422 0.344644 -0.163796
N15   N     N_1   0.608910 0.160782 0.655395 -0.163738
N16   N     N_1   0.160816 0.391114 0.344599 -0.163633
N17   N     N_1   0.839153 0.608853 0.655408 -0.163634
N18   N     N_1   0.534853 0.765491 0.728873 -0.179333
N19   N     N_1   0.465144 0.234502 0.271161 -0.179336
N20   N     N_1   0.765493 0.465136 0.728840 -0.179383
N21   N     N_1   0.234477 0.534917 0.271356 -0.179311
N22   N     N_1   0.465145 0.234510 0.728872 -0.179343
N23   N     N_1   0.934522 0.626005 0.055476 -0.170277
N24   N     N_1   0.534859 0.765488 0.271130 -0.179340
N25   N     N_1   0.234480 0.534918 0.728652 -0.179312
N26   N     N_1   0.765492 0.465150 0.271127 -0.179394
N27   N     N_1   0.034920 0.734480 0.771347 -0.179373
N28   N     N_1   0.965148 0.265492 0.228875 -0.179453
N29   N     N_1   0.265491 0.034851 0.771130 -0.179560
N30   N     N_1   0.734507 0.965155 0.228863 -0.179575
N31   N     N_1   0.965138 0.265497 0.771171 -0.179438
N32   N     N_1   0.034922 0.734478 0.228643 -0.179374
N33   N     N_1   0.734509 0.965145 0.771137 -0.179569
N34   N     N_1   0.065479 0.373995 0.944524 -0.170283
N35   N     N_1   0.265492 0.034867 0.228842 -0.179555
N36   N     N_1   0.108866 0.339166 0.155402 -0.163660
N37   N     N_1   0.891150 0.660852 0.844588 -0.163632
N38   N     N_1   0.339446 0.890896 0.155349 -0.163431
N39   N     N_1   0.660756 0.108935 0.844610 -0.163385
N40   N     N_1   0.891141 0.660856 0.155406 -0.163652
N41   N     N_1   0.108871 0.339168 0.844595 -0.163660
N42   N     N_1   0.660856 0.108845 0.155412 -0.163358
N43   N     N_1   0.339577 0.890788 0.844666 -0.163450
N44   N     N_1   0.378153 0.927135 0.055487 -0.170853
N45   N     N_1   0.621848 0.072862 0.944513 -0.170877
N46   N     N_1   0.065478 0.373995 0.055476 -0.170283
N47   N     N_1   0.934522 0.626005 0.944524 -0.170280
N48   N     N_1   0.125992 0.434522 0.555480 -0.170245
O1    O     O_3   0.500000 1.000000 0.250000 -0.496993
O2    O     O_R   0.500000 0.045450 0.668550 -0.628548
O3    O     O_R   0.045450 0.500000 0.331450 -0.628557
O4    O     O_R   0.954550 0.500000 0.668550 -0.628565
O5    O     O_R   1.000000 0.545450 0.831450 -0.628558
O6    O     O_R   1.000000 0.454550 0.168550 -0.628565
O7    O     O_R   0.454550 1.000000 0.831450 -0.628621
O8    O     O_R   0.545450 1.000000 0.168550 -0.628633
O9    O     O_R   1.000000 0.454550 0.831450 -0.628563
O10   O     O_R   1.000000 0.545450 0.168550 -0.628560
O11   O     O_R   0.545450 1.000000 0.831450 -0.628632
O12   O     O_3   0.500000 1.000000 0.750000 -0.496999
O13   O     O_R   0.454550 1.000000 0.168550 -0.628624
O14   O     O_R   0.564020 0.890520 0.271340 -0.631784
O15   O     O_R   0.435980 0.109480 0.728660 -0.631775
O16   O     O_R   0.109480 0.564020 0.271340 -0.631796
O17   O     O_R   0.890520 0.435980 0.728660 -0.631791
O18   O     O_R   0.435980 0.109480 0.271340 -0.631775
O19   O     O_R   0.564020 0.890520 0.728660 -0.631784
O20   O     O_R   0.890520 0.435980 0.271340 -0.631791
O21   O     O_R   0.109480 0.564020 0.728660 -0.631791
O22   O     O_R   0.564020 0.109480 0.728660 -0.629283
O23   O     O_3   1.000000 0.500000 0.250000 -0.497003
O24   O     O_R   0.435980 0.890520 0.271340 -0.629272
O25   O     O_R   0.109480 0.435980 0.728660 -0.629315
O26   O     O_R   0.890520 0.564020 0.271340 -0.629311
O27   O     O_R   0.435980 0.890520 0.728660 -0.629255
O28   O     O_R   0.564020 0.109480 0.271340 -0.629287
O29   O     O_R   0.890520 0.564020 0.728660 -0.629303
O30   O     O_R   0.109480 0.435980 0.271340 -0.629316
O31   O     O_R   0.064020 0.390520 0.771340 -0.629305
O32   O     O_R   0.935980 0.609480 0.228660 -0.629318
O33   O     O_R   0.609480 0.064020 0.771340 -0.629353
O34   O     O_3   1.000000 0.500000 0.750000 -0.497002
O35   O     O_R   0.390520 0.935980 0.228660 -0.629344
O36   O     O_R   0.935980 0.609480 0.771340 -0.629317
O37   O     O_R   0.064020 0.390520 0.228660 -0.629307
O38   O     O_R   0.390520 0.935980 0.771340 -0.629327
O39   O     O_R   0.609480 0.064020 0.228660 -0.629355
O40   O     O_R   0.064020 0.609480 0.228660 -0.631781
O41   O     O_R   0.935980 0.390520 0.771340 -0.631779
O42   O     O_R   0.609480 0.935980 0.228660 -0.631827
O43   O     O_R   0.390520 0.064020 0.771340 -0.631833
O44   O     O_R   0.935980 0.390520 0.228660 -0.631777
O45   O     O_R   0.500000 0.045450 0.331450 -0.628546
O46   O     O_R   0.064020 0.609480 0.771340 -0.631777
O47   O     O_R   0.390520 0.064020 0.228660 -0.631831
O48   O     O_R   0.609480 0.935980 0.771340 -0.631825
O49   O     O_R   0.500000 0.954550 0.668550 -0.628535
O50   O     O_R   0.954550 0.500000 0.331450 -0.628567
O51   O     O_R   0.045450 0.500000 0.668550 -0.628559
O52   O     O_R   0.500000 0.954550 0.331450 -0.628538
Zn1   Zn    Zn3+2 0.564990 1.000000 0.219470 1.001108
Zn2   Zn    Zn3+2 0.935010 0.500000 0.280530 1.001164
Zn3   Zn    Zn3+2 0.500000 0.064990 0.719470 1.001217
Zn4   Zn    Zn3+2 0.500000 0.935010 0.280530 1.001224
Zn5   Zn    Zn3+2 0.935010 0.500000 0.719470 1.001165
Zn6   Zn    Zn3+2 0.064990 0.500000 0.280530 1.001156
Zn7   Zn    Zn3+2 0.500000 0.935010 0.719470 1.001233
Zn8   Zn    Zn3+2 0.500000 0.064990 0.280530 1.001211
Zn9   Zn    Zn3+2 0.435010 1.000000 0.780530 1.001129
Zn10  Zn    Zn3+2 0.000000 0.564990 0.219470 1.001165
Zn11  Zn    Zn3+2 1.000000 0.435010 0.780530 1.001176
Zn12  Zn    Zn3+2 0.435010 1.000000 0.219470 1.001118
Zn13  Zn    Zn3+2 0.564990 1.000000 0.780530 1.001113
Zn14  Zn    Zn3+2 1.000000 0.435010 0.219470 1.001177
Zn15  Zn    Zn3+2 1.000000 0.564990 0.780530 1.001169
Zn16  Zn    Zn3+2 0.064990 0.500000 0.719470 1.001158

loop_
_geom_bond_atom_site_label_1
_geom_bond_atom_site_label_2
_ccdc_geom_bond_type
C13   C200  A    
C195  H30   S    
C41   C61   A    
C83   C128  S    
C64   C164  S    
C10   C154  A    
C150  C185  S    
C204  H7    S    
O43   Zn9   S    
C20   C55   A    
O22   Zn3   S    
C187  C196  A    
C139  C142  A    
C49   C120  S    
C139  C152  A    
C167  O18   A    
C7    C42   A    
C26   C197  A    
C55   C173  S    
O19   Zn7   S    
O39   Zn1   S    
C63   C166  S    
C27   C97   S    
C45   C56   A    
C50   C52   A    
C1    C15   A    
C159  O10   A    
C101  C188  T    
C161  O13   A    
C122  N43   T    
C201  H4    S    
C14   H24   S    
C33   C69   A    
C29   C64   A    
C206  H9    S    
C17   C87   S    
C130  C134  A    
C50   C121  S    
C79   C161  S    
C17   C52   A    
C24   C154  S    
C114  N35   T    
C6    H16   S    
C73   C142  S    
O21   Zn16  S    
C30   C202  A    
C74   C137  S    
C29   C99   S    
C36   C106  S    
O11   Zn13  S    
C86   C129  S    
C77   C138  S    
C8    H18   S    
C75   C136  S    
C40   C110  S    
O25   Zn16  S    
C156  O3    A    
O34   Zn15  S    
C82   C134  S    
C158  O9    A    
C136  C141  A    
C68   C207  A    
C174  O26   A    
O12   Zn7   S    
C127  C145  A    
C120  N41   T    
C25   C95   S    
C37   C208  A    
C156  O50   A    
O5    Zn15  S    
C192  H27   S    
C72   C144  S    
C18   C190  A    
C72   N23   T    
C12   C132  A    
C146  C181  S    
O10   Zn10  S    
O1    Zn4   S    
O17   Zn5   S    
C22   C58   A    
C138  C151  A    
C91   N13   T    
C171  O22   A    
C61   C168  S    
C54   C174  S    
C58   C171  S    
O33   Zn13  S    
C109  N31   T    
C110  N32   T    
O30   Zn6   S    
C57   C204  A    
C59   C179  S    
C83   N5    T    
C103  N25   T    
C129  C147  A    
C28   C63   A    
C35   C208  A    
C39   C109  S    
C99   N21   T    
C191  H23   S    
C11   C165  A    
C123  C181  T    
C60   C178  S    
C19   C191  A    
C21   C92   S    
C151  C186  S    
O45   Zn8   S    
C33   C104  S    
C2    C7    A    
C16   C51   A    
C1    C68   S    
C169  O44   A    
C23   C59   A    
C3    C46   A    
C33   C205  A    
C162  O42   A    
C164  O16   A    
C46   C132  S    
C175  O27   A    
C30   C100  S    
C84   N6    T    
C177  O39   A    
C52   C177  S    
C172  O35   A    
O12   Zn9   S    
C179  O37   A    
C129  C135  A    
C42   C114  S    
C164  O40   A    
C205  H8    S    
C37   C65   A    
C149  C184  S    
C42   C62   A    
C193  H28   S    
C43   C59   A    
O40   Zn10  S    
C208  H11   S    
C7    H17   S    
C11   H21   S    
C166  O17   A    
C38   C108  S    
C76   N46   T    
C77   N47   T    
C78   N48   T    
O29   Zn5   S    
C141  C150  A    
O34   Zn5   S    
C170  O21   A    
C26   C96   S    
C24   C201  A    
C200  H3    S    
C187  C198  S    
C2    C199  A    
C27   C199  A    
C123  C157  S    
C49   C55   A    
C57   C206  A    
C18   C88   S    
C51   C53   A    
O3    Zn6   S    
C117  N38   T    
C162  O14   A    
C27   C62   A    
O12   Zn13  S    
C73   N34   T    
C65   C163  S    
C10   C45   A    
C69   C169  S    
C179  O30   A    
C44   C116  S    
C25   C196  A    
C32   C67   A    
C19   C54   A    
O18   Zn8   S    
C25   C60   A    
O51   Zn16  S    
O35   Zn12  S    
C137  C150  A    
C161  O8    A    
O41   Zn11  S    
O12   Zn3   S    
C128  C131  A    
C53   C175  S    
C76   C139  S    
C45   C117  S    
C87   N9    T    
C70   C141  S    
C158  O5    A    
C190  H12   S    
C8    C176  A    
C71   C140  S    
C105  N27   T    
C172  O24   A    
C106  N28   T    
O23   Zn2   S    
C108  N30   T    
O36   Zn15  S    
O32   Zn10  S    
O47   Zn12  S    
C144  C152  A    
C138  C144  A    
C128  C146  A    
C148  C183  S    
O23   Zn14  S    
C131  C145  A    
C176  C195  A    
C197  C198  A    
C30   C65   A    
C112  C190  A    
C152  C188  S    
C96   N18   T    
C41   C111  S    
C23   C195  A    
C85   N7    T    
C21   C193  A    
O13   Zn12  S    
C140  C149  A    
O34   Zn11  S    
C196  H31   S    
C1    C189  A    
O4    Zn5   S    
O48   Zn13  S    
C168  O19   A    
C11   C47   A    
C8    C43   A    
O6    Zn14  S    
C165  C194  A    
C136  C149  A    
C134  C147  A    
C177  O28   A    
C160  O11   A    
C37   C107  S    
O23   Zn6   S    
C70   N1    T    
C118  N39   T    
O24   Zn4   S    
C125  C183  T    
O44   Zn14  S    
C66   C162  S    
O34   Zn16  S    
C178  O29   A    
C18   C53   A    
C154  C193  A    
C115  N36   T    
C47   C118  S    
C81   C135  S    
O14   Zn4   S    
O37   Zn14  S    
C74   N44   T    
C3    H13   S    
C80   C131  S    
O16   Zn6   S    
C56   C172  S    
C157  O4    A    
C163  O43   A    
C137  C140  A    
C157  O51   A    
C48   C119  S    
C67   C170  S    
C20   C91   S    
C29   C201  A    
C31   C102  S    
O38   Zn9   S    
C127  C133  A    
C160  O7    A    
C119  N40   T    
O15   Zn3   S    
C32   C204  A    
C85   C130  S    
C13   C165  S    
C16   H26   S    
C75   N45   T    
C32   C103  S    
C9    H19   S    
O27   Zn7   S    
C147  C182  S    
C90   C184  T    
C155  O2    A    
O1    Zn8   S    
C71   N12   T    
C155  O49   A    
C16   C112  A    
C28   C98   S    
C14   C143  A    
C207  H10   S    
C86   N8    T    
C89   N11   T    
C34   C105  S    
C173  O31   A    
O52   Zn4   S    
C174  O32   A    
C167  O47   A    
C34   C67   A    
C20   C192  A    
C21   C56   A    
C93   N15   T    
C35   C202  A    
C12   H22   S    
C171  O33   A    
C199  H2    S    
C81   N3    T    
O20   Zn2   S    
C189  H1    S    
C44   C60   A    
C4    H14   S    
C145  C180  S    
C80   N2    T    
O2    Zn3   S    
C202  H5    S    
C90   C160  S    
C78   C133  S    
C14   C49   A    
C126  C153  S    
C101  C159  S    
C5    C40   A    
O46   Zn15  S    
C51   C122  S    
C133  C146  A    
C35   C143  S    
C142  C151  A    
C31   C66   A    
C107  N29   T    
C203  H6    S    
C12   C48   A    
C159  O6    A    
C34   C206  A    
C48   C54   A    
C28   C200  A    
C116  N37   T    
C104  N26   T    
C197  H32   S    
C57   C112  S    
O31   Zn11  S    
C15   C50   A    
C4    C13   A    
O1    Zn1   S    
O7    Zn9   S    
C2    C176  S    
C178  O36   A    
C38   C66   A    
C3    C38   A    
C166  O41   A    
C143  C192  A    
C113  C158  S    
C31   C203  A    
C43   C115  S    
C84   C127  S    
C62   C167  S    
C10   H20   S    
C173  O25   A    
O23   Zn10  S    
C153  O45   A    
O26   Zn2   S    
O28   Zn8   S    
C130  C148  A    
C6    C198  A    
C17   C189  A    
O50   Zn2   S    
C6    C41   A    
C36   C207  A    
O8    Zn1   S    
C153  O52   A    
C168  O48   A    
C19   C89   S    
C94   N16   T    
C169  O20   A    
C4    C39   A    
C15   H25   S    
C82   N4    T    
C26   C61   A    
C132  C191  A    
C5    H15   S    
C100  N22   T    
C124  C156  S    
C22   C93   S    
C102  N24   T    
C126  C182  T    
C121  N42   T    
O1    Zn12  S    
C36   C69   A    
C97   N19   T    
C88   N10   T    
C98   N20   T    
C95   N17   T    
C46   C203  A    
C9    C44   A    
C79   C185  T    
C9    C187  A    
C175  O38   A    
C39   C63   A    
C40   C64   A    
C23   C94   S    
C163  O15   A    
C47   C58   A    
O9    Zn11  S    
C5    C24   A    
C113  C186  T    
C170  O46   A    
C111  N33   T    
C194  H29   S    
C124  C180  T    
O49   Zn7   S    
C135  C148  A    
C68   C205  A    
O42   Zn1   S    
C22   C194  A    
C125  C155  S    
C92   N14   T    
