data_mof_unit_56170.cif
_audit_creation_date              2013-03-05T15:45:57-0500
_audit_creation_method            fapswitch 2.2
_symmetry_space_group_name_H-M    P1
_symmetry_Int_Tables_number       1
_space_group_crystal_system       triclinic
_cell_length_a                    18.942623
_cell_length_b                    10.919736
_cell_length_c                    18.811533
_cell_angle_alpha                 90.214186
_cell_angle_beta                  89.97601
_cell_angle_gamma                 90.148727
_cell_volume                      3891.09567542

loop_
_atom_site_label
_atom_site_type_symbol
_atom_site_description
_atom_site_fract_x
_atom_site_fract_y
_atom_site_fract_z
_atom_type_partial_charge
O1    O     O_R   0.787510 0.042610 0.670410 -0.526453
O2    O     O_R   0.212490 0.042610 0.329590 -0.525364
O3    O     O_R   0.287510 0.542610 0.670410 -0.518150
O4    O     O_R   0.712490 0.542610 0.329590 -0.522495
O5    O     O_R   0.765670 0.292090 0.675090 -0.507995
O6    O     O_R   0.234330 0.292090 0.324910 -0.503835
O7    O     O_R   0.265670 0.792090 0.675090 -0.509143
O8    O     O_R   0.734330 0.792090 0.324910 -0.506318
C1    C     C_R   0.731005 0.378648 0.646711 0.541685
C2    C     C_R   0.272200 0.371858 0.356487 0.551465
C3    C     C_R   0.230476 0.876978 0.646103 0.548467
C4    C     C_R   0.768954 0.879064 0.353208 0.545333
O9    O     O_R   0.670220 0.409020 0.668560 -0.527713
O10   O     O_R   0.329780 0.409020 0.331440 -0.526483
O11   O     O_R   0.170220 0.909020 0.668560 -0.518911
O12   O     O_R   0.829780 0.909020 0.331440 -0.526963
O13   O     O_R   0.556580 0.251590 0.674980 -0.495800
O14   O     O_R   0.443420 0.251590 0.325020 -0.502688
O15   O     O_R   0.056580 0.751590 0.674980 -0.496705
O16   O     O_R   0.943420 0.751590 0.325020 -0.502303
C5    C     C_R   0.531036 0.155365 0.647163 0.549818
C6    C     C_R   0.461240 0.154186 0.357203 0.548344
C7    C     C_R   0.036576 0.654117 0.643743 0.550605
C8    C     C_R   0.968815 0.655685 0.352963 0.553661
O17   O     O_R   0.545890 0.049670 0.670030 -0.524058
O18   O     O_R   0.454110 0.049670 0.329970 -0.526416
O19   O     O_R   0.045890 0.549670 0.670030 -0.526788
O20   O     O_R   0.954110 0.549670 0.329970 -0.515488
O21   O     O_R   0.681340 0.957860 0.676500 -0.498633
O22   O     O_R   0.318660 0.957860 0.323500 -0.507669
O23   O     O_R   0.181340 0.457860 0.676500 -0.508314
O24   O     O_R   0.818660 0.457860 0.323500 -0.495324
C9    C     C_R   0.740084 0.974258 0.645212 0.551006
C10   C     C_R   0.259531 0.973645 0.354265 0.547711
C11   C     C_R   0.242046 0.466405 0.648433 0.553658
C12   C     C_R   0.759938 0.474761 0.354809 0.557682
O25   O     O_R   0.787380 0.044010 0.830940 -0.506859
O26   O     O_R   0.212620 0.044010 0.169060 -0.505399
O27   O     O_R   0.287380 0.544010 0.830940 -0.488922
O28   O     O_R   0.712620 0.544010 0.169060 -0.501916
O29   O     O_R   0.765540 0.293390 0.823910 -0.506174
O30   O     O_R   0.234460 0.293390 0.176090 -0.490317
O31   O     O_R   0.265540 0.793390 0.823910 -0.506244
O32   O     O_R   0.734460 0.793390 0.176090 -0.524034
C13   C     C_R   0.730739 0.381179 0.851110 0.548572
C14   C     C_R   0.269764 0.379499 0.148116 0.569435
C15   C     C_R   0.229590 0.878265 0.852379 0.547802
C16   C     C_R   0.769747 0.879460 0.148127 0.542510
O33   O     O_R   0.670090 0.410410 0.829090 -0.495480
O34   O     O_R   0.329910 0.410410 0.170910 -0.494254
O35   O     O_R   0.170090 0.910410 0.829090 -0.486656
O36   O     O_R   0.829910 0.910410 0.170910 -0.496484
O37   O     O_R   0.556450 0.252890 0.823790 -0.465218
O38   O     O_R   0.443550 0.252890 0.176210 -0.495024
O39   O     O_R   0.056450 0.752890 0.823790 -0.514442
O40   O     O_R   0.943550 0.752890 0.176210 -0.528930
C17   C     C_R   0.530253 0.157607 0.853180 0.549617
C18   C     C_R   0.469852 0.157446 0.146912 0.529402
C19   C     C_R   0.029753 0.656972 0.852918 0.529020
C20   C     C_R   0.969825 0.657168 0.146762 0.548098
O41   O     O_R   0.545750 0.051070 0.830560 -0.534656
O42   O     O_R   0.454250 0.051070 0.169440 -0.512001
O43   O     O_R   0.045750 0.551070 0.830560 -0.495848
O44   O     O_R   0.954250 0.551070 0.169440 -0.486096
O45   O     O_R   0.681210 0.959150 0.825320 -0.488820
O46   O     O_R   0.318790 0.959150 0.174680 -0.477485
O47   O     O_R   0.181210 0.459150 0.825320 -0.492759
O48   O     O_R   0.818790 0.459150 0.174680 -0.473052
C21   C     C_R   0.740429 0.974379 0.855613 0.559119
C22   C     C_R   0.258954 0.971589 0.145616 0.552159
C23   C     C_R   0.240588 0.473889 0.855485 0.568880
C24   C     C_R   0.772174 0.519871 0.138385 0.549360
Cr1   Cr    Cr6+3 0.771950 0.169480 0.750100 1.035742
Cr2   Cr    Cr6+3 0.228050 0.169480 0.249900 1.053458
Cr3   Cr    Cr6+3 0.271950 0.669480 0.750100 1.053202
Cr4   Cr    Cr6+3 0.728050 0.669480 0.249900 1.027240
Cr5   Cr    Cr6+3 0.614930 0.323340 0.749170 1.067245
Cr6   Cr    Cr6+3 0.385070 0.323340 0.250830 1.050107
Cr7   Cr    Cr6+3 0.114930 0.823340 0.749170 1.044564
Cr8   Cr    Cr6+3 0.885070 0.823340 0.250830 1.026897
Cr9   Cr    Cr6+3 0.616590 0.010620 0.750610 1.046624
Cr10  Cr    Cr6+3 0.383410 0.010620 0.249390 1.052615
Cr11  Cr    Cr6+3 0.116590 0.510620 0.750610 1.054422
Cr12  Cr    Cr6+3 0.883410 0.510620 0.249390 1.063693
O49   O     O_3   0.667820 0.167810 0.749960 -0.266354
O50   O     O_3   0.332180 0.167810 0.250040 -0.270569
O51   O     O_3   0.167820 0.667810 0.749960 -0.265396
O52   O     O_3   0.832180 0.667810 0.250040 -0.278935
C25   C     C_R   0.472579 0.159353 0.433330 0.023846
C26   C     C_R   0.492841 0.165657 0.580570 0.021484
C27   C     C_R   0.005997 0.665478 0.420183 0.020088
C28   C     C_R   0.022783 0.658754 0.568000 0.023448
C29   C     C_R   0.485143 0.270409 0.467726 0.010443
C30   C     C_R   0.496291 0.273332 0.540312 0.010850
C31   C     C_R   0.004140 0.773549 0.460621 0.017101
C32   C     C_R   0.014013 0.770490 0.533494 0.028720
C33   C     C_R   0.465434 0.059605 0.548415 -0.150005
C34   C     C_R   0.456139 0.056070 0.475048 -0.145655
C35   C     C_R   0.035776 0.553650 0.526404 -0.149361
C36   C     C_R   0.029259 0.557694 0.452953 -0.151304
C37   C     C_3   0.541257 0.362939 0.453446 -0.281879
C38   C     C_3   0.554437 0.365132 0.532896 -0.253870
C39   C     C_3   0.947825 0.868405 0.467062 -0.256843
C40   C     C_3   0.959548 0.866185 0.546718 -0.280945
H1    H     H_    0.458387 0.975871 0.578340 0.136698
H2    H     H_    0.439106 0.970785 0.450951 0.142363
H3    H     H_    0.048486 0.466783 0.550528 0.134299
H4    H     H_    0.034614 0.473021 0.423247 0.137129
H5    H     H_    0.895222 0.832090 0.451577 0.169218
H6    H     H_    0.983011 0.952408 0.567740 0.142246
H7    H     H_    0.519194 0.450185 0.432979 0.135825
H8    H     H_    0.606585 0.326297 0.547380 0.168596
H9    H     H_    0.586175 0.325118 0.422295 0.148719
H10   H     H_    0.541239 0.454302 0.558231 0.137663
H11   H     H_    0.963248 0.956615 0.442104 0.139225
H12   H     H_    0.913305 0.831142 0.576997 0.144526
C41   C     C_R   0.695803 0.870390 0.536161 -0.136567
C42   C     C_R   0.297216 0.857175 0.460611 -0.146580
C43   C     C_R   0.195847 0.365990 0.539933 -0.141378
C44   C     C_R   0.803458 0.369571 0.463253 -0.136914
H13   H     H_    0.657071 0.819483 0.566519 0.121837
H14   H     H_    0.331843 0.800259 0.428802 0.122250
H15   H     H_    0.147010 0.341508 0.566169 0.117565
H16   H     H_    0.841674 0.318149 0.432502 0.121572
C45   C     C_R   0.697386 0.858224 0.462561 -0.133376
C46   C     C_R   0.295359 0.842315 0.533912 -0.139477
C47   C     C_R   0.199960 0.356854 0.466334 -0.146138
C48   C     C_R   0.801887 0.356884 0.536799 -0.133324
H17   H     H_    0.661836 0.793908 0.437199 0.121887
H18   H     H_    0.326056 0.769379 0.557434 0.133708
H19   H     H_    0.155300 0.321325 0.436748 0.114552
H20   H     H_    0.836940 0.291871 0.561681 0.121531
C49   C     C_R   0.748005 0.922858 0.422941 0.026748
C50   C     C_R   0.250196 0.915628 0.575361 0.032286
C51   C     C_R   0.261592 0.394674 0.431647 0.036063
C52   C     C_R   0.751956 0.422126 0.576969 0.027180
C53   C     C_R   0.791373 0.009158 0.456252 -0.147563
C54   C     C_R   0.210730 0.008429 0.543853 -0.127806
C55   C     C_R   0.320182 0.434456 0.471399 -0.129820
C56   C     C_R   0.709236 0.509333 0.544226 -0.146308
H21   H     H_    0.829760 0.062254 0.426658 0.128897
H22   H     H_    0.176059 0.066656 0.574869 0.130958
H23   H     H_    0.369816 0.459400 0.446692 0.139029
H24   H     H_    0.671401 0.562946 0.574243 0.129110
C57   C     C_R   0.791903 0.017329 0.529109 -0.138893
C58   C     C_R   0.211129 0.020816 0.471254 -0.122455
C59   C     C_R   0.316526 0.441103 0.544089 -0.133151
C60   C     C_R   0.708779 0.518284 0.471378 -0.138725
H25   H     H_    0.829251 0.079846 0.553281 0.131593
H26   H     H_    0.178700 0.092105 0.448503 0.135510
H27   H     H_    0.362035 0.475849 0.572753 0.135299
H28   H     H_    0.672131 0.581872 0.447631 0.131331
C61   C     C_R   0.745104 0.946693 0.569899 0.029301
C62   C     C_R   0.253439 0.944262 0.428952 0.036405
C63   C     C_R   0.253077 0.414231 0.578464 0.033873
C64   C     C_R   0.754833 0.447059 0.430048 0.027395
C65   C     C_R   0.489543 0.057636 0.963500 0.003946
C66   C     C_R   0.507547 0.056744 0.035699 0.013626
C67   C     C_R   0.992769 0.551279 0.962948 -0.042336
C68   C     C_R   0.006373 0.552118 0.036059 0.001515
C69   C     C_R   0.501312 0.166679 0.074775 -0.081485
C70   C     C_R   0.498845 0.167613 0.925324 -0.036836
C71   C     C_R   0.000970 0.663913 0.074218 -0.029455
C72   C     C_R   0.997327 0.662891 0.924912 -0.080178
C73   C     C_R   0.502096 0.280298 0.038353 -0.049217
C74   C     C_R   0.501058 0.280776 0.963028 -0.016211
C75   C     C_R   0.002837 0.776518 0.036918 -0.008642
C76   C     C_R   0.993799 0.775624 0.961983 -0.001322
C77   C     C_R   0.782029 0.031607 0.972941 -0.116025
C78   C     C_R   0.285705 0.022835 0.023460 -0.100984
C79   C     C_R   0.285654 0.526826 0.972177 -0.122092
C80   C     C_R   0.796609 0.551190 0.012003 -0.173649
H29   H     H_    0.808223 0.110221 0.949488 0.175261
H30   H     H_    0.313980 0.102715 0.043082 0.113506
H31   H     H_    0.314022 0.602898 0.948462 0.179333
H32   H     H_    0.826720 0.632354 0.026223 0.100968
C81   C     C_R   0.784378 0.019398 0.045704 -0.017789
C82   C     C_R   0.278743 0.004708 0.950666 -0.018155
C83   C     C_R   0.287174 0.516352 0.044972 -0.024060
C84   C     C_R   0.786993 0.520604 0.940549 -0.030308
C85   C     C_R   0.750652 0.918352 0.077170 -0.012111
C86   C     C_R   0.241866 0.901545 0.926634 0.043318
C87   C     C_R   0.250943 0.418532 0.077091 0.029817
C88   C     C_R   0.747404 0.415833 0.923353 0.025133
C89   C     C_R   0.710708 0.836716 0.035302 -0.137471
C90   C     C_R   0.210703 0.819274 0.974681 -0.110774
C91   C     C_R   0.208888 0.339269 0.035744 -0.114761
C92   C     C_R   0.717266 0.343563 0.976688 -0.155157
H33   H     H_    0.684957 0.757975 0.059012 0.172163
H34   H     H_    0.180990 0.740927 0.955135 0.113757
H35   H     H_    0.181173 0.262999 0.059944 0.175683
H36   H     H_    0.685870 0.263702 0.962604 0.101873
C93   C     C_R   0.707788 0.850039 0.962088 -0.023932
C94   C     C_R   0.216194 0.839139 0.047410 -0.018388
C95   C     C_R   0.206216 0.351697 0.962453 -0.042002
C96   C     C_R   0.725327 0.375309 0.047619 -0.003654
C97   C     C_R   0.745838 0.945959 0.930475 0.000841
C98   C     C_R   0.254378 0.940678 0.071429 0.046930
C99   C     C_R   0.246601 0.444251 0.930219 0.012262
C100  C     C_R   0.765191 0.479907 0.065256 0.020518
C101  C     C_1   0.824184 0.109428 0.085828 0.270657
N1    N     N_1   0.856235 0.181374 0.117706 -0.255463
C102  C     C_1   0.307990 0.093296 0.901936 0.163714
N2    N     N_1   0.331309 0.164344 0.862865 -0.285987
C103  C     C_1   0.327676 0.606129 0.084665 0.296671
N3    N     N_1   0.360080 0.678021 0.116227 -0.203725
C104  C     C_1   0.815411 0.599502 0.886115 0.164801
N4    N     N_1   0.838020 0.662921 0.842475 -0.324637
C105  C     C_1   0.667338 0.762494 0.921016 0.273168
N5    N     N_1   0.634830 0.692376 0.888264 -0.250942
C106  C     C_1   0.182919 0.755579 0.096485 0.175650
N6    N     N_1   0.156768 0.688749 0.136224 -0.270471
C107  C     C_1   0.164316 0.265546 0.921889 0.273333
N7    N     N_1   0.130855 0.196285 0.889494 -0.196702
C108  C     C_1   0.691720 0.300367 0.101110 0.214090
N8    N     N_1   0.664942 0.240182 0.143914 -0.326109
C109  C     C_2   0.454588 0.949411 0.929324 0.306841
H37   H     H_    0.443585 0.948256 0.872812 0.126921
O53   O     O_2   0.431552 0.864638 0.964648 -0.443789
C110  C     C_2   0.539559 0.946291 0.069475 0.307194
H38   H     H_    0.559210 0.951140 0.123575 0.119418
O54   O     O_2   0.548648 0.851158 0.036565 -0.452680
C111  C     C_2   0.970261 0.436761 0.925128 0.255573
H39   H     H_    0.934139 0.443656 0.880572 0.135283
O55   O     O_2   0.993916 0.336154 0.939742 -0.487822
C112  C     C_2   0.027795 0.437413 0.072899 0.316491
H40   H     H_    0.000605 0.351515 0.063630 0.181082
O56   O     O_2   0.075632 0.439603 0.116400 -0.488217
C113  C     C_2   0.508056 0.396562 0.079774 0.252055
H41   H     H_    0.537680 0.397875 0.129141 0.141359
O57   O     O_2   0.478402 0.490064 0.060980 -0.478611
C114  C     C_2   0.500590 0.399190 0.924337 0.333577
H42   H     H_    0.535242 0.473393 0.940671 0.160938
O58   O     O_2   0.460156 0.415309 0.874711 -0.462948
C115  C     C_2   0.025810 0.890163 0.075132 0.303146
H43   H     H_    0.024800 0.896086 0.132504 0.129943
O59   O     O_2   0.052720 0.975610 0.043268 -0.445674
C116  C     C_2   0.969716 0.886935 0.922911 0.316611
H44   H     H_    0.966839 0.887473 0.865446 0.129970
O60   O     O_2   0.946802 0.976439 0.954279 -0.449080

loop_
_geom_bond_atom_site_label_1
_geom_bond_atom_site_label_2
_geom_bond_distance
_ccdc_geom_bond_type
C18   O42   1.272023 A    
Cr11  O51   1.969686 S    
C102  N2    1.157341 T    
O4    C12   1.260259 A    
C49   C53   1.395553 A    
C29   C30   1.382010 A    
O39   C19   1.286218 A    
O20   Cr12  2.065686 S    
C37   H9    1.112443 S    
C101  N1    1.157476 T    
C38   H8    1.110452 S    
C31   C32   1.384167 A    
O8    Cr4   1.944987 S    
C52   C56   1.396383 A    
C56   C60   1.374259 A    
O26   C22   1.261316 A    
C33   C34   1.391791 A    
C86   C90   1.405459 A    
O1    C9    1.258208 A    
O46   C22   1.266474 A    
C107  N7    1.157369 T    
O15   Cr7   1.942151 S    
C75   C115  1.495634 S    
C83   C103  1.448559 S    
C55   C59   1.370799 A    
C73   C74   1.417140 A    
C78   C82   1.389143 A    
O24   C12   1.271998 A    
C53   C57   1.373167 A    
C11   C63   1.447587 S    
O25   C21   1.258309 A    
C48   C52   1.404291 A    
O30   C14   1.268232 A    
C16   C85   1.448577 S    
C9    C61   1.450417 S    
O47   C23   1.269621 A    
C85   C89   1.406858 A    
C80   C84   1.395724 A    
C46   H18   1.083277 S    
C81   C85   1.406021 A    
C73   C113  1.491185 S    
O21   C9    1.271188 A    
C44   C64   1.401076 A    
C20   C71   1.488520 S    
O23   Cr11  1.943224 S    
C42   H14   1.083315 S    
C77   C81   1.376510 A    
O32   Cr4   1.945881 S    
C1    O9    1.266996 A    
O44   Cr12  2.063478 S    
O7    C3    1.268196 A    
C41   H13   1.083209 S    
C19   C72   1.488111 S    
C66   C69   1.410492 A    
C94   C106  1.443939 S    
C58   H26   1.082449 S    
C55   H23   1.083258 S    
C65   C66   1.400551 A    
O11   Cr7   2.067831 S    
C17   C70   1.485357 S    
C4    O12   1.265268 A    
O28   Cr4   2.063473 S    
C95   C107  1.445169 S    
C74   C114  1.486245 S    
C115  H43   1.081120 S    
C68   C112  1.491037 S    
O6    Cr2   1.944987 S    
O27   Cr3   2.072014 S    
C27   C36   1.402768 A    
C15   O35   1.260588 A    
C84   C104  1.443713 S    
C59   C63   1.395609 A    
Cr4   O52   1.972632 S    
C26   C33   1.403008 A    
C83   C87   1.406324 A    
O2    Cr2   2.065547 S    
O8    C4    1.268385 A    
C57   C61   1.403537 A    
Cr6   O50   1.969605 S    
C44   C48   1.391251 A    
O42   Cr10  2.063478 S    
Cr5   O49   1.974180 S    
O18   Cr10  2.065686 S    
C70   C74   1.423029 A    
C82   C102  1.444463 S    
C21   C97   1.446927 S    
C42   C46   1.389440 A    
C115  O59   1.221139 D    
C7    O19   1.257695 A    
C79   C83   1.374894 A    
C3    O11   1.266589 A    
C15   C86   1.437789 S    
C48   H20   1.081268 S    
C46   C50   1.406806 A    
Cr7   O51   1.974180 S    
C110  H38   1.084846 S    
C37   C38   1.515482 S    
C31   C39   1.493389 S    
Cr9   O49   1.969686 S    
C26   C30   1.402326 A    
C95   C99   1.405178 A    
C5    C26   1.451759 S    
C10   C62   1.446805 S    
C28   C32   1.394533 A    
O31   Cr3   1.939088 S    
O24   Cr12  1.944427 S    
C116  O60   1.220455 D    
C36   H4    1.083541 S    
O30   Cr2   1.945881 S    
C65   C109  1.496315 S    
O22   C10   1.272364 A    
C80   H32   1.085420 S    
C104  N4    1.157300 T    
O48   Cr12  1.944577 S    
C68   C71   1.417766 A    
C60   H28   1.081061 S    
C72   C76   1.414259 A    
C2    C51   1.448738 S    
C111  H39   1.085163 S    
C105  N5    1.157323 T    
C2    O10   1.255009 A    
C3    C50   1.446225 S    
C29   C37   1.489687 S    
C96   C100  1.406325 A    
C96   C108  1.445816 S    
O16   Cr8   1.948663 S    
O15   C7    1.270898 A    
C76   C116  1.495193 S    
O26   Cr2   2.063473 S    
C109  H37   1.083435 S    
C103  N3    1.157538 T    
C25   C34   1.410474 A    
C79   H31   1.085385 S    
O13   C5    1.267078 A    
O40   C20   1.282685 A    
O43   Cr11  2.062563 S    
O48   C24   1.300952 A    
O12   Cr8   2.065158 S    
Cr12  O52   1.973993 S    
C14   C87   1.448924 S    
O22   Cr10  1.944427 S    
C71   C75   1.418360 A    
C108  N8    1.157361 T    
C106  N6    1.157006 T    
O5    C1    1.271554 A    
C113  H41   1.085282 S    
C38   H10   1.111517 S    
C45   H17   1.081511 S    
C24   C100  1.447676 S    
O39   Cr7   1.947234 S    
O13   Cr5   1.942151 S    
C93   C105  1.445378 S    
C67   C68   1.399354 A    
C58   C62   1.404422 A    
O3    C11   1.264538 A    
O40   Cr8   1.945363 S    
O14   Cr6   1.948663 S    
Cr1   O49   1.972535 S    
C114  O58   1.221339 D    
C13   O33   1.263570 A    
C53   H21   1.083837 S    
C93   C97   1.403782 A    
O47   Cr11  1.949446 S    
Cr2   O50   1.972632 S    
C17   O41   1.272243 A    
C54   H22   1.084016 S    
C30   C38   1.494218 S    
C82   C86   1.397770 A    
C89   H33   1.084745 S    
C78   C98   1.405019 A    
Cr3   O51   1.972535 S    
O21   Cr9   1.943224 S    
C42   C62   1.398360 A    
C112  O56   1.221343 D    
C4    C49   1.450116 S    
C32   C40   1.490528 S    
O9    Cr5   2.067831 S    
C41   C61   1.400614 A    
O37   Cr5   1.947234 S    
C113  O57   1.220188 D    
C81   C101  1.447703 S    
C19   O43   1.266536 A    
C109  O53   1.221119 D    
C8    C27   1.451158 S    
C75   C76   1.420069 A    
C84   C88   1.403175 A    
O3    Cr3   2.059045 S    
C12   C64   1.451570 S    
C8    O20   1.264724 A    
C77   C97   1.405126 A    
O38   C18   1.279209 A    
C45   C49   1.404590 A    
C7    C28   1.449810 S    
O45   C21   1.268697 A    
C5    O17   1.265622 A    
C116  H44   1.082427 S    
C43   C63   1.404621 A    
O28   C24   1.294212 A    
C91   C95   1.386841 A    
C67   C72   1.418019 A    
C91   H35   1.084841 S    
C90   C94   1.388336 A    
O5    Cr1   1.952661 S    
C56   H24   1.083790 S    
C89   C93   1.386622 A    
C79   C99   1.405363 A    
O17   Cr9   2.069456 S    
O37   C17   1.279013 A    
C50   C54   1.394956 A    
O7    Cr3   1.952661 S    
C111  O55   1.219924 D    
C28   C35   1.408794 A    
C23   C99   1.448397 S    
C78   H30   1.085949 S    
C43   H15   1.081742 S    
C37   H7    1.111532 S    
C35   H3    1.080822 S    
C92   H36   1.086323 S    
C14   O34   1.262218 A    
O25   Cr1   2.072014 S    
C39   H11   1.111481 S    
C34   H2    1.082718 S    
C35   C36   1.388153 A    
C20   O44   1.270088 A    
C110  O54   1.219867 D    
C39   H5    1.110098 S    
C51   C55   1.405491 A    
O1    Cr1   2.059045 S    
C40   H12   1.112503 S    
C47   H19   1.083064 S    
O14   C6    1.272254 A    
C33   H1    1.083469 S    
Cr8   O52   1.969605 S    
O32   C16   1.267670 A    
Cr10  O50   1.973993 S    
O46   Cr10  1.944577 S    
C40   H6    1.111579 S    
C77   H29   1.085449 S    
O2    C10   1.258192 A    
C94   C98   1.396097 A    
O31   C15   1.268381 A    
C54   C58   1.372893 A    
C67   C111  1.497510 S    
C59   H27   1.083978 S    
O34   Cr6   2.067166 S    
O19   Cr11  2.069456 S    
C114  H42   1.085060 S    
C6    C25   1.449031 S    
O33   Cr5   2.059485 S    
C80   C100  1.402338 A    
O23   C11   1.268503 A    
O10   Cr6   2.065158 S    
C25   C29   1.392375 A    
C47   C51   1.399364 A    
O35   Cr7   2.059485 S    
O4    Cr4   2.065547 S    
O6    C2    1.272566 A    
O29   Cr1   1.939088 S    
C1    C52   1.451685 S    
C88   C92   1.399444 A    
C16   O36   1.262539 A    
C57   H25   1.081079 S    
C92   C96   1.385766 A    
C27   C31   1.402158 A    
C22   C98   1.437182 S    
C112  H40   1.082514 S    
C6    O18   1.256225 A    
C39   C40   1.515205 S    
C66   C110  1.495318 S    
O29   C13   1.270707 A    
O45   Cr9   1.949446 S    
O41   Cr9   2.062563 S    
C90   H34   1.085914 S    
C60   C64   1.403154 A    
O36   Cr8   2.067166 S    
C18   C69   1.485532 S    
C41   C45   1.390697 A    
C65   C70   1.412180 A    
O16   C8    1.269408 A    
C69   C73   1.419584 A    
C87   C91   1.407346 A    
C44   H16   1.083193 S    
C13   C88   1.444173 S    
O38   Cr6   1.945363 S    
O27   C23   1.258541 A    
C43   C47   1.389901 A    
