data_mof_unit_8880.cif
_audit_creation_date              2012-12-10T20:27:51-0500
_audit_creation_method            fapswitch 2.2
_symmetry_space_group_name_H-M    P1
_symmetry_Int_Tables_number       1
_space_group_crystal_system       triclinic
_cell_length_a                    12.881635
_cell_length_b                    10.583535
_cell_length_c                    9.942848
_cell_angle_alpha                 89.492084
_cell_angle_beta                  96.696967
_cell_angle_gamma                 90.727156
_cell_volume                      1346.14589998

loop_
_atom_site_label
_atom_site_type_symbol
_atom_type_description
_atom_site_fract_x
_atom_site_fract_y
_atom_site_fract_z
_atom_type_partial_charge
C1    C     C_R   0.499774 0.260720 0.500552 0.873021
C2    C     C_R   0.028562 0.484028 0.563362 0.188501
C3    C     C_R   0.971339 0.506398 0.435563 0.180400
C4    C     C_R   0.864275 0.512676 0.425614 -0.280171
C5    C     C_R   0.870095 0.474857 0.668372 -0.197223
C6    C     C_R   0.977927 0.468216 0.679326 -0.227527
C7    C     C_R   0.426595 0.062857 0.563538 0.082401
C8    C     C_R   0.503006 0.128909 0.503697 -0.047476
C9    C     C_R   0.585885 0.067273 0.454481 -0.234600
C10   C     C_R   0.585177 0.936640 0.452261 -0.244194
C11   C     C_R   0.502074 0.871315 0.500642 -0.010386
C12   C     C_R   0.298466 0.499314 0.473783 0.891601
C13   C     C_R   0.426380 0.933617 0.562722 0.075514
C14   C     C_3   0.309878 0.926062 0.531757 0.224767
C15   C     C_3   0.310436 0.069515 0.530908 -0.558376
C16   C     C_R   0.420055 0.444957 0.058289 -0.001560
C17   C     C_R   0.575144 0.564174 0.080616 0.440635
C18   C     C_R   0.576254 0.560247 0.937962 -0.142846
C19   C     C_R   0.416468 0.452573 0.917005 0.109302
C20   C     C_3   0.362806 0.327151 0.896934 0.202390
C21   C     C_3   0.374983 0.311558 0.052804 0.090378
C22   C     C_R   0.499881 0.739318 0.499525 0.907465
C23   C     C_R   0.701558 0.499712 0.526186 0.865657
C24   C     C_R   0.813614 0.496678 0.541324 -0.051774
C25   C     C_R   0.186412 0.498543 0.458307 -0.049960
C26   C     C_R   0.021969 0.523057 0.319748 -0.224345
C27   C     C_R   0.129864 0.519740 0.331249 -0.197792
C28   C     C_R   0.135732 0.479278 0.573488 -0.291297
H1    H     H_    0.820726 0.530193 0.327292 0.198868
H2    H     H_    0.270994 0.881051 0.614645 0.097382
H3    H     H_    0.286500 0.112716 0.429706 0.215859
H4    H     H_    0.271814 0.109895 0.614716 0.165280
H5    H     H_    0.638569 0.607433 0.892266 0.170089
H6    H     H_    0.281175 0.337432 0.847602 0.065887
H7    H     H_    0.831123 0.461771 0.758412 0.165105
H8    H     H_    0.978430 0.540179 0.221392 0.148317
H9    H     H_    0.021495 0.451008 0.777671 0.135119
H10   H     H_    0.168818 0.535891 0.241786 0.164231
H11   H     H_    0.179419 0.462240 0.671754 0.150809
H12   H     H_    0.648418 0.119957 0.414753 0.158680
H13   H     H_    0.647227 0.887022 0.410904 0.150451
N1    N     N_R   0.499290 0.499140 0.142710 -0.161680
N2    N     N_R   0.499290 0.499180 0.857070 -0.117694
O1    O     O_R   0.500010 0.316790 0.614690 -0.533798
O2    O     O_R   0.500000 0.316760 0.385350 -0.652275
O3    O     O_R   0.346360 0.499990 0.595720 -0.618421
O4    O     O_R   0.346350 0.499960 0.366370 -0.626484
O5    O     O_R   0.500000 0.683240 0.614650 -0.633684
O6    O     O_R   0.499990 0.683210 0.385310 -0.622604
O7    O     O_R   0.653650 0.500040 0.633630 -0.629513
O8    O     O_R   0.653640 0.500010 0.404280 -0.633305
Zn1   Zn    Zn3+2 0.500010 0.500020 0.653130 0.978847
Zn2   Zn    Zn3+2 0.499990 0.499980 0.346870 0.939514
O9    O     O_3   0.653125 0.633385 0.152902 -0.795279
H14   H     H_    0.627533 0.659176 0.237673 0.377064
O10   O     O_3   0.420696 0.241540 0.830529 -0.725867
H15   H     H_    0.376945 0.163822 0.818942 0.314197
C29   C     C_3   0.268891 0.306032 0.111546 -0.453921
C30   C     C_3   0.206322 0.183738 0.076839 -0.390267
C31   C     C_3   0.100921 0.186562 0.132733 -0.842916
H16   H     H_    0.112455 0.196756 0.244645 0.262817
H17   H     H_    0.053587 0.266607 0.087450 0.256537
H18   H     H_    0.057436 0.097022 0.107483 0.250733
H19   H     H_    0.192649 0.171527 0.965301 0.214690
H20   H     H_    0.250260 0.100958 0.121756 0.236838
H21   H     H_    0.283672 0.313345 0.223410 0.236128
H22   H     H_    0.220574 0.388095 0.073300 0.189672
C32   C     C_3   0.449401 0.201110 0.105048 -0.273955
C33   C     C_3   0.566839 0.223090 0.093336 -0.297330
C34   C     C_3   0.624566 0.098263 0.089878 -0.880013
H23   H     H_    0.709806 0.117072 0.092958 0.249169
H24   H     H_    0.610661 0.037715 0.177679 0.270460
H25   H     H_    0.597353 0.046830 0.995103 0.277336
H26   H     H_    0.578897 0.276606 0.999982 0.255720
H27   H     H_    0.602919 0.278779 0.181039 0.231698
H28   H     H_    0.439035 0.176264 0.210856 0.204129
H29   H     H_    0.422432 0.114658 0.047984 0.192669
O11   O     O_3   0.279040 0.875489 0.403204 -0.747110
H30   H     H_    0.201502 0.875015 0.392257 0.339317

loop_
_geom_bond_atom_site_label_1
_geom_bond_atom_site_label_2
_ccdc_geom_bond_type
C22   O5    A    
C16   C21   S    
C1    C8    S    
C19   C20   S    
C20   O10   S    
C7    C8    A    
C25   C28   A    
C30   H19   S    
C31   H18   S    
N1    Zn2   S    
C5    C6    A    
C4    C24   A    
N2    Zn1   S    
C27   H10   S    
O3    Zn1   S    
O10   H15   S    
C31   H17   S    
C17   N1    A    
C29   H21   S    
C8    C9    A    
O7    Zn1   S    
C23   C24   S    
C34   H23   S    
C9    C10   A    
C4    H1    S    
O4    Zn2   S    
C20   H6    S    
O1    Zn1   S    
C7    C15   S    
O2    Zn2   S    
C30   C31   S    
C13   C14   S    
C10   H13   S    
C2    C6    A    
C14   H2    S    
C12   O4    A    
C19   N2    A    
C15   H4    S    
C12   O3    A    
O11   H30   S    
C32   C33   S    
C23   O7    A    
C28   H11   S    
C29   C30   S    
C9    H12   S    
C31   H16   S    
O8    Zn2   S    
C1    O1    A    
C23   O8    A    
O5    Zn1   S    
C34   H25   S    
C17   C18   A    
C26   C27   A    
C6    H9    S    
C33   H26   S    
C22   O6    A    
C26   H8    S    
C21   C32   S    
C32   H28   S    
C3    C4    A    
C16   N1    A    
C32   H29   S    
O9    H14   S    
C3    C26   A    
C2    C28   A    
C15   H3    S    
C25   C27   A    
C11   C22   S    
C12   C25   S    
C2    C3    A    
C21   C29   S    
C18   N2    A    
C30   H20   S    
C11   C13   A    
C1    O2    A    
C5    C24   A    
C16   C19   A    
O6    Zn2   S    
C5    H7    S    
C33   H27   S    
C14   O11   S    
C33   C34   S    
C18   H5    S    
C10   C11   A    
C29   H22   S    
C7    C13   A    
C20   C21   S    
C14   C15   S    
C34   H24   S    
C17   O9    S    
