data_mof_unit_40543.cif
_audit_creation_date              2012-12-10T17:33:43-0500
_audit_creation_method            fapswitch 2.2
_symmetry_space_group_name_H-M    P1
_symmetry_Int_Tables_number       1
_space_group_crystal_system       triclinic
_cell_length_a                    11.702675
_cell_length_b                    12.353109
_cell_length_c                    13.238071
_cell_angle_alpha                 116.477334
_cell_angle_beta                  77.435705
_cell_angle_gamma                 101.435068
_cell_volume                      1660.72895864

loop_
_atom_site_label
_atom_site_type_symbol
_atom_type_description
_atom_site_fract_x
_atom_site_fract_y
_atom_site_fract_z
_atom_type_partial_charge
C1    C     C_R   0.508911 0.854486 0.286712 0.806711
C2    C     C_R   0.476776 0.227036 0.834812 -0.048828
C3    C     C_R   0.580218 0.815560 0.084999 -0.175660
C4    C     C_R   0.626309 0.736784 0.976757 -0.145974
C5    C     C_R   0.609422 0.611400 0.943708 0.135390
C6    C     C_R   0.529035 0.561833 0.014684 0.041360
C7    C     C_R   0.483734 0.643096 0.126554 0.062993
C8    C     C_R   0.494288 0.435005 0.981010 0.091473
C9    C     C_R   0.437832 0.390358 0.063384 0.157432
C10   C     C_R   0.393452 0.471027 0.171648 -0.194068
C11   C     C_R   0.406738 0.594331 0.198565 -0.167675
C12   C     C_R   0.715773 0.000040 0.500050 0.842901
C13   C     C_R   0.501785 0.352416 0.866623 -0.185492
C14   C     C_R   0.439906 0.183180 0.919166 -0.155036
C15   C     C_R   0.518484 0.770514 0.164117 -0.106260
C16   C     C_R   0.670928 0.340758 0.314987 -0.293623
C17   C     C_R   0.338203 0.753869 0.642963 0.296896
C18   C     C_R   0.288231 0.647180 0.654328 -0.299604
C19   C     C_R   0.333660 0.537654 0.585180 0.372114
C20   C     C_R   0.444136 0.539223 0.515725 -0.117213
C21   C     C_R   0.487756 0.648556 0.498623 0.153154
C22   C     C_R   0.511955 0.437514 0.459766 -0.002270
C23   C     C_R   0.485712 0.144960 0.713239 0.823384
C24   C     C_R   0.603654 0.437178 0.370396 0.023334
C25   C     C_R   0.634119 0.538139 0.343762 0.110817
C26   C     C_R   0.582760 0.643617 0.412605 -0.151864
C27   C     C_R   0.497924 0.339840 0.493232 0.062777
C28   C     C_R   0.657929 0.249686 0.352527 0.562856
C29   C     C_R   0.284195 0.000109 0.500174 0.828765
C30   C     C_1   0.837561 0.000053 0.499968 -0.106843
C31   C     C_1   0.940101 0.000134 0.499963 0.063807
C32   C     C_1   0.059938 0.000168 0.500081 0.047121
C33   C     C_1   0.162430 0.000117 0.500171 -0.121807
C34   C     C_R   0.416511 0.264780 0.033005 -0.154281
Cu1   Cu    Cu3+1 0.526510 0.098270 0.475420 1.050307
Cu2   Cu    Cu3+1 0.473490 0.901730 0.524580 0.973716
H1    H     H_    0.422460 0.086547 0.896941 0.180601
H2    H     H_    0.741948 0.341920 0.248223 0.228769
H3    H     H_    0.436654 0.340107 0.566480 0.197763
H4    H     H_    0.206479 0.647852 0.711721 0.219631
H5    H     H_    0.619684 0.719927 0.394440 0.216352
H6    H     H_    0.341040 0.438071 0.232791 0.179080
H7    H     H_    0.377927 0.229976 0.096480 0.161285
H8    H     H_    0.518914 0.386037 0.801731 0.178090
H9    H     H_    0.602859 0.912424 0.109788 0.209152
H10   H     H_    0.684300 0.774615 0.921719 0.180482
H11   H     H_    0.354976 0.649786 0.276554 0.183455
N1    N     N_R   0.566700 0.246290 0.438210 -0.252803
N2    N     N_R   0.434010 0.754320 0.561170 -0.215670
O1    O     O_R   0.533340 0.972510 0.318140 -0.535003
O2    O     O_R   0.488570 0.806530 0.359650 -0.619468
O3    O     O_R   0.685190 0.083000 0.479260 -0.485375
O4    O     O_R   0.640410 0.917020 0.520770 -0.608351
O5    O     O_R   0.511430 0.193470 0.640350 -0.588331
O6    O     O_R   0.466660 0.027490 0.681860 -0.568139
O7    O     O_R   0.359590 0.082980 0.479230 -0.563418
O8    O     O_R   0.314810 0.917000 0.520740 -0.560105
I1    I     I_    0.765118 0.546755 0.206414 -0.314337
I2    I     I_    0.238212 0.901649 0.749778 -0.291323
S1    S     S_3+6 0.232263 0.404542 0.567755 0.005216
O9    O     O_2   0.234623 0.365488 0.659751 -0.306451
O10   O     O_2   0.109932 0.433182 0.578539 -0.219513
O11   O     O_3   0.263991 0.290588 0.438475 -0.544081
H12   H     H_    0.201941 0.222496 0.436294 0.384302
I3    I     I_    0.736024 0.516990 0.802618 -0.260772
S2    S     S_3+6 0.783213 0.166485 0.304002 0.038785
O12   O     O_2   0.860379 0.188405 0.206485 -0.286315
O13   O     O_2   0.854133 0.214295 0.400402 -0.247180
O14   O     O_3   0.750978 0.015221 0.257995 -0.543713
H13   H     H_    0.827535 0.983901 0.242546 0.366574

loop_
_geom_bond_atom_site_label_1
_geom_bond_atom_site_label_2
_ccdc_geom_bond_type
C27   N1    A    
C16   C28   A    
S2    O13   D    
C21   C26   A    
C14   C34   A    
C6    C7    A    
C1    C15   S    
C29   O7    A    
C19   S1    S    
C10   H6    S    
C18   C19   A    
C9    C10   A    
C11   H11   S    
C19   C20   A    
C30   C31   T    
C32   C33   T    
Cu1   O1    S    
C21   N2    A    
C17   C18   A    
Cu1   O7    S    
C23   O6    A    
C16   C24   A    
Cu2   O6    S    
C4    H10   S    
C24   C25   A    
Cu1   O5    S    
C7    C11   A    
C1    O2    A    
C16   H2    S    
C8    C13   A    
Cu2   O2    S    
C17   I2    S    
S1    O11   S    
Cu1   N1    S    
C7    C15   A    
C12   O3    A    
C29   O8    A    
C9    C34   A    
S2    O12   D    
C22   C24   A    
C22   C27   A    
C13   H8    S    
S1    O10   D    
C5    C6    A    
C2    C14   A    
O14   H13   S    
S2    O14   S    
C1    O1    A    
C10   C11   A    
Cu2   N2    S    
C17   N2    A    
C3    C4    A    
C29   C33   S    
Cu1   O3    S    
C3    C15   A    
C20   C21   A    
C23   O5    A    
C5    I3    S    
Cu2   O8    S    
C25   I1    S    
C27   H3    S    
C2    C23   S    
C2    C13   A    
C18   H4    S    
C28   S2    S    
C4    C5    A    
C6    C8    A    
Cu2   O4    S    
S1    O9    D    
C12   C30   S    
C25   C26   A    
O11   H12   S    
C3    H9    S    
C31   C32   S    
C28   N1    A    
C34   H7    S    
C12   O4    A    
C26   H5    S    
C20   C22   A    
C8    C9    A    
C14   H1    S    
Cu1   Cu2   S    
