data_mof_unit_42194.cif
_audit_creation_date              2012-12-11T15:39:29-0500
_audit_creation_method            fapswitch 2.2
_symmetry_space_group_name_H-M    P1
_symmetry_Int_Tables_number       1
_space_group_crystal_system       triclinic
_cell_length_a                    17.339466
_cell_length_b                    24.398135
_cell_length_c                    14.946569
_cell_angle_alpha                 89.685717
_cell_angle_beta                  125.63968
_cell_angle_gamma                 90.703189
_cell_volume                      5138.41431576

loop_
_atom_site_label
_atom_site_type_symbol
_atom_type_description
_atom_site_fract_x
_atom_site_fract_y
_atom_site_fract_z
_atom_type_partial_charge
C1    C     C_R   0.310743 0.374085 0.909058 0.715806
C2    C     C_R   0.542729 0.500467 0.715745 -0.127337
C3    C     C_R   0.164783 0.839955 0.999724 -0.110452
C4    C     C_R   0.069538 0.000258 0.369584 -0.126073
C5    C     C_R   0.042771 0.000466 0.715790 -0.127347
C6    C     C_R   0.197479 0.501923 0.632357 0.019110
C7    C     C_R   0.826200 0.502724 0.280785 0.040484
C8    C     C_R   0.697481 0.001920 0.632352 0.019137
C9    C     C_R   0.326202 0.002718 0.280780 0.040504
C10   C     C_R   0.072292 0.554445 0.469925 0.172674
C11   C     C_R   0.978345 0.554805 0.380946 0.161884
C12   C     C_R   0.572315 0.054432 0.469867 0.172701
C13   C     C_R   0.672802 0.359647 0.091174 0.670950
C14   C     C_R   0.478365 0.054792 0.380889 0.161919
C15   C     C_R   0.118380 0.504656 0.516117 0.032782
C16   C     C_R   0.928549 0.505354 0.336032 0.036407
C17   C     C_R   0.618388 0.004644 0.516104 0.032753
C18   C     C_R   0.428553 0.005341 0.336017 0.036383
C19   C     C_R   0.076565 0.456656 0.453026 -0.181145
C20   C     C_R   0.981320 0.457079 0.362226 -0.188130
C21   C     C_R   0.576559 0.956636 0.453044 -0.181151
C22   C     C_R   0.481314 0.957059 0.362245 -0.188129
C23   C     C_3   0.957739 0.603642 0.423903 -0.511367
C24   C     C_R   0.810743 0.874084 0.909058 0.715809
C25   C     C_3   0.060468 0.603328 0.520967 -0.512013
C26   C     C_3   0.457781 0.103662 0.423790 -0.511388
C27   C     C_3   0.560514 0.103351 0.520852 -0.512031
C28   C     C_R   0.280299 0.760660 0.897841 -0.166649
C29   C     C_R   0.713109 0.766721 0.104675 -0.167074
C30   C     C_R   0.780355 0.260686 0.897852 -0.166652
C31   C     C_R   0.213107 0.266723 0.104674 -0.167077
C32   C     C_R   0.719720 0.296249 0.898339 -0.157200
C33   C     C_R   0.262126 0.311692 0.104270 -0.155383
C34   C     C_R   0.219624 0.796185 0.898332 -0.157203
C35   C     C_R   0.172749 0.859613 0.091173 0.670919
C36   C     C_R   0.762129 0.811689 0.104271 -0.155381
C37   C     C_R   0.736689 0.311118 0.998814 0.162899
C38   C     C_R   0.239146 0.332404 0.003834 0.160795
C39   C     C_R   0.236593 0.811049 0.998809 0.162891
C40   C     C_R   0.739148 0.832401 0.003836 0.160795
C41   C     C_R   0.444146 0.651734 0.091017 -0.086153
C42   C     C_R   0.555219 0.653034 0.910324 -0.014862
C43   C     C_R   0.944144 0.151733 0.091020 -0.086153
C44   C     C_R   0.055220 0.153034 0.910324 -0.014863
C45   C     C_R   0.824430 0.299660 0.097705 -0.129420
C46   C     C_R   0.384253 0.683274 0.998903 0.019059
C47   C     C_R   0.153180 0.316333 0.905920 -0.109675
C48   C     C_R   0.324350 0.799611 0.097697 -0.129487
C49   C     C_R   0.653180 0.816332 0.905922 -0.109669
C50   C     C_R   0.384505 0.763463 0.097140 -0.186183
C51   C     C_R   0.604381 0.770951 0.906107 -0.187614
C52   C     C_R   0.884546 0.263477 0.097153 -0.186165
C53   C     C_R   0.104383 0.270950 0.906105 -0.187611
C54   C     C_R   0.355743 0.738833 0.997728 0.143127
C55   C     C_R   0.640643 0.742571 0.004649 0.142421
C56   C     C_R   0.855768 0.238839 0.997739 0.143114
C57   C     C_R   0.616220 0.684838 0.002338 0.000644
C58   C     C_R   0.140645 0.242571 0.004648 0.142423
C59   C     C_R   0.611698 0.548219 0.629607 -0.153023
C60   C     C_R   0.619312 0.548202 0.542475 -0.159858
C61   C     C_R   0.111727 0.048217 0.629635 -0.153002
C62   C     C_R   0.119316 0.048201 0.542482 -0.159842
C63   C     C_R   0.603601 0.499310 0.484945 0.172375
C64   C     C_R   0.587996 0.499430 0.658416 0.171631
C65   C     C_R   0.103592 0.999310 0.484945 0.172373
C66   C     C_R   0.088034 0.999428 0.658455 0.171619
C67   C     C_R   0.603776 0.449420 0.531940 -0.165685
C68   C     C_R   0.884248 0.183273 0.998908 0.019065
C69   C     C_R   0.596514 0.449479 0.619074 -0.168195
C70   C     C_R   0.103770 0.949420 0.531941 -0.165681
C71   C     C_R   0.096535 0.949477 0.619096 -0.168186
C72   C     C_R   0.552010 0.454696 0.305147 -0.246692
C73   C     C_R   0.511206 0.454734 0.741705 -0.236154
C74   C     C_R   0.052007 0.954696 0.305146 -0.246683
C75   C     C_R   0.011254 0.954732 0.741757 -0.236141
C76   C     C_R   0.246344 0.546601 0.697817 -0.136813
C77   C     C_R   0.767492 0.547307 0.248374 -0.111672
C78   C     C_R   0.746345 0.046599 0.697811 -0.136811
C79   C     C_R   0.116223 0.184838 0.002338 0.000648
C80   C     C_R   0.267496 0.047305 0.248375 -0.111678
C81   C     C_R   0.549960 0.545629 0.303740 0.711632
C82   C     C_R   0.514658 0.545966 0.745241 0.709003
C83   C     C_R   0.049955 0.045629 0.303738 0.711634
C84   C     C_R   0.014675 0.045965 0.745257 0.709002
C85   C     C_R   0.244770 0.455625 0.693806 -0.012273
C86   C     C_R   0.770794 0.455934 0.256927 -0.138818
C87   C     C_R   0.744772 0.955623 0.693808 -0.012287
C88   C     C_R   0.270789 0.955930 0.256913 -0.138767
C89   C     C_R   0.352332 0.651258 0.907628 -0.125831
C90   C     C_R   0.569546 0.500258 0.369586 -0.126064
C91   C     C_R   0.647286 0.652189 0.092543 -0.145223
C92   C     C_R   0.852327 0.151258 0.907630 -0.125833
C93   C     C_R   0.147288 0.152188 0.092543 -0.145229
C94   C     C_R   0.402125 0.375913 0.092554 -0.209684
C95   C     C_R   0.581703 0.360095 0.908170 -0.222980
C96   C     C_R   0.902126 0.875911 0.092555 -0.209664
C97   C     C_R   0.081637 0.860053 0.908169 -0.223082
C98   C     C_R   0.311968 0.361816 0.001068 -0.144615
C99   C     C_R   0.664876 0.340022 0.999726 -0.110554
C100  C     C_R   0.811969 0.861814 0.001069 -0.144622
F1    F     F_    0.241629 0.361575 0.802908 -0.750428
F2    F     F_    0.720067 0.335318 0.191340 -0.735328
F3    F     F_    0.741631 0.861571 0.802910 -0.750429
F4    F     F_    0.220002 0.835298 0.191350 -0.735317
F5    F     F_    0.574457 0.598372 0.337057 -0.752961
F6    F     F_    0.518982 0.599055 0.722046 -0.750426
F7    F     F_    0.074449 0.098372 0.337055 -0.752957
F8    F     F_    0.018996 0.099054 0.722053 -0.750415
H1    H     H_    0.939000 0.640278 0.370627 0.194558
H2    H     H_    0.323696 0.325738 0.182548 0.114356
H3    H     H_    0.156936 0.808552 0.819856 0.109897
H4    H     H_    0.823701 0.825734 0.182550 0.114355
H5    H     H_    0.844616 0.315492 0.176026 0.173366
H6    H     H_    0.127488 0.335079 0.827833 0.192587
H7    H     H_    0.344530 0.815438 0.176019 0.173384
H8    H     H_    0.627488 0.835080 0.827836 0.192583
H9    H     H_    0.447167 0.750657 0.175317 0.127561
H10   H     H_    0.544146 0.755650 0.827959 0.128268
H11   H     H_    0.947189 0.250655 0.175332 0.127564
H12   H     H_    0.069709 0.593915 0.599572 0.208061
H13   H     H_    0.044151 0.255649 0.827958 0.128269
H14   H     H_    0.616943 0.587016 0.667112 0.201552
H15   H     H_    0.629221 0.587152 0.516039 0.205816
H16   H     H_    0.116984 0.087013 0.667149 0.201540
H17   H     H_    0.129219 0.087152 0.516042 0.205814
H18   H     H_    0.598888 0.410343 0.495266 0.116626
H19   H     H_    0.588161 0.410358 0.646769 0.112023
H20   H     H_    0.098869 0.910343 0.495258 0.116626
H21   H     H_    0.088184 0.910355 0.646791 0.112028
H22   H     H_    0.489565 0.665292 0.175540 0.161605
H23   H     H_    0.439052 0.140279 0.370466 0.194572
H24   H     H_    0.506538 0.667859 0.827331 0.150132
H25   H     H_    0.989568 0.165291 0.175541 0.161608
H26   H     H_    0.006538 0.167859 0.827332 0.150123
H27   H     H_    0.571656 0.412922 0.332883 0.143712
H28   H     H_    0.511655 0.413095 0.719898 0.132779
H29   H     H_    0.071653 0.912922 0.332883 0.143720
H30   H     H_    0.011759 0.913090 0.720012 0.132798
H31   H     H_    0.240635 0.588616 0.671789 0.112368
H32   H     H_    0.785682 0.589878 0.251226 0.110510
H33   H     H_    0.740639 0.088614 0.671782 0.112364
H34   H     H_    0.569754 0.093979 0.599472 0.208038
H35   H     H_    0.285687 0.089875 0.251226 0.110506
H36   H     H_    0.235175 0.414616 0.661841 0.153205
H37   H     H_    0.796033 0.414712 0.277403 0.178535
H38   H     H_    0.735183 0.914614 0.661847 0.153202
H39   H     H_    0.296015 0.914704 0.277359 0.178480
H40   H     H_    0.313242 0.663968 0.822654 0.089298
H41   H     H_    0.683769 0.665504 0.176938 0.104444
H42   H     H_    0.813240 0.163969 0.822657 0.089301
H43   H     H_    0.183773 0.165503 0.176939 0.104446
H44   H     H_    0.429869 0.371958 0.178176 0.139937
H45   H     H_    0.260610 0.745688 0.819144 0.109992
H46   H     H_    0.545531 0.346311 0.824494 0.129382
H47   H     H_    0.929870 0.871956 0.178177 0.139935
H48   H     H_    0.045439 0.846264 0.824489 0.129396
H49   H     H_    0.112235 0.417700 0.480634 0.136633
H50   H     H_    0.947139 0.418481 0.322816 0.135251
H51   H     H_    0.612216 0.917678 0.480678 0.136646
H52   H     H_    0.447127 0.918457 0.322865 0.135251
H53   H     H_    0.909186 0.594318 0.447973 0.209781
H54   H     H_    0.100829 0.639736 0.523341 0.194589
H55   H     H_    0.409232 0.094377 0.447882 0.209759
H56   H     H_    0.739465 0.747988 0.183108 0.111758
H57   H     H_    0.600888 0.139739 0.523174 0.194611
H58   H     H_    0.760657 0.245707 0.819155 0.109996
H59   H     H_    0.239463 0.247990 0.183108 0.111760
H60   H     H_    0.657053 0.308634 0.819862 0.109893
N1    N     N_R   0.394180 0.396910 0.943210 -0.104207
N2    N     N_R   0.474350 0.471570 0.793850 -0.070828
N3    N     N_R   0.025650 0.971570 0.206150 -0.067978
N4    N     N_R   0.974350 0.971570 0.793850 -0.070831
N5    N     N_R   0.319480 0.528420 0.793810 -0.052987
N6    N     N_R   0.680520 0.528420 0.206190 -0.046552
N7    N     N_R   0.819480 0.028420 0.793810 -0.052986
N8    N     N_R   0.180520 0.028420 0.206190 -0.046554
N9    N     N_R   0.525640 0.528390 0.206120 -0.103061
N10   N     N_R   0.474360 0.528390 0.793880 -0.107707
N11   N     N_R   0.025640 0.028390 0.206120 -0.103064
N12   N     N_R   0.605820 0.396910 0.056790 -0.097869
N13   N     N_R   0.974360 0.028390 0.793880 -0.107711
N14   N     N_R   0.319490 0.471590 0.793840 -0.054878
N15   N     N_R   0.680510 0.471590 0.206160 -0.043623
N16   N     N_R   0.819490 0.971590 0.793840 -0.054879
N17   N     N_R   0.180510 0.971590 0.206160 -0.043612
N18   N     N_R   0.394130 0.603080 0.943110 -0.047041
N19   N     N_R   0.605870 0.603080 0.056890 -0.048888
N20   N     N_R   0.894130 0.103080 0.943110 -0.047042
N21   N     N_R   0.105870 0.103080 0.056890 -0.048889
N22   N     N_R   0.450990 0.396900 0.056840 -0.066732
N23   N     N_R   0.894180 0.896910 0.943210 -0.104207
N24   N     N_R   0.549010 0.396900 0.943160 -0.067591
N25   N     N_R   0.950990 0.896900 0.056840 -0.066730
N26   N     N_R   0.049010 0.896900 0.943160 -0.067592
N27   N     N_R   0.105820 0.896910 0.056790 -0.097881
N28   N     N_R   0.450950 0.603070 0.056740 -0.045870
N29   N     N_R   0.549050 0.603070 0.943260 -0.054019
N30   N     N_R   0.950950 0.103070 0.056740 -0.045872
N31   N     N_R   0.049050 0.103070 0.943260 -0.054023
N32   N     N_R   0.525650 0.471570 0.206150 -0.067978
Ni1   Ni    Ni4+2 0.434860 0.434850 0.869700 0.224600
Ni2   Ni    Ni4+2 0.565140 0.434850 0.130300 0.246634
Ni3   Ni    Ni4+2 0.934860 0.934850 0.869700 0.224595
Ni4   Ni    Ni4+2 0.065140 0.934850 0.130300 0.246658
Ni5   Ni    Ni4+2 0.565130 0.565140 0.130240 0.243106
Ni6   Ni    Ni4+2 0.434870 0.565140 0.869760 0.216700
Ni7   Ni    Ni4+2 0.065130 0.065140 0.130240 0.243107
Ni8   Ni    Ni4+2 0.934870 0.065140 0.869760 0.216696

loop_
_geom_bond_atom_site_label_1
_geom_bond_atom_site_label_2
_ccdc_geom_bond_type
C47   H6    S    
C25   H12   S    
C13   C99   A    
C77   N6    A    
C87   H38   S    
C89   H40   S    
C50   H9    S    
C89   N18   A    
C14   C18   A    
C19   C20   A    
C77   H32   S    
C47   C53   A    
C38   C98   S    
C27   H34   S    
N23   N25   A    
N8    N17   A    
C46   C89   A    
C2    C82   A    
C15   C19   A    
C29   C36   A    
C26   C27   S    
C85   N14   A    
C6    C85   A    
N2    N10   A    
C61   H16   S    
N7    Ni8   S    
N8    Ni7   S    
N18   N28   A    
C76   N5    A    
C79   C93   A    
C41   N28   A    
N12   Ni2   S    
C10   C15   A    
C9    C88   A    
C41   H22   S    
C95   C99   A    
C96   H47   S    
C72   N32   A    
C78   N7    A    
C94   C98   A    
C94   H44   S    
C40   C49   A    
N14   Ni1   S    
C96   C100  A    
C26   H55   S    
N3    Ni4   S    
C51   H10   S    
C42   C57   A    
C97   H48   S    
C11   C23   S    
N28   Ni5   S    
C43   H25   S    
N2    Ni1   S    
C62   H17   S    
C6    C15   S    
N4    N13   A    
N20   Ni8   S    
C83   F7    S    
C43   C68   A    
C49   C51   A    
N9    N32   A    
C12   C17   A    
C36   H4    S    
N6    Ni5   S    
C41   C46   A    
C31   C33   A    
N5    Ni6   S    
N20   N30   A    
C43   N30   A    
C28   H45   S    
C4    C74   A    
C35   N27   A    
C7    C77   A    
N21   N31   A    
C59   H14   S    
C48   C50   A    
N26   N27   A    
C28   C34   A    
C59   C60   A    
N16   Ni3   S    
C20   H50   S    
C21   C22   A    
C8    C78   A    
C34   H3    S    
C21   H51   S    
C29   H56   S    
N3    N11   A    
N29   Ni6   S    
N23   Ni3   S    
N1    N22   A    
C61   C66   A    
C85   H36   S    
C2    C64   S    
C63   C67   A    
C42   N29   A    
C44   H26   S    
C23   H1    S    
C74   H29   S    
C81   F5    S    
N18   Ni6   S    
C12   C27   S    
C34   C39   A    
C19   H49   S    
C36   C40   A    
N13   Ni8   S    
C30   H58   S    
C35   F4    S    
N12   N24   A    
C78   H33   S    
C87   N16   A    
C91   H41   S    
C5    C84   A    
C28   C54   A    
N22   Ni2   S    
C72   H27   S    
N27   Ni4   S    
C29   C55   A    
C45   C52   A    
C32   C37   A    
C30   C56   A    
N19   Ni5   S    
C17   C21   A    
C24   F3    S    
C67   C69   A    
C9    C80   A    
C97   N26   A    
C5    C75   A    
C60   H15   S    
C94   N22   A    
C45   H5    S    
C71   H21   S    
C65   C70   A    
C72   C90   A    
C11   C16   A    
C3    C97   A    
C66   C71   A    
N11   Ni7   S    
C3    C35   A    
C25   H54   S    
C16   C20   A    
C80   H35   S    
C46   C54   S    
C74   N3    A    
C55   C57   S    
C50   C54   A    
C64   C69   A    
C14   C26   S    
N25   Ni4   S    
C80   N8    A    
C38   C47   A    
C70   C71   A    
C2    C73   A    
C95   N24   A    
C27   H57   S    
C48   H7    S    
C81   C90   A    
C58   C79   S    
C10   C25   S    
C88   N17   A    
N19   N29   A    
N5    N14   A    
C32   H60   S    
C92   H42   S    
C86   N15   A    
N4    Ni3   S    
C60   C63   A    
C67   H18   S    
C3    C39   S    
C37   C45   A    
C86   H37   S    
C1    F1    S    
C37   C99   S    
C31   C58   A    
C23   C25   S    
C76   H31   S    
C70   H20   S    
C91   N19   A    
C84   N13   A    
C57   C91   A    
C62   C65   A    
N30   Ni7   S    
C24   C100  A    
N15   Ni2   S    
C44   C79   A    
C7    C16   S    
C8    C17   S    
C31   H59   S    
C5    C66   S    
C75   H30   S    
C1    C98   A    
C40   C100  S    
C73   H28   S    
C42   H24   S    
C53   C58   A    
C92   N20   A    
C6    C76   A    
C93   N21   A    
C13   N12   A    
C33   C38   A    
C83   N11   A    
C8    C87   A    
C95   H46   S    
C18   C22   A    
C12   C14   A    
C81   N9    A    
C59   C64   A    
C56   C68   S    
C30   C32   A    
C4    C65   S    
C4    C83   A    
C22   H52   S    
N21   Ni7   S    
N26   Ni3   S    
N10   Ni6   S    
C63   C90   S    
C1    N1    A    
N31   Ni8   S    
C68   C92   A    
C88   H39   S    
N9    Ni5   S    
C24   N23   A    
C51   C55   A    
C82   F6    S    
N24   Ni1   S    
C61   C62   A    
C93   H43   S    
C10   C11   A    
N1    Ni1   S    
C7    C86   A    
C52   H11   S    
C96   N25   A    
C9    C18   S    
C84   F8    S    
C49   H8    S    
C69   H19   S    
C44   N31   A    
N32   Ni2   S    
N17   Ni4   S    
C75   N4    A    
N7    N16   A    
C53   H13   S    
C33   H2    S    
C13   F2    S    
N6    N15   A    
C82   N10   A    
C73   N2    A    
C26   H23   S    
C52   C56   A    
C39   C48   A    
C23   H53   S    
