data_mof_unit_42565.cif
_audit_creation_date              2012-12-10T20:53:05-0500
_audit_creation_method            fapswitch 2.2
_symmetry_space_group_name_H-M    P1
_symmetry_Int_Tables_number       1
_space_group_crystal_system       triclinic
_cell_length_a                    18.273684
_cell_length_b                    18.332978
_cell_length_c                    18.328429
_cell_angle_alpha                 60.138804
_cell_angle_beta                  60.14007
_cell_angle_gamma                 60.115996
_cell_volume                      4354.74121192

loop_
_atom_site_label
_atom_site_type_symbol
_atom_type_description
_atom_site_fract_x
_atom_site_fract_y
_atom_site_fract_z
_atom_type_partial_charge
C1    C     C_R   0.390100 0.102147 0.117418 0.548285
C2    C     C_R   0.387912 0.801579 0.772192 -0.098330
C3    C     C_R   0.041236 0.511732 0.905895 0.018910
C4    C     C_R   0.407653 0.010901 0.039108 0.013471
C5    C     C_R   0.592347 0.989099 0.960892 0.013471
C6    C     C_R   0.943817 0.948079 0.555168 0.021909
C7    C     C_R   0.056183 0.051921 0.444832 0.021909
C8    C     C_R   0.948147 0.554488 0.943734 0.016637
C9    C     C_R   0.051852 0.445512 0.056266 0.016637
C10   C     C_R   0.553298 0.966075 0.928395 0.011272
C11   C     C_R   0.446702 0.033925 0.071605 0.011272
C12   C     C_R   0.195163 0.216340 0.624835 -0.106714
C13   C     C_R   0.804837 0.783659 0.375165 -0.106714
C14   C     C_R   0.170324 0.583072 0.280810 -0.068268
C15   C     C_R   0.829676 0.416927 0.719190 -0.068268
C16   C     C_R   0.568644 0.286934 0.184302 -0.061719
C17   C     C_R   0.431356 0.713066 0.815698 -0.061720
C18   C     C_R   0.285192 0.174487 0.582990 -0.078080
C19   C     C_R   0.714808 0.825513 0.417010 -0.078080
C20   C     C_R   0.081327 0.586820 0.313440 0.053232
C21   C     C_R   0.609900 0.897853 0.882582 0.548284
C22   C     C_R   0.918673 0.413180 0.686560 0.053232
C23   C     C_R   0.584874 0.316438 0.092407 0.059617
C24   C     C_R   0.415126 0.683562 0.907593 0.059617
C25   C     C_R   0.314217 0.086831 0.585428 0.053033
C26   C     C_R   0.685783 0.913169 0.414572 0.053033
C27   C     C_R   0.032668 0.631848 0.254661 -0.067156
C28   C     C_R   0.967332 0.368152 0.745339 -0.067155
C29   C     C_R   0.645113 0.256734 0.044709 -0.082333
C30   C     C_R   0.354887 0.743266 0.955291 -0.082332
C31   C     C_R   0.252492 0.041546 0.629914 -0.069651
C32   C     C_R   0.111126 0.109104 0.389676 0.574447
C33   C     C_R   0.747507 0.958454 0.370086 -0.069651
C34   C     C_R   0.072838 0.672573 0.164004 -0.099421
C35   C     C_R   0.927162 0.327427 0.835996 -0.099421
C36   C     C_R   0.689131 0.168748 0.088162 -0.110919
C37   C     C_R   0.310869 0.831252 0.911838 -0.110920
C38   C     C_R   0.162589 0.083546 0.671845 -0.101676
C39   C     C_R   0.837411 0.916454 0.328155 -0.101676
C40   C     C_R   0.161659 0.668296 0.131678 -0.101030
C41   C     C_R   0.838341 0.331704 0.868322 -0.101030
C42   C     C_R   0.672309 0.139431 0.179682 -0.108085
C43   C     C_R   0.888874 0.890896 0.610324 0.574446
C44   C     C_R   0.327691 0.860569 0.820318 -0.108085
C45   C     C_R   0.133955 0.170824 0.669402 -0.103930
C46   C     C_R   0.866045 0.829176 0.330597 -0.103930
C47   C     C_R   0.985108 0.591605 0.464160 -0.152586
C48   C     C_R   0.014891 0.408395 0.535840 -0.152586
C49   C     C_R   0.590913 0.465351 0.989006 -0.160415
C50   C     C_R   0.409087 0.534649 0.010993 -0.160415
C51   C     C_R   0.464494 0.987741 0.591084 -0.156016
C52   C     C_R   0.535506 0.012259 0.408916 -0.156016
C53   C     C_R   0.944806 0.552350 0.555191 0.026435
C54   C     C_R   0.108698 0.389762 0.111551 0.555550
C55   C     C_R   0.055194 0.447650 0.444809 0.026435
C56   C     C_R   0.552507 0.555044 0.943783 0.020689
C57   C     C_R   0.447492 0.444956 0.056217 0.020689
C58   C     C_R   0.555084 0.944711 0.552485 0.024506
C59   C     C_R   0.444916 0.055289 0.447514 0.024506
C60   C     C_R   0.959864 0.459435 0.591501 -0.034141
C61   C     C_R   0.040136 0.540565 0.408499 -0.034141
C62   C     C_R   0.460430 0.590136 0.954463 -0.034866
C63   C     C_R   0.539570 0.409864 0.045537 -0.034866
C64   C     C_R   0.591114 0.957095 0.460140 -0.035180
C65   C     C_R   0.891301 0.610238 0.888448 0.555550
C66   C     C_R   0.408886 0.042905 0.539859 -0.035180
C67   C     C_R   0.110700 0.390421 0.389710 0.527281
C68   C     C_R   0.889300 0.609579 0.610290 0.527280
C69   C     C_R   0.390460 0.389691 0.111179 0.491716
C70   C     C_R   0.609540 0.610309 0.888821 0.491715
C71   C     C_R   0.389798 0.110779 0.390348 0.526467
C72   C     C_R   0.610202 0.889221 0.609652 0.526468
C73   C     C_R   0.188127 0.915004 0.478445 0.260738
C74   C     C_R   0.811873 0.084996 0.521555 0.260738
C75   C     C_R   0.913459 0.478055 0.187617 0.233875
C76   C     C_R   0.210377 0.623537 0.190044 -0.096307
C77   C     C_R   0.086541 0.521946 0.812383 0.233875
C78   C     C_R   0.319638 0.005934 0.083479 0.272254
C79   C     C_R   0.680362 0.994066 0.916521 0.272255
C80   C     C_R   0.219461 0.824679 0.526401 -0.075789
C81   C     C_R   0.780539 0.175321 0.473598 -0.075789
C82   C     C_R   0.821881 0.522884 0.219043 -0.081366
C83   C     C_R   0.178119 0.477118 0.780957 -0.081366
C84   C     C_R   0.277379 0.005900 0.037575 -0.085949
C85   C     C_R   0.722620 0.994100 0.962425 -0.085949
C86   C     C_R   0.161848 0.775978 0.582963 -0.146573
C87   C     C_R   0.789622 0.376463 0.809956 -0.096307
C88   C     C_R   0.838152 0.224022 0.417037 -0.146573
C89   C     C_R   0.772722 0.576858 0.161758 -0.161540
C90   C     C_R   0.227278 0.423144 0.838242 -0.161540
C91   C     C_R   0.322862 0.005799 0.950206 -0.168790
C92   C     C_R   0.677138 0.994201 0.049794 -0.168790
C93   C     C_R   0.071857 0.816529 0.591989 -0.097175
C94   C     C_R   0.928142 0.183471 0.408011 -0.097175
C95   C     C_R   0.814168 0.586900 0.071847 -0.109780
C96   C     C_R   0.185832 0.413102 0.928153 -0.109780
C97   C     C_R   0.413654 0.995139 0.912111 -0.086769
C98   C     C_R   0.612088 0.198421 0.227808 -0.098330
C99   C     C_R   0.586346 0.004861 0.087889 -0.086769
C100  C     C_R   0.036183 0.908316 0.545700 -0.041130
C101  C     C_R   0.963817 0.091683 0.454299 -0.041131
C102  C     C_R   0.907253 0.543560 0.036119 -0.034802
C103  C     C_R   0.092747 0.456440 0.963881 -0.034802
C104  C     C_R   0.458923 0.990142 0.959292 -0.030174
C105  C     C_R   0.541077 0.009858 0.040708 -0.030174
C106  C     C_R   0.094242 0.959662 0.488919 0.027322
C107  C     C_R   0.905758 0.040338 0.511081 0.027322
C108  C     C_R   0.958764 0.488268 0.094105 0.018910
Cl1   Cl    Cl    0.274334 0.962147 0.404722 -0.580646
Cl2   Cl    Cl    0.725666 0.037853 0.595278 -0.580646
Cl3   Cl    Cl    0.961779 0.410189 0.273082 -0.671407
Cl4   Cl    Cl    0.038220 0.589811 0.726918 -0.671407
Cl5   Cl    Cl    0.268216 0.978557 0.200369 -0.540510
Cl6   Cl    Cl    0.731784 0.021443 0.799631 -0.540510
H1    H     H_    0.812712 0.294168 0.380721 0.146487
H2    H     H_    0.338833 0.561614 0.017939 0.141264
H3    H     H_    0.436730 0.979558 0.661493 0.139443
H4    H     H_    0.563270 0.020441 0.338506 0.139443
H5    H     H_    0.289918 0.791208 0.518926 0.147305
H6    H     H_    0.710082 0.208792 0.481074 0.147305
H7    H     H_    0.787892 0.515307 0.289277 0.146506
H8    H     H_    0.212108 0.484695 0.710722 0.146506
H9    H     H_    0.209607 0.004383 0.070206 0.140145
H10   H     H_    0.790393 0.995617 0.929794 0.140145
H11   H     H_    0.030735 0.774440 0.636019 0.176366
H12   H     H_    0.187288 0.705832 0.619279 0.146486
H13   H     H_    0.969265 0.225560 0.363980 0.176367
H14   H     H_    0.771575 0.629175 0.030957 0.118637
H15   H     H_    0.228425 0.370826 0.969043 0.118636
H16   H     H_    0.447343 0.993411 0.844656 0.160885
H17   H     H_    0.552657 0.006589 0.155344 0.160886
H18   H     H_    0.192674 0.699338 0.061373 0.106911
H19   H     H_    0.807326 0.300662 0.938627 0.106911
H20   H     H_    0.706034 0.071034 0.213046 0.104577
H21   H     H_    0.293965 0.928966 0.786954 0.104577
H22   H     H_    0.064306 0.203164 0.701823 0.110537
H23   H     H_    0.298351 0.389229 0.812672 0.122956
H24   H     H_    0.935694 0.796836 0.298177 0.110537
H25   H     H_    0.279333 0.619530 0.165067 0.102545
H26   H     H_    0.720667 0.380470 0.834933 0.102545
H27   H     H_    0.599192 0.175620 0.298715 0.104763
H28   H     H_    0.400807 0.824380 0.701285 0.104763
H29   H     H_    0.172888 0.284106 0.622425 0.103545
H30   H     H_    0.827111 0.715894 0.377575 0.103545
H31   H     H_    0.208780 0.547864 0.325405 0.099084
H32   H     H_    0.791220 0.452136 0.674595 0.099083
H33   H     H_    0.522274 0.332280 0.221977 0.091113
H34   H     H_    0.701650 0.610774 0.187328 0.122956
H35   H     H_    0.477725 0.667720 0.778023 0.091113
H36   H     H_    0.332097 0.210316 0.548344 0.098589
H37   H     H_    0.667903 0.789684 0.451656 0.098589
H38   H     H_    0.964319 0.634232 0.278828 0.114252
H39   H     H_    0.035681 0.365768 0.721172 0.114253
H40   H     H_    0.657661 0.278239 0.974077 0.101683
H41   H     H_    0.342340 0.721761 0.025922 0.101683
H42   H     H_    0.273987 0.974106 0.631642 0.113204
H43   H     H_    0.726012 0.025894 0.368358 0.113204
H44   H     H_    0.035327 0.706898 0.118717 0.112740
H45   H     H_    0.711027 0.990423 0.086604 0.111393
H46   H     H_    0.964673 0.293102 0.881282 0.112740
H47   H     H_    0.736398 0.123434 0.050727 0.103516
H48   H     H_    0.263603 0.876566 0.949273 0.103516
H49   H     H_    0.115098 0.048512 0.706063 0.116207
H50   H     H_    0.884902 0.951488 0.293936 0.116208
H51   H     H_    0.288973 0.009577 0.913396 0.111393
H52   H     H_    0.975066 0.662413 0.436045 0.144958
H53   H     H_    0.024934 0.337587 0.563955 0.144958
H54   H     H_    0.661167 0.438386 0.982060 0.141264
O1    O     O_3   0.250000 0.250000 0.250000 -0.450460
O2    O     O_R   0.865800 0.694910 0.573470 -0.549826
O3    O     O_R   0.305090 0.426530 0.134200 -0.558182
O4    O     O_R   0.694910 0.573470 0.865800 -0.558182
O5    O     O_R   0.426530 0.134200 0.305090 -0.551102
O6    O     O_R   0.573470 0.865800 0.694910 -0.551102
O7    O     O_R   0.134190 0.426530 0.134200 -0.504385
O8    O     O_R   0.865810 0.573470 0.865800 -0.504385
O9    O     O_R   0.426530 0.134200 0.134190 -0.553633
O10   O     O_R   0.573470 0.865800 0.865810 -0.553633
O11   O     O_R   0.134200 0.134190 0.426530 -0.507669
O12   O     O_3   0.750000 0.750000 0.750000 -0.450460
O13   O     O_R   0.865800 0.865810 0.573470 -0.507668
O14   O     O_R   0.426530 0.305080 0.134210 -0.537848
O15   O     O_R   0.573470 0.694920 0.865790 -0.537847
O16   O     O_R   0.305080 0.134210 0.426530 -0.511916
O17   O     O_R   0.694920 0.865790 0.573470 -0.511916
O18   O     O_R   0.134210 0.426530 0.305080 -0.507067
O19   O     O_R   0.865790 0.573470 0.694920 -0.507067
O20   O     O_R   0.305080 0.134200 0.134200 -0.491848
O21   O     O_R   0.694920 0.865800 0.865800 -0.491848
O22   O     O_R   0.134200 0.134200 0.305080 -0.479355
O23   O     O_R   0.865800 0.865800 0.694920 -0.479355
O24   O     O_R   0.134200 0.305080 0.134200 -0.534202
O25   O     O_R   0.865800 0.694920 0.865800 -0.534203
O26   O     O_R   0.134200 0.305090 0.426530 -0.549827
Zn1   Zn    Zn3+2 0.206620 0.206630 0.380140 1.002816
Zn2   Zn    Zn3+2 0.793380 0.793370 0.619860 1.002816
Zn3   Zn    Zn3+2 0.206630 0.380140 0.206620 0.969538
Zn4   Zn    Zn3+2 0.793370 0.619860 0.793380 0.969537
Zn5   Zn    Zn3+2 0.380140 0.206620 0.206630 0.951333
Zn6   Zn    Zn3+2 0.619860 0.793380 0.793370 0.951333
Zn7   Zn    Zn3+2 0.206620 0.206620 0.206620 1.035773
Zn8   Zn    Zn3+2 0.793380 0.793380 0.793380 1.035773

loop_
_geom_bond_atom_site_label_1
_geom_bond_atom_site_label_2
_ccdc_geom_bond_type
C25   C31   A    
C89   H34   S    
C101  C107  A    
C27   H38   S    
C49   C63   A    
C86   H12   S    
C36   C42   A    
C1    C11   S    
C75   C82   A    
C87   H26   S    
C58   C72   S    
C41   H19   S    
C31   H42   S    
O1    Zn1   S    
O11   Zn1   S    
C94   H13   S    
C9    C108  A    
C29   H40   S    
C14   H31   S    
C33   C39   A    
C82   C89   A    
C54   O24   A    
C92   H45   S    
C34   C40   A    
C23   C29   A    
O1    Zn3   S    
C86   C93   A    
C97   H16   S    
O12   Zn8   S    
C42   C98   A    
C59   C66   A    
C22   C60   S    
C13   C46   A    
C1    O20   A    
O5    Zn5   S    
C77   C83   A    
C4    C104  A    
O20   Zn7   S    
C85   H10   S    
C69   O3    A    
C13   H30   S    
C20   C61   S    
C19   C26   A    
C53   C68   S    
C70   O4    A    
C35   H46   S    
O7    Zn3   S    
C38   C45   A    
C80   C86   A    
C74   C107  A    
C25   C66   S    
C68   O2    A    
C95   H14   S    
C85   C92   A    
C15   C22   A    
C94   C101  A    
C2    C44   A    
C11   C105  A    
C19   H37   S    
O24   Zn7   S    
O18   Zn3   S    
O4    Zn4   S    
O23   Zn8   S    
C72   O6    A    
C5    C79   A    
C67   O26   A    
C82   H7    S    
O12   Zn2   S    
C95   C102  A    
C9    C103  A    
C69   O14   A    
O1    Zn5   S    
C44   H21   S    
C23   C63   S    
O26   Zn1   S    
C40   H18   S    
C48   C55   A    
C43   O23   A    
C8    C65   S    
C27   C34   A    
C22   C28   A    
C71   O5    A    
C2    C17   A    
C18   C25   A    
C1    O9    A    
C12   H29   S    
C99   C105  A    
C53   C60   A    
C33   H43   S    
C48   C60   A    
C65   O25   A    
C10   C21   S    
C58   C64   A    
C41   C87   A    
C88   C94   A    
C17   C24   A    
C13   C19   A    
O19   Zn4   S    
C97   C104  A    
C14   C20   A    
C81   H6    S    
C28   C35   A    
C49   H54   S    
C3    C8    A    
C52   C64   A    
C47   H52   S    
C5    C105  A    
C74   Cl2   S    
O1    Zn7   S    
C43   O13   A    
O25   Zn8   S    
C40   C76   A    
C30   C37   A    
C84   H9    S    
C51   C66   A    
C6    C100  A    
C54   O7    A    
C89   C95   A    
C77   Cl4   S    
C4    C78   A    
O12   Zn6   S    
C52   C59   A    
C26   C33   A    
C21   O21   A    
C29   C36   A    
C6    C107  A    
C7    C106  A    
C32   O22   A    
C32   O11   A    
C51   C58   A    
C91   C97   A    
C4    C11   A    
C102  C108  A    
C93   C100  A    
C39   C46   A    
C21   O10   A    
C34   H44   S    
C30   H41   S    
C84   C91   A    
C93   H11   S    
C16   C23   A    
C56   C70   S    
C6    C43   S    
C16   H33   S    
C98   H27   S    
O9    Zn5   S    
C28   H39   S    
C2    H28   S    
C56   C62   A    
C96   C103  A    
C78   Cl5   S    
C74   C81   A    
C3    C77   A    
C79   C85   A    
C90   H23   S    
C15   C87   A    
C76   H25   S    
C3    C103  A    
C83   C90   A    
O10   Zn6   S    
C38   H49   S    
C45   H22   S    
C24   C62   S    
C7    C32   S    
C14   C76   A    
C50   C57   A    
C75   Cl3   S    
C71   O16   A    
C91   H51   S    
C17   H35   S    
O14   Zn5   S    
C57   C63   A    
O8    Zn4   S    
C12   C45   A    
C47   C61   A    
C15   H32   S    
C55   C67   S    
C67   O18   A    
O22   Zn7   S    
C90   C96   A    
C20   C27   A    
C26   C64   S    
O21   Zn8   S    
O13   Zn2   S    
O16   Zn1   S    
O6    Zn6   S    
O15   Zn6   S    
C31   C38   A    
C99   H17   S    
C42   H20   S    
C37   C44   A    
C10   C104  A    
C5    C10   A    
C65   O8    A    
C49   C56   A    
O2    Zn2   S    
C16   C98   A    
C73   C106  A    
C36   H47   S    
C48   H53   S    
C88   H1    S    
C50   C62   A    
C47   C53   A    
C55   C61   A    
C51   H3    S    
C73   C80   A    
C50   H2    S    
C73   Cl1   S    
C83   H8    S    
C35   C41   A    
C24   C30   A    
C72   O17   A    
C80   H5    S    
C81   C88   A    
O12   Zn4   S    
C100  C106  A    
C68   O19   A    
C78   C84   A    
C70   O15   A    
C75   C108  A    
O3    Zn3   S    
C7    C101  A    
C79   Cl6   S    
C12   C18   A    
C46   H24   S    
C37   H48   S    
C9    C54   S    
O17   Zn2   S    
C57   C69   S    
C39   H50   S    
C18   H36   S    
C8    C102  A    
C92   C99   A    
C59   C71   S    
C96   H15   S    
C52   H4    S    
