data_mof_unit_47516.cif
_audit_creation_date              2012-12-10T20:13:26-0500
_audit_creation_method            fapswitch 2.2
_symmetry_space_group_name_H-M    P1
_symmetry_Int_Tables_number       1
_space_group_crystal_system       triclinic
_cell_length_a                    19.305451
_cell_length_b                    18.459966
_cell_length_c                    15.754231
_cell_angle_alpha                 89.907473
_cell_angle_beta                  90.079731
_cell_angle_gamma                 89.986412
_cell_volume                      5614.44793014

loop_
_atom_site_label
_atom_site_type_symbol
_atom_type_description
_atom_site_fract_x
_atom_site_fract_y
_atom_site_fract_z
_atom_type_partial_charge
C1    C     C_R   0.365560 0.500005 0.499662 0.879107
C2    C     C_R   0.817554 0.565541 0.492630 -0.083061
C3    C     C_R   0.853061 0.499794 0.497761 0.204515
C4    C     C_R   0.709624 0.499951 0.499627 -0.036462
C5    C     C_R   0.963643 0.507483 0.418629 -0.022579
C6    C     C_R   0.964748 0.491924 0.574703 -0.023417
C7    C     C_R   0.499877 0.500069 0.338244 0.922564
C8    C     C_R   0.035714 0.507923 0.419629 -0.239967
C9    C     C_R   0.036764 0.491479 0.572396 -0.237593
C10   C     C_R   0.071411 0.499730 0.495711 0.030198
C11   C     C_R   0.928040 0.499726 0.497003 -0.104127
C12   C     C_3   0.568219 0.494363 0.952937 -0.408749
C13   C     C_R   0.182192 0.433198 0.488932 0.107492
C14   C     C_R   0.181933 0.566720 0.502462 0.107551
C15   C     C_R   0.254474 0.434475 0.490637 -0.215040
C16   C     C_R   0.254229 0.565518 0.503735 -0.215760
C17   C     C_R   0.290190 0.499995 0.498184 -0.108602
C18   C     C_R   0.146549 0.499913 0.495303 0.027561
C19   C     C_R   0.543332 0.725926 0.553061 0.019583
C20   C     C_R   0.542972 0.273870 0.553475 0.023420
C21   C     C_R   0.543984 0.801921 0.554156 -0.285462
C22   C     C_R   0.543685 0.197875 0.554423 -0.280693
C23   C     C_3   0.567284 0.508718 0.049014 -0.410439
C24   C     C_R   0.499641 0.841344 0.500088 0.126578
C25   C     C_R   0.499712 0.158669 0.499876 0.125389
C26   C     C_R   0.634407 0.499990 0.500065 0.869373
C27   C     C_R   0.455434 0.801940 0.446014 -0.282071
C28   C     C_R   0.455854 0.198258 0.445407 -0.286460
C29   C     C_R   0.456439 0.725945 0.447012 0.020325
C30   C     C_R   0.456853 0.274252 0.446469 0.021504
C31   C     C_R   0.437736 0.962033 0.488633 -0.183166
C32   C     C_R   0.437762 0.038098 0.488517 -0.182902
C33   C     C_R   0.499650 0.077329 0.499808 0.122902
C34   C     C_1   0.496449 0.501504 0.825655 -0.105910
C35   C     C_R   0.499607 0.922702 0.499991 0.122691
C36   C     C_R   0.561509 0.038003 0.511124 -0.182120
C37   C     C_R   0.561492 0.961958 0.511197 -0.181356
C38   C     C_R   0.499986 0.499969 0.661845 0.925869
C39   C     C_3   0.447695 0.568004 0.048342 -0.128494
C40   C     C_3   0.457558 0.430084 0.050201 -0.073320
C41   C     C_3   0.448319 0.437064 0.950666 -0.124404
C42   C     C_3   0.461575 0.576333 0.949599 -0.077450
C43   C     C_1   0.498330 0.500183 0.750457 -0.232011
C44   C     C_3   0.491930 0.502204 0.083112 0.231063
C45   C     C_1   0.494481 0.501048 0.174624 -0.094965
C46   C     C_3   0.493902 0.502418 0.917150 0.248384
C47   C     C_3   0.141513 0.362532 0.480521 -0.399295
C48   C     C_3   0.184811 0.292972 0.472316 -0.376427
C49   C     C_3   0.138390 0.226473 0.463501 -0.866589
C50   C     C_3   0.140965 0.637370 0.508860 -0.400616
C51   C     C_3   0.183961 0.707164 0.516474 -0.374822
C52   C     C_3   0.137256 0.773709 0.522104 -0.865977
C53   C     C_3   0.494872 0.360203 0.085778 -0.365914
C54   C     C_3   0.454157 0.324781 0.159031 -0.390374
C55   C     C_3   0.493096 0.260151 0.196346 -0.857933
C56   C     C_1   0.497304 0.500380 0.249715 -0.214515
C57   C     C_3   0.452644 0.639240 0.101797 -0.390835
C58   C     C_3   0.389831 0.689288 0.087281 -0.376624
C59   C     C_3   0.401618 0.763628 0.126971 -0.877227
C60   C     C_3   0.454580 0.365360 0.898484 -0.383090
C61   C     C_3   0.396424 0.310999 0.918710 -0.371820
C62   C     C_3   0.408001 0.239297 0.872792 -0.872832
C63   C     C_3   0.504835 0.645915 0.926010 -0.392200
C64   C     C_3   0.512219 0.661977 0.830570 -0.340049
C65   C     C_3   0.532453 0.740815 0.814410 -0.904478
C66   C     C_2   0.928167 0.514606 0.334728 0.891162
C67   C     C_R   0.745826 0.434140 0.504787 -0.177269
C68   C     C_2   0.930503 0.484807 0.659255 0.890056
C69   C     C_R   0.745814 0.565692 0.493675 -0.177727
C70   C     C_R   0.817565 0.434132 0.503934 -0.083575
H1    H     H_    0.410092 0.583372 0.918578 0.118536
H2    H     H_    0.577710 0.170143 0.598425 0.133938
H3    H     H_    0.421023 0.829493 0.402306 0.132384
H4    H     H_    0.421731 0.170838 0.401366 0.130726
H5    H     H_    0.422476 0.696006 0.405142 0.119986
H6    H     H_    0.423217 0.304346 0.404222 0.120247
H7    H     H_    0.388847 0.934023 0.481261 0.129845
H8    H     H_    0.388904 0.066197 0.481046 0.129993
H9    H     H_    0.610394 0.066017 0.518515 0.131671
H10   H     H_    0.610375 0.933904 0.518606 0.131890
H11   H     H_    0.392460 0.551329 0.054939 0.120867
H12   H     H_    0.393634 0.454315 0.939756 0.118862
H13   H     H_    0.403758 0.428672 0.075889 0.118138
H14   H     H_    0.587433 0.563970 0.062230 0.177546
H15   H     H_    0.603934 0.471264 0.081159 0.172977
H16   H     H_    0.604966 0.532218 0.921484 0.179119
H17   H     H_    0.587811 0.438645 0.940892 0.179531
H18   H     H_    0.718863 0.382850 0.509576 0.149257
H19   H     H_    0.718838 0.617038 0.489565 0.151029
H20   H     H_    0.845499 0.383321 0.507972 0.118980
H21   H     H_    0.845481 0.616297 0.487957 0.119218
H22   H     H_    0.104692 0.220678 0.520210 0.264410
H23   H     H_    0.064737 0.513587 0.361120 0.183352
H24   H     H_    0.105504 0.231150 0.405828 0.262358
H25   H     H_    0.170967 0.177139 0.457792 0.246841
H26   H     H_    0.218448 0.296443 0.415219 0.220355
H27   H     H_    0.217691 0.285855 0.529728 0.226843
H28   H     H_    0.107608 0.356832 0.537127 0.216503
H29   H     H_    0.107690 0.366829 0.423542 0.210594
H30   H     H_    0.104615 0.778364 0.464224 0.263442
H31   H     H_    0.103312 0.770043 0.578829 0.262980
H32   H     H_    0.169616 0.823211 0.527549 0.247739
H33   H     H_    0.216561 0.704890 0.574650 0.225683
H34   H     H_    0.066588 0.485864 0.630412 0.184295
H35   H     H_    0.217855 0.713218 0.459903 0.222653
H36   H     H_    0.107675 0.642197 0.451485 0.215953
H37   H     H_    0.106530 0.633767 0.565229 0.211542
H38   H     H_    0.502377 0.218647 0.146671 0.257999
H39   H     H_    0.543484 0.277911 0.223336 0.268252
H40   H     H_    0.461832 0.235356 0.247858 0.245754
H41   H     H_    0.444823 0.364488 0.210503 0.238916
H42   H     H_    0.402914 0.305957 0.135771 0.209221
H43   H     H_    0.503412 0.317963 0.037714 0.213812
H44   H     H_    0.547369 0.372872 0.109700 0.209443
H45   H     H_    0.283732 0.384780 0.485970 0.156245
H46   H     H_    0.411300 0.758223 0.196236 0.259461
H47   H     H_    0.446630 0.790747 0.096682 0.259901
H48   H     H_    0.354971 0.797874 0.117295 0.250965
H49   H     H_    0.378252 0.696201 0.018770 0.221807
H50   H     H_    0.343270 0.664393 0.116841 0.218993
H51   H     H_    0.452196 0.627240 0.170707 0.215882
H52   H     H_    0.502383 0.667676 0.090292 0.206424
H53   H     H_    0.409808 0.248071 0.803045 0.264713
H54   H     H_    0.457343 0.214128 0.894077 0.258487
H55   H     H_    0.364811 0.201593 0.887399 0.251200
H56   H     H_    0.283298 0.615252 0.509392 0.157851
H57   H     H_    0.392698 0.300110 0.987573 0.231890
H58   H     H_    0.345920 0.334046 0.898028 0.218223
H59   H     H_    0.448717 0.376875 0.829764 0.217873
H60   H     H_    0.506825 0.341002 0.905298 0.198519
H61   H     H_    0.491048 0.777875 0.836914 0.262601
H62   H     H_    0.581684 0.753821 0.847636 0.263431
H63   H     H_    0.539786 0.749680 0.745314 0.254011
H64   H     H_    0.553914 0.627776 0.803450 0.237623
H65   H     H_    0.462585 0.650931 0.797180 0.234613
H66   H     H_    0.478671 0.693910 0.952805 0.225538
H67   H     H_    0.577394 0.695960 0.594908 0.125614
H68   H     H_    0.557136 0.644259 0.955030 0.198683
H69   H     H_    0.934785 0.546419 0.212284 0.347405
H70   H     H_    0.938793 0.452617 0.781438 0.347124
H71   H     H_    0.576730 0.303663 0.595724 0.123019
H72   H     H_    0.578266 0.829460 0.597906 0.134267
N1    N     N_R   0.499980 0.689440 0.500010 -0.090153
N2    N     N_R   0.499980 0.310560 0.500010 -0.090718
O1    O     O_R   0.398180 0.560840 0.500000 -0.629806
O2    O     O_R   0.963790 0.544815 0.265964 -0.818568
O3    O     O_2   0.871445 0.506657 0.670544 -0.633568
O4    O     O_R   0.966990 0.454174 0.727212 -0.818082
O5    O     O_R   0.398180 0.439160 0.500000 -0.629950
O6    O     O_R   0.500010 0.560840 0.377160 -0.619286
O7    O     O_R   0.500010 0.439160 0.377160 -0.617602
O8    O     O_R   0.601820 0.560790 0.500040 -0.626109
O9    O     O_R   0.601820 0.439210 0.500040 -0.625626
O10   O     O_R   0.500000 0.560790 0.622880 -0.621716
O11   O     O_R   0.500000 0.439210 0.622880 -0.618815
O12   O     O_2   0.868818 0.493141 0.324667 -0.630821
Zn1   Zn    Zn3+2 0.500000 0.581210 0.500030 0.941469
Zn2   Zn    Zn3+2 0.500000 0.418790 0.500030 0.942784

loop_
_geom_bond_atom_site_label_1
_geom_bond_atom_site_label_2
_ccdc_geom_bond_type
H69   O2    S    
O6    Zn1   S    
C27   C29   A    
C20   N2    A    
C1    O1    A    
C24   C27   A    
C28   H4    S    
H70   O4    S    
C6    C9    A    
C62   H54   S    
C47   H29   S    
C53   C54   S    
C44   C45   S    
C25   C28   A    
C48   H27   S    
C12   C23   S    
C52   H32   S    
C67   H18   S    
C47   H28   S    
C13   C18   A    
C7    C56   S    
C36   C37   A    
C35   C37   A    
C21   H72   S    
C5    C11   A    
C51   H33   S    
C39   C57   S    
C33   C36   A    
C30   N2    A    
C42   C46   S    
O9    Zn2   S    
C14   C18   A    
C62   H53   S    
C57   H52   S    
C54   C55   S    
C47   C48   S    
C45   C56   T    
C16   C17   A    
C22   C25   A    
C41   C46   S    
C1    O5    A    
C34   C46   S    
C49   H24   S    
C2    C69   A    
C63   H66   S    
C9    C10   A    
C68   O4    S    
C51   H35   S    
C6    C68   S    
C64   H65   S    
C59   H47   S    
C55   H39   S    
O11   Zn2   S    
C40   H13   S    
C70   H20   S    
C38   O11   A    
C69   H19   S    
C22   H2    S    
C4    C69   A    
C65   H61   S    
C53   H43   S    
N1    Zn1   S    
C39   C42   S    
C37   H10   S    
C64   H64   S    
C52   H31   S    
C24   C35   S    
C23   H14   S    
C8    H23   S    
C51   C52   S    
O7    Zn2   S    
C3    C70   A    
C39   H11   S    
O10   Zn1   S    
C12   C46   S    
C60   H60   S    
C6    C11   A    
C13   C47   S    
C59   H46   S    
C58   C59   S    
C57   H51   S    
C52   H30   S    
C23   C44   S    
C60   C61   S    
C62   H55   S    
C7    O6    A    
O1    Zn1   S    
C31   C32   A    
C19   H67   S    
C58   H50   S    
C50   C51   S    
C54   H42   S    
C61   H57   S    
C49   H25   S    
C68   O3    D    
C7    O7    A    
C40   C41   S    
C20   C22   A    
C59   H48   S    
C13   C15   A    
C55   H40   S    
C50   H37   S    
C63   H68   S    
C14   C16   A    
C30   H6    S    
C38   O10   A    
C49   H22   S    
N2    Zn2   S    
C2    H21   S    
C65   H62   S    
C53   H44   S    
O5    Zn2   S    
C15   C17   A    
O8    Zn1   S    
C48   C49   S    
C31   H7    S    
C19   N1    A    
C48   H26   S    
C12   H17   S    
C19   C21   A    
C20   H71   S    
C34   C43   T    
C41   C60   S    
C5    C66   S    
C36   H9    S    
C60   H59   S    
C5    C8    A    
C4    C26   S    
C39   C44   S    
C29   H5    S    
C1    C17   S    
C12   H16   S    
C55   H38   S    
C67   C70   A    
C64   C65   S    
C26   O8    A    
C2    C3    A    
C38   C43   S    
C32   C33   A    
C66   O12   D    
C57   C58   S    
C14   C50   S    
C10   C18   S    
C9    H34   S    
C41   H12   S    
C31   C35   A    
C28   C30   A    
C42   H1    S    
C54   H41   S    
C61   H58   S    
C15   H45   S    
C61   C62   S    
C66   O2    S    
C3    C11   S    
C32   H8    S    
C63   C64   S    
C40   C44   S    
C58   H49   S    
C8    C10   A    
C40   C53   S    
C23   H15   S    
C21   C24   A    
C50   H36   S    
C26   O9    A    
C27   H3    S    
C16   H56   S    
C42   C63   S    
C65   H63   S    
C4    C67   A    
C25   C33   S    
C29   N1    A    
