data_mof_unit_24704.cif
_audit_creation_date              2012-12-10T17:55:05-0500
_audit_creation_method            fapswitch 2.2
_symmetry_space_group_name_H-M    P1
_symmetry_Int_Tables_number       1
_space_group_crystal_system       triclinic
_cell_length_a                    8.723021
_cell_length_b                    10.788548
_cell_length_c                    9.573632
_cell_angle_alpha                 89.168024
_cell_angle_beta                  97.483272
_cell_angle_gamma                 91.352179
_cell_volume                      892.980490505

loop_
_atom_site_label
_atom_site_type_symbol
_atom_type_description
_atom_site_fract_x
_atom_site_fract_y
_atom_site_fract_z
_atom_type_partial_charge
C1    C     C_R   0.503361 0.262465 0.501297 0.830852
C2    C     C_R   0.496637 0.737531 0.498695 0.830856
C3    C     C_R   0.204061 0.499601 0.464097 0.891908
C4    C     C_R   0.795940 0.500407 0.535903 0.891900
C5    C     C_2   0.038383 0.498302 0.444315 -0.320984
C6    C     C_2   0.961617 0.501711 0.555685 -0.320995
C7    C     C_R   0.412977 0.066544 0.392787 -0.204556
C8    C     C_R   0.587127 0.933436 0.607172 -0.204552
C9    C     C_R   0.407806 0.938161 0.389408 0.178297
C10   C     C_R   0.592273 0.061819 0.610565 0.178325
C11   C     C_R   0.496322 0.871390 0.497302 -0.101661
C12   C     C_R   0.503731 0.128603 0.502667 -0.101702
C13   C     C_R   0.404784 0.421402 0.065792 -0.053817
C14   C     C_R   0.595212 0.578602 0.934209 -0.053816
C15   C     C_R   0.404138 0.420663 0.917978 0.268714
C16   C     C_R   0.595862 0.579339 0.082024 0.268720
Cu1   Cu    Cu3+1 0.500000 0.500020 0.640660 1.007450
Cu2   Cu    Cu3+1 0.500000 0.499980 0.359340 1.007448
H1    H     H_    0.979331 0.494094 0.337203 0.195138
H2    H     H_    0.020668 0.505920 0.662797 0.195133
H3    H     H_    0.343329 0.118162 0.310696 0.174907
H4    H     H_    0.656793 0.881804 0.689253 0.174889
H5    H     H_    0.328877 0.358535 0.114937 0.156096
H6    H     H_    0.671121 0.641469 0.885064 0.156095
N1    N     N_R   0.500040 0.500030 0.852080 -0.195990
N2    N     N_R   0.499960 0.499970 0.147920 -0.195992
O1    O     O_R   0.499990 0.319660 0.618740 -0.539690
O2    O     O_R   0.500010 0.680340 0.381260 -0.539710
O3    O     O_R   0.499990 0.319630 0.381170 -0.593358
O4    O     O_R   0.500010 0.680370 0.618830 -0.593355
O5    O     O_R   0.274840 0.500010 0.591370 -0.563886
O6    O     O_R   0.725160 0.499990 0.408630 -0.563882
O7    O     O_R   0.274830 0.499980 0.353800 -0.579759
O8    O     O_R   0.725170 0.500020 0.646200 -0.579759
I1    I     I_    0.254461 0.854495 0.224474 -0.266070
I2    I     I_    0.745569 0.145465 0.775566 -0.266055
I3    I     I_    0.247604 0.289275 0.811631 -0.283565
I4    I     I_    0.752420 0.710714 0.188380 -0.283573

loop_
_geom_bond_atom_site_label_1
_geom_bond_atom_site_label_2
_ccdc_geom_bond_type
C8    H4    S    
C5    H1    S    
C6    H2    S    
Cu2   N2    S    
C2    O4    A    
Cu1   N1    S    
C1    O3    A    
Cu1   Cu2   S    
Cu2   O3    S    
C3    O5    A    
Cu1   O4    S    
C9    C11   A    
C4    O6    A    
C1    C12   S    
C10   C12   A    
C8    C11   A    
C2    C11   S    
C8    C10   A    
C10   I2    S    
C4    O8    A    
C13   C15   A    
C14   N1    A    
C16   N2    A    
C5    C6    D    
Cu1   O5    S    
Cu2   O7    S    
C14   C16   A    
C13   N2    A    
C15   N1    A    
Cu2   O6    S    
Cu1   O8    S    
C3    O7    A    
C9    I1    S    
Cu1   O1    S    
C7    C9    A    
Cu2   O2    S    
C13   H5    S    
C4    C6    S    
C14   H6    S    
C1    O1    A    
C15   I3    S    
C2    O2    A    
C7    C12   A    
C7    H3    S    
C16   I4    S    
C3    C5    S    
