data_mof_unit_48588.cif
_audit_creation_date              2012-10-26T20:44:03-0400
_audit_creation_method            fapswitch 2.2
_symmetry_space_group_name_H-M    P1
_symmetry_Int_Tables_number       1
_space_group_crystal_system       triclinic
_cell_length_a                    10.827398
_cell_length_b                    9.508165
_cell_length_c                    19.41082
_cell_angle_alpha                 89.977879
_cell_angle_beta                  90.143659
_cell_angle_gamma                 89.99679
_cell_volume                      1998.3119933

loop_
_atom_site_label
_atom_site_type_symbol
_atom_type_description
_atom_site_fract_x
_atom_site_fract_y
_atom_site_fract_z
_atom_type_partial_charge
C1    C     C_R   0.871788 0.499995 0.500059 0.020702
C2    C     C_R   0.737967 0.499997 0.500045 0.552081
C3    C     C_R   0.500914 0.499906 0.367566 0.556840
C4    C     C_R   0.500007 0.499892 0.632424 0.556150
C5    C     C_R   0.063870 0.372171 0.499846 -0.140241
C6    C     C_R   0.936128 0.627825 0.500184 -0.139147
C7    C     C_R   0.936139 0.372168 0.499910 -0.140441
C8    C     C_R   0.063859 0.627828 0.500120 -0.139931
C9    C     C_R   0.467748 0.620491 0.744851 -0.152787
C10   C     C_R   0.479778 0.620812 0.254217 -0.130258
C11   C     C_R   0.535879 0.374167 0.257177 -0.148776
C12   C     C_R   0.128211 0.500001 0.499965 0.020221
C13   C     C_R   0.529589 0.375396 0.743717 -0.142473
C14   C     C_R   0.464168 0.618916 0.817192 0.248125
C15   C     C_R   0.483158 0.618799 0.182307 0.272433
C16   C     C_R   0.542966 0.370839 0.184806 0.254573
C17   C     C_R   0.528184 0.371939 0.815985 0.258630
C18   C     C_R   0.498163 0.495306 0.852243 0.112949
C19   C     C_R   0.512021 0.493030 0.147668 0.116514
C20   C     C_R   0.423725 0.074491 0.456853 0.008142
C21   C     C_R   0.576266 0.925511 0.543153 0.007022
C22   C     C_R   0.576257 0.074421 0.543159 0.006558
C23   C     C_R   0.615066 0.493111 0.962095 0.254064
C24   C     C_R   0.423723 0.925582 0.456854 0.008496
C25   C     C_R   0.498943 0.498804 0.708066 -0.077084
C26   C     C_R   0.505545 0.498692 0.291943 -0.079465
C27   C     C_3   0.325148 0.798599 0.834804 -0.108889
C28   C     C_3   0.556376 0.820834 0.136343 -0.117341
C29   C     C_3   0.665302 0.170682 0.178661 -0.136271
C30   C     C_3   0.500818 0.132436 0.829794 -0.128868
C31   C     C_3   0.761931 0.641852 0.921951 -0.113656
C32   C     C_3   0.239870 0.370863 0.090638 -0.100859
C33   C     C_3   0.805161 0.370022 0.051921 -0.056213
C34   C     C_R   0.393535 0.492281 0.037735 0.274629
C35   C     C_3   0.243513 0.376032 0.901114 -0.128870
C36   C     C_R   0.619406 0.483805 0.034608 0.233536
C37   C     C_R   0.389167 0.492406 0.965639 0.264634
C38   C     C_R   0.508360 0.489107 0.071944 0.013441
C39   C     C_R   0.500351 0.493073 0.927914 0.023633
C40   C     C_R   0.262032 0.500002 0.499964 0.551788
Cu1   Cu    Cu3+1 0.500000 0.640660 0.500000 0.932589
Cu2   Cu    Cu3+1 0.500000 0.359340 0.500000 0.930565
H1    H     H_    0.362642 0.130722 0.422315 0.109913
H2    H     H_    0.454904 0.717470 0.280270 0.143616
H3    H     H_    0.552975 0.279472 0.286561 0.135341
H4    H     H_    0.557603 0.282907 0.715298 0.131094
H5    H     H_    0.252100 0.717441 0.827150 0.150970
H6    H     H_    0.336287 0.863466 0.787648 0.086380
H7    H     H_    0.293121 0.869748 0.876365 0.146180
H8    H     H_    0.626292 0.765128 0.104503 0.134350
H9    H     H_    0.597520 0.852887 0.186538 0.100743
H10   H     H_    0.529580 0.917878 0.108318 0.167904
H11   H     H_    0.629990 0.102832 0.220785 0.113184
H12   H     H_    0.637344 0.869283 0.577695 0.108158
H13   H     H_    0.741371 0.239523 0.197676 0.124009
H14   H     H_    0.705309 0.100428 0.138955 0.117217
H15   H     H_    0.547209 0.086745 0.784021 0.124383
H16   H     H_    0.401512 0.153429 0.818611 0.082659
H17   H     H_    0.504299 0.052132 0.871221 0.172721
H18   H     H_    0.785218 0.681675 0.974290 0.146715
H19   H     H_    0.691274 0.710639 0.897371 0.144106
H20   H     H_    0.846901 0.648161 0.890302 0.140462
H21   H     H_    0.307504 0.308716 0.121274 0.132185
H22   H     H_    0.213543 0.312405 0.043307 0.117785
H23   H     H_    0.637310 0.130595 0.577716 0.105076
H24   H     H_    0.155406 0.382584 0.122343 0.136726
H25   H     H_    0.868753 0.399561 0.009597 0.172491
H26   H     H_    0.751053 0.274613 0.037502 0.141519
H27   H     H_    0.863641 0.341518 0.096787 0.108439
H28   H     H_    0.288112 0.281504 0.924513 0.096070
H29   H     H_    0.265828 0.381282 0.845429 0.115325
H30   H     H_    0.142180 0.361392 0.905383 0.141590
H31   H     H_    0.362644 0.869409 0.422313 0.108638
H32   H     H_    0.111936 0.272245 0.499702 0.126788
H33   H     H_    0.888063 0.727751 0.500328 0.127071
H34   H     H_    0.888082 0.272241 0.499830 0.126650
H35   H     H_    0.111915 0.727755 0.500200 0.126681
H36   H     H_    0.447197 0.716694 0.717319 0.133732
N1    N     N_R   0.500000 0.852070 0.500000 -0.225014
N2    N     N_R   0.500000 0.147930 0.500000 -0.224981
O1    O     O_R   0.319640 0.618740 0.500000 -0.508990
O2    O     O_3   0.450001 0.737818 0.145829 -0.536166
O3    O     O_3   0.567775 0.247903 0.148402 -0.578539
O4    O     O_3   0.564229 0.253396 0.852895 -0.554683
O5    O     O_3   0.722718 0.500479 0.924035 -0.551215
O6    O     O_3   0.285173 0.506070 0.074789 -0.501990
O7    O     O_3   0.730559 0.485871 0.070517 -0.572600
O8    O     O_3   0.275326 0.504310 0.933383 -0.529212
O9    O     O_R   0.680360 0.381260 0.500000 -0.508984
O10   O     O_R   0.680360 0.618740 0.500000 -0.507139
O11   O     O_R   0.319640 0.381260 0.500000 -0.507559
O12   O     O_R   0.500020 0.618830 0.400190 -0.501590
O13   O     O_R   0.499980 0.381170 0.599810 -0.503598
O14   O     O_R   0.499980 0.618830 0.599810 -0.502654
O15   O     O_R   0.500020 0.381170 0.400190 -0.503112
O16   O     O_3   0.439203 0.739474 0.855063 -0.575595

loop_
_geom_bond_atom_site_label_1
_geom_bond_atom_site_label_2
_ccdc_geom_bond_type
C27   H6    S    
Cu2   N2    S    
C31   O5    S    
C34   C37   A    
Cu1   Cu2   S    
C14   C18   A    
C37   O8    S    
C9    C14   A    
C4    C25   S    
C9    C25   A    
C6    H33   S    
C15   C19   A    
C29   O3    S    
C10   C15   A    
C21   H12   S    
C28   H9    S    
C24   H31   S    
Cu2   O13   S    
C30   H15   S    
C30   H16   S    
Cu2   O11   S    
C34   O6    S    
C5    H32   S    
C2    O10   A    
C31   H19   S    
C28   H8    S    
C20   C24   A    
C35   H28   S    
C33   H27   S    
C10   C26   A    
Cu1   O10   S    
C32   O6    S    
C1    C7    A    
C21   C22   A    
C31   H20   S    
C13   C25   A    
C27   O16   S    
C14   O16   S    
C15   O2    S    
C36   O7    S    
C20   N2    A    
C28   O2    S    
Cu2   O15   S    
C32   H22   S    
C5    C12   A    
C5    C7    A    
C6    C8    A    
C29   H13   S    
C11   C26   A    
C10   H2    S    
C16   O3    S    
C1    C6    A    
C3    O12   A    
C35   O8    S    
C31   H18   S    
C12   C40   S    
C2    O9    A    
C18   C39   S    
C22   H23   S    
C19   C38   S    
C11   C16   A    
C24   N1    A    
Cu1   O14   S    
C8    C12   A    
Cu1   O1    S    
C30   H17   S    
C21   N1    A    
C17   C18   A    
C4    O14   A    
C35   H30   S    
C8    H35   S    
C11   H3    S    
C20   H1    S    
C33   H25   S    
C32   H24   S    
C27   H5    S    
C34   C38   A    
C40   O1    A    
C3    C26   S    
C32   H21   S    
Cu1   N1    S    
C7    H34   S    
C29   H14   S    
C13   C17   A    
C17   O4    S    
Cu2   O9    S    
C36   C38   A    
C33   O7    S    
C22   N2    A    
C37   C39   A    
C28   H10   S    
C13   H4    S    
C29   H11   S    
C16   C19   A    
C23   C39   A    
C1    C2    S    
C9    H36   S    
C40   O11   A    
C30   O4    S    
C35   H29   S    
C4    O13   A    
Cu1   O12   S    
C23   C36   A    
C23   O5    S    
C3    O15   A    
C27   H7    S    
C33   H26   S    
