data_mof_unit_59268.cif
_audit_creation_date              2012-12-11T16:19:15-0500
_audit_creation_method            fapswitch 2.2
_symmetry_space_group_name_H-M    P1
_symmetry_Int_Tables_number       1
_space_group_crystal_system       triclinic
_cell_length_a                    6.97152
_cell_length_b                    31.278991
_cell_length_c                    35.028911
_cell_angle_alpha                 89.914181
_cell_angle_beta                  90.119321
_cell_angle_gamma                 89.959205
_cell_volume                      7638.45120493

loop_
_atom_site_label
_atom_site_type_symbol
_atom_type_description
_atom_site_fract_x
_atom_site_fract_y
_atom_site_fract_z
_atom_type_partial_charge
O1    O     O_R   0.417270 0.211480 0.210950 -0.537079
O2    O     O_R   0.582730 0.788520 0.789050 -0.537941
O3    O     O_R   0.582730 0.788520 0.710950 -0.531581
O4    O     O_R   0.417270 0.211480 0.289050 -0.532735
O5    O     O_R   0.917270 0.288520 0.289050 -0.538365
O6    O     O_R   0.082730 0.711480 0.710950 -0.537330
O7    O     O_R   0.082730 0.711480 0.789050 -0.538913
O8    O     O_R   0.917270 0.288520 0.210950 -0.537505
O9    O     O_R   0.746940 0.206370 0.288750 -0.536183
O10   O     O_R   0.253060 0.793630 0.711250 -0.537103
O11   O     O_R   0.253060 0.793630 0.788750 -0.541781
O12   O     O_R   0.746940 0.206370 0.211250 -0.542967
O13   O     O_R   0.246940 0.293630 0.211250 -0.542009
O14   O     O_R   0.753060 0.706370 0.788750 -0.541299
O15   O     O_R   0.753060 0.706370 0.711250 -0.541925
O16   O     O_R   0.246940 0.293630 0.288750 -0.541332
C1    C     C_R   0.578334 0.196299 0.301987 0.707842
C2    C     C_R   0.421615 0.803799 0.698079 0.706133
C3    C     C_R   0.422055 0.803955 0.801901 0.706190
C4    C     C_R   0.577938 0.196140 0.198029 0.705267
C5    C     C_R   0.077973 0.303846 0.198041 0.707886
C6    C     C_R   0.922192 0.695939 0.801801 0.707475
C7    C     C_R   0.921863 0.695914 0.698181 0.712077
C8    C     C_R   0.078083 0.303992 0.301892 0.712283
O17   O     O_3   0.583760 0.276950 0.250000 -0.369740
O18   O     O_3   0.416240 0.723050 0.750000 -0.369935
O19   O     O_3   0.083760 0.223050 0.250000 -0.364297
O20   O     O_3   0.916240 0.776950 0.750000 -0.364073
V1    V     V_3+5 0.858600 0.245000 0.250000 1.412853
V2    V     V_3+5 0.141400 0.755000 0.750000 1.412865
V3    V     V_3+5 0.358600 0.255000 0.250000 1.408595
V4    V     V_3+5 0.641400 0.745000 0.750000 1.408611
C9    C     C_R   0.944467 0.585869 0.539656 0.575498
C10   C     C_R   0.019858 0.410704 0.462531 0.590707
C11   C     C_R   0.053108 0.411925 0.037744 0.570358
C12   C     C_R   0.983738 0.587829 0.961519 0.589885
C13   C     C_R   0.464280 0.912515 0.961740 0.570746
C14   C     C_R   0.532075 0.088501 0.037490 0.568986
C15   C     C_R   0.644661 0.079928 0.457241 0.580918
C16   C     C_R   0.347758 0.923549 0.545260 0.582644
N1    N     N_R   0.950799 0.571686 0.576641 -0.551654
N2    N     N_R   0.014026 0.424943 0.425550 -0.550165
N3    N     N_R   0.043565 0.425749 0.074744 -0.553131
N4    N     N_R   0.988470 0.573878 0.924507 -0.550366
N5    N     N_R   0.455426 0.926600 0.924722 -0.551318
N6    N     N_R   0.541176 0.074412 0.074506 -0.551590
N7    N     N_R   0.526252 0.076130 0.426269 -0.552766
N8    N     N_R   0.467944 0.926958 0.576007 -0.551522
C17   C     C_R   0.967312 0.528941 0.584756 0.538427
C18   C     C_R   0.992239 0.467603 0.417509 0.543240
C19   C     C_R   0.024858 0.468364 0.083061 0.539274
C20   C     C_R   0.009413 0.531298 0.916244 0.543067
C21   C     C_R   0.457558 0.969488 0.916484 0.536852
C22   C     C_R   0.538503 0.031523 0.082741 0.537043
C23   C     C_R   0.395390 0.043544 0.423897 0.528226
C24   C     C_R   0.599863 0.959345 0.578256 0.532338
C25   C     C_R   0.983001 0.498290 0.554914 -0.063941
C26   C     C_R   0.975298 0.498172 0.447362 -0.067974
C27   C     C_R   0.012281 0.499323 0.053390 -0.063229
C28   C     C_R   0.026782 0.500494 0.945936 -0.068126
C29   C     C_R   0.468875 0.000407 0.946153 -0.066032
C30   C     C_R   0.526819 0.000609 0.053078 -0.065775
C31   C     C_R   0.380653 0.012440 0.453489 -0.067242
C32   C     C_R   0.613346 0.990718 0.548844 -0.067240
C33   C     C_R   0.974353 0.512902 0.516597 -0.028758
C34   C     C_R   0.987074 0.483625 0.485658 -0.034066
C35   C     C_R   0.023831 0.485091 0.015039 -0.028929
C36   C     C_R   0.013513 0.514678 0.984268 -0.034572
C37   C     C_R   0.487043 0.985778 0.984323 -0.029333
C38   C     C_R   0.508731 0.015241 0.014908 -0.029357
C39   C     C_R   0.501643 0.016606 0.485897 -0.033628
C40   C     C_R   0.491694 0.986701 0.516522 -0.033922
C41   C     C_R   0.953679 0.556865 0.509100 -0.039499
C42   C     C_R   0.010456 0.439723 0.493124 -0.040407
C43   C     C_R   0.045158 0.441210 0.007340 -0.039260
C44   C     C_R   0.991125 0.558533 0.991941 -0.039778
C45   C     C_R   0.483509 0.941637 0.992017 -0.038634
C46   C     C_R   0.512401 0.059382 0.007215 -0.038184
C47   C     C_R   0.633638 0.050588 0.487682 -0.041497
C48   C     C_R   0.359103 0.952840 0.514808 -0.040557
C49   C     C_R   0.008754 0.453788 0.561688 -0.017327
C50   C     C_R   0.949663 0.542673 0.440582 -0.016007
C51   C     C_R   0.987559 0.543785 0.060369 -0.017745
C52   C     C_R   0.053747 0.456108 0.938951 -0.016232
C53   C     C_R   0.467781 0.045248 0.939227 -0.016473
C54   C     C_R   0.527648 0.955769 0.060009 -0.016372
C55   C     C_R   0.249344 0.977634 0.452275 -0.014308
C56   C     C_R   0.744230 0.025604 0.550119 -0.013950
C57   C     C_R   0.022314 0.425398 0.530971 -0.221429
C58   C     C_R   0.941865 0.571208 0.471265 -0.215463
C59   C     C_R   0.977662 0.572522 0.029802 -0.220089
C60   C     C_R   0.059995 0.427258 0.969482 -0.212928
C61   C     C_R   0.492317 0.073839 0.969547 -0.210417
C62   C     C_R   0.503337 0.927180 0.029688 -0.211051
C63   C     C_R   0.239305 0.948875 0.482864 -0.199904
C64   C     C_R   0.753338 0.054562 0.519650 -0.200488
O21   O     O_2   0.930132 0.628132 0.532443 -0.540147
O22   O     O_2   0.033516 0.368413 0.469732 -0.538234
O23   O     O_2   0.069720 0.369773 0.030372 -0.541787
O24   O     O_2   0.972535 0.630093 0.968894 -0.539500
O25   O     O_2   0.457533 0.870225 0.969228 -0.542406
O26   O     O_2   0.539017 0.130784 0.029997 -0.543522
O27   O     O_2   0.773055 0.112098 0.458552 -0.547335
O28   O     O_2   0.217506 0.891739 0.544139 -0.549955
O29   O     O_2   0.971937 0.516526 0.621607 -0.522460
O30   O     O_2   0.991463 0.480222 0.380700 -0.522165
O31   O     O_2   0.015603 0.480347 0.119957 -0.522012
O32   O     O_2   0.008471 0.518989 0.879382 -0.522370
O33   O     O_2   0.455335 0.981863 0.879612 -0.524409
O34   O     O_2   0.540702 0.019139 0.119612 -0.524241
O35   O     O_2   0.278585 0.041930 0.393230 -0.524093
O36   O     O_2   0.718914 0.960509 0.608594 -0.523893
H1    H     H_    0.042168 0.391648 0.536940 0.163325
H2    H     H_    0.923604 0.604997 0.465281 0.158700
H3    H     H_    0.958713 0.606247 0.035894 0.164076
H4    H     H_    0.079754 0.393559 0.963382 0.159090
H5    H     H_    0.491285 0.107857 0.963505 0.162800
H6    H     H_    0.504310 0.893162 0.035732 0.163090
H7    H     H_    0.137413 0.922821 0.481268 0.149860
H8    H     H_    0.854804 0.080699 0.521304 0.149571
C65   C     C_R   0.881539 0.388148 0.369251 -0.095945
C66   C     C_R   0.790071 0.604200 0.632163 -0.092166
C67   C     C_R   0.119537 0.610939 0.868340 -0.095438
C68   C     C_R   0.206020 0.394375 0.130614 -0.092236
C69   C     C_R   0.706713 0.106381 0.129829 -0.091080
C70   C     C_R   0.291458 0.894219 0.869412 -0.091382
C71   C     C_R   0.375567 0.906822 0.641598 -0.086929
C72   C     C_R   0.627234 0.095139 0.361008 -0.087296
H9    H     H_    0.748574 0.405447 0.373238 0.135535
H10   H     H_    0.672125 0.582141 0.628328 0.131097
H11   H     H_    0.252192 0.593415 0.872120 0.135203
H12   H     H_    0.322220 0.416881 0.126644 0.129645
H13   H     H_    0.824348 0.084368 0.125440 0.132560
H14   H     H_    0.173228 0.916108 0.873650 0.132849
H15   H     H_    0.321852 0.938949 0.645885 0.132672
H16   H     H_    0.684391 0.063155 0.357742 0.133207
C73   C     C_R   0.896065 0.358892 0.339317 -0.207075
C74   C     C_R   0.780640 0.634654 0.661288 -0.205243
C75   C     C_R   0.104505 0.640512 0.838623 -0.206177
C76   C     C_R   0.216564 0.364711 0.160403 -0.202976
C77   C     C_R   0.718137 0.136035 0.159561 -0.209007
C78   C     C_R   0.280912 0.864296 0.839891 -0.208120
C79   C     C_R   0.360552 0.876827 0.671210 -0.194436
C80   C     C_R   0.643945 0.124346 0.330821 -0.195233
H17   H     H_    0.773291 0.354388 0.320758 0.138056
H18   H     H_    0.655177 0.635320 0.679459 0.138013
H19   H     H_    0.226508 0.645043 0.819957 0.138407
H20   H     H_    0.340904 0.365027 0.178988 0.138296
H21   H     H_    0.844933 0.136274 0.177477 0.137169
H22   H     H_    0.154156 0.863758 0.821970 0.137012
H23   H     H_    0.296633 0.886311 0.698056 0.123496
H24   H     H_    0.712703 0.114427 0.304584 0.124750
C81   C     C_R   0.066596 0.335906 0.333241 -0.060785
C82   C     C_R   0.932001 0.663564 0.667168 -0.064162
C83   C     C_R   0.934331 0.663780 0.832906 -0.060241
C84   C     C_R   0.067281 0.335387 0.166441 -0.063317
C85   C     C_R   0.566708 0.164589 0.166424 -0.063067
C86   C     C_R   0.432960 0.835817 0.833268 -0.061982
C87   C     C_R   0.431379 0.835197 0.666507 -0.051530
C88   C     C_R   0.568056 0.165675 0.334139 -0.052114
C89   C     C_R   0.222478 0.342628 0.358103 -0.245245
C90   C     C_R   0.092794 0.661566 0.642973 -0.241251
C91   C     C_R   0.779306 0.657038 0.857828 -0.248906
C92   C     C_R   0.908478 0.335822 0.141603 -0.245976
C93   C     C_R   0.404295 0.163201 0.142530 -0.245252
C94   C     C_R   0.595430 0.837653 0.857129 -0.245640
C95   C     C_R   0.512542 0.823575 0.631373 -0.236854
C96   C     C_R   0.480578 0.177856 0.368499 -0.231621
H25   H     H_    0.353727 0.324550 0.354264 0.124311
H26   H     H_    0.209746 0.683989 0.646771 0.126748
H27   H     H_    0.648447 0.675359 0.854227 0.126533
H28   H     H_    0.793926 0.312815 0.145497 0.127813
H29   H     H_    0.287246 0.185416 0.147160 0.128181
H30   H     H_    0.713064 0.815548 0.852669 0.127707
H31   H     H_    0.565012 0.791245 0.627407 0.115665
H32   H     H_    0.424103 0.210010 0.371317 0.111580
C97   C     C_R   0.208537 0.371640 0.388741 0.032308
C98   C     C_R   0.102488 0.631444 0.613203 0.031834
C99   C     C_R   0.793799 0.627714 0.888248 0.031221
C100  C     C_R   0.897834 0.364993 0.111062 0.030527
C101  C     C_R   0.392434 0.134016 0.112064 0.029088
C102  C     C_R   0.606459 0.867169 0.887360 0.030168
C103  C     C_R   0.523981 0.853140 0.601076 0.037394
C104  C     C_R   0.468064 0.149239 0.399512 0.039245
C105  C     C_R   0.035644 0.394837 0.394337 0.352311
C106  C     C_R   0.948838 0.602386 0.607667 0.353174
C107  C     C_R   0.966281 0.604240 0.893497 0.352664
C108  C     C_R   0.048162 0.394951 0.105681 0.352349
C109  C     C_R   0.546031 0.105067 0.105598 0.351135
C110  C     C_R   0.451923 0.895908 0.893658 0.351609
C111  C     C_R   0.457459 0.895519 0.606404 0.346743
C112  C     C_R   0.539041 0.106995 0.395462 0.347232
C113  C     C_R   0.026439 0.435172 0.600247 0.159486
C114  C     C_R   0.206820 0.432515 0.617964 -0.086392
C115  C     C_R   0.223587 0.414775 0.654482 -0.110282
C116  C     C_R   0.060738 0.399524 0.673349 -0.087526
C117  C     C_R   0.880927 0.401872 0.655676 -0.109840
C118  C     C_R   0.863562 0.419546 0.619137 -0.092909
H33   H     H_    0.333623 0.444298 0.603558 0.097171
H34   H     H_    0.362724 0.412866 0.668153 0.105109
H35   H     H_    0.073908 0.385849 0.701638 0.099666
H36   H     H_    0.755068 0.389999 0.670287 0.099439
H37   H     H_    0.723770 0.421263 0.605654 0.091967
C119  C     C_R   0.924739 0.561092 0.402094 0.158489
C120  C     C_R   0.081504 0.579284 0.382982 -0.091796
C121  C     C_R   0.057089 0.596778 0.346532 -0.113756
C122  C     C_R   0.876212 0.596423 0.329178 -0.088124
C123  C     C_R   0.719336 0.578616 0.348266 -0.108691
C124  C     C_R   0.743206 0.561008 0.384680 -0.089716
H38   H     H_    0.222110 0.579660 0.396207 0.095449
H39   H     H_    0.178327 0.610607 0.331742 0.100425
H40   H     H_    0.857587 0.609982 0.300965 0.100081
H41   H     H_    0.579316 0.578448 0.334851 0.108309
H42   H     H_    0.620983 0.547242 0.399260 0.097229
C125  C     C_R   0.967938 0.562038 0.098968 0.159614
C126  C     C_R   0.786242 0.565225 0.115912 -0.085777
C127  C     C_R   0.767609 0.582637 0.152458 -0.109744
C128  C     C_R   0.929912 0.597045 0.172121 -0.086649
C129  C     C_R   0.111058 0.594175 0.155219 -0.108974
C130  C     C_R   0.130302 0.576817 0.118659 -0.091850
H43   H     H_    0.659843 0.554104 0.100883 0.096785
H44   H     H_    0.627447 0.584948 0.165532 0.104511
H45   H     H_    0.915292 0.610474 0.200427 0.100134
H46   H     H_    0.236491 0.605401 0.170445 0.099819
H47   H     H_    0.271112 0.574697 0.105774 0.091998
C131  C     C_R   0.083378 0.438216 0.900457 0.158105
C132  C     C_R   0.930979 0.418603 0.880992 -0.094272
C133  C     C_R   0.959904 0.401609 0.844550 -0.113885
C134  C     C_R   0.141018 0.403863 0.827560 -0.087797
C135  C     C_R   0.293632 0.423079 0.847001 -0.108368
C136  C     C_R   0.265216 0.440208 0.883401 -0.087609
H48   H     H_    0.790203 0.416752 0.893929 0.097185
H49   H     H_    0.841969 0.386693 0.829486 0.101491
H50   H     H_    0.163135 0.390681 0.799357 0.100346
H51   H     H_    0.433875 0.424707 0.833872 0.110467
H52   H     H_    0.384168 0.455071 0.898253 0.097960
C137  C     C_R   0.432976 0.064152 0.901192 0.161395
C138  C     C_R   0.584927 0.082275 0.880539 -0.106018
C139  C     C_R   0.550953 0.100528 0.844690 -0.113469
C140  C     C_R   0.365302 0.101039 0.829475 -0.090917
C141  C     C_R   0.213178 0.083355 0.850107 -0.112072
C142  C     C_R   0.246560 0.065013 0.885934 -0.074897
H53   H     H_    0.729166 0.082052 0.892114 0.095302
H54   H     H_    0.668479 0.114307 0.828723 0.101415
H55   H     H_    0.339274 0.115204 0.801735 0.101089
H56   H     H_    0.069438 0.083885 0.838359 0.105346
H57   H     H_    0.127844 0.051437 0.901746 0.095486
C143  C     C_R   0.561904 0.936858 0.098059 0.161388
C144  C     C_R   0.748296 0.935728 0.113311 -0.075245
C145  C     C_R   0.781135 0.917382 0.149155 -0.111869
C146  C     C_R   0.628480 0.899962 0.169811 -0.090643
C147  C     C_R   0.442835 0.900744 0.154602 -0.113097
C148  C     C_R   0.409403 0.919002 0.118736 -0.105232
H58   H     H_    0.867416 0.949098 0.097478 0.095407
H59   H     H_    0.924862 0.916642 0.160898 0.105130
H60   H     H_    0.654088 0.885793 0.197564 0.101186
H61   H     H_    0.324895 0.887172 0.170589 0.101426
H62   H     H_    0.265169 0.919437 0.107165 0.095136
C149  C     C_R   0.120090 0.969345 0.419673 0.156128
C150  C     C_R   0.925003 0.979892 0.422208 -0.103909
C151  C     C_R   0.801987 0.971843 0.391496 -0.126340
C152  C     C_R   0.872779 0.952894 0.358272 -0.097739
C153  C     C_R   0.066657 0.941768 0.355790 -0.108298
C154  C     C_R   0.190180 0.949776 0.386462 -0.072102
H63   H     H_    0.869149 0.994322 0.447903 0.114242
H64   H     H_    0.651929 0.980229 0.393424 0.115798
H65   H     H_    0.777284 0.946692 0.334521 0.107878
H66   H     H_    0.121147 0.926903 0.330122 0.104274
H67   H     H_    0.339922 0.940905 0.384340 0.090669
C155  C     C_R   0.873846 0.033763 0.582693 0.155361
C156  C     C_R   0.803763 0.052765 0.616166 -0.072599
C157  C     C_R   0.927528 0.060473 0.646863 -0.107475
C158  C     C_R   0.121609 0.049593 0.644154 -0.097418
C159  C     C_R   0.192373 0.031212 0.610675 -0.124428
C160  C     C_R   0.069146 0.023500 0.579929 -0.102798
H68   H     H_    0.653842 0.061411 0.618480 0.090284
H69   H     H_    0.873049 0.074896 0.672731 0.104280
H70   H     H_    0.217269 0.055539 0.667932 0.107552
H71   H     H_    0.342550 0.022991 0.608576 0.114234
H72   H     H_    0.124951 0.009516 0.554037 0.114044
C161  C     C_R   0.367200 0.374610 0.416823 0.103004
C162  C     C_R   0.435707 0.414677 0.428889 -0.149337
C163  C     C_R   0.546211 0.417893 0.462036 -0.137326
C164  C     C_R   0.595617 0.381073 0.482432 -0.043972
C165  C     C_R   0.542536 0.340898 0.468767 -0.065982
C166  C     C_R   0.428109 0.337552 0.436131 -0.085398
H73   H     H_    0.394031 0.443586 0.413990 0.126739
H74   H     H_    0.590236 0.448993 0.472303 0.114898
H75   H     H_    0.676905 0.383572 0.508648 0.113723
H76   H     H_    0.584928 0.312462 0.484212 0.099935
H77   H     H_    0.377419 0.306324 0.427392 0.104606
C167  C     C_R   0.264859 0.632728 0.585982 0.110775
C168  C     C_R   0.360710 0.594923 0.575611 -0.158393
C169  C     C_R   0.477987 0.594159 0.543386 -0.112968
C170  C     C_R   0.506973 0.631465 0.522218 -0.021135
C171  C     C_R   0.424115 0.669861 0.534020 -0.091339
C172  C     C_R   0.303188 0.670608 0.565765 -0.081863
H78   H     H_    0.336517 0.565535 0.591220 0.124560
H79   H     H_    0.543228 0.564428 0.534437 0.106969
H80   H     H_    0.594284 0.630684 0.496731 0.118858
H81   H     H_    0.448252 0.698724 0.517773 0.098300
H82   H     H_    0.230553 0.700095 0.573083 0.104326
C173  C     C_R   0.636589 0.624808 0.916530 0.102414
C174  C     C_R   0.565854 0.584808 0.928285 -0.150361
C175  C     C_R   0.455780 0.581508 0.961408 -0.135404
C176  C     C_R   0.409641 0.618190 0.982187 -0.045372
C177  C     C_R   0.466440 0.658368 0.969023 -0.066922
C178  C     C_R   0.579682 0.661763 0.936310 -0.080387
H83   H     H_    0.605164 0.555982 0.913112 0.126244
H84   H     H_    0.409545 0.550423 0.971361 0.114409
H85   H     H_    0.328370 0.615563 0.008345 0.114711
H86   H     H_    0.428160 0.686774 0.984888 0.111142
H87   H     H_    0.632844 0.692900 0.927868 0.102318
C179  C     C_R   0.738251 0.361511 0.083171 0.117443
C180  C     C_R   0.637633 0.398058 0.070999 -0.154317
C181  C     C_R   0.518656 0.396145 0.038958 -0.099874
C182  C     C_R   0.491689 0.357380 0.019922 -0.022797
C183  C     C_R   0.580420 0.320272 0.033419 -0.108210
C184  C     C_R   0.703912 0.322269 0.064835 -0.083817
H88   H     H_    0.658453 0.428458 0.085123 0.120767
H89   H     H_    0.450138 0.424933 0.028539 0.106743
H90   H     H_    0.401693 0.356062 0.994745 0.122795
H91   H     H_    0.558203 0.290200 0.018822 0.112621
H92   H     H_    0.780211 0.293687 0.073559 0.105637
C185  C     C_R   0.226530 0.136340 0.085529 0.118555
C186  C     C_R   0.182017 0.175354 0.067543 -0.082314
C187  C     C_R   0.053019 0.176443 0.036977 -0.103481
C188  C     C_R   0.968214 0.138694 0.024083 -0.029297
C189  C     C_R   0.003987 0.100150 0.043012 -0.111938
C190  C     C_R   0.129720 0.099056 0.074076 -0.156495
H93   H     H_    0.255088 0.204496 0.075719 0.105833
H94   H     H_    0.023597 0.206342 0.022506 0.111762
H95   H     H_    0.874834 0.139338 0.999383 0.130091
H96   H     H_    0.937222 0.070931 0.033201 0.107666
H97   H     H_    0.158636 0.068776 0.087950 0.122134
C191  C     C_R   0.772363 0.865458 0.913920 0.115979
C192  C     C_R   0.867740 0.903078 0.924975 -0.157831
C193  C     C_R   0.992433 0.902713 0.956214 -0.114798
C194  C     C_R   0.028417 0.864569 0.975759 -0.030004
C195  C     C_R   0.945177 0.826474 0.963274 -0.095818
C196  C     C_R   0.817397 0.826826 0.932490 -0.077968
H98   H     H_    0.838277 0.933075 0.910661 0.123276
H99   H     H_    0.058177 0.932189 0.965687 0.107974
H100  H     H_    0.120907 0.864503 0.000599 0.128918
H101  H     H_    0.974782 0.796887 0.978231 0.113354
H102  H     H_    0.745346 0.797448 0.924631 0.102010
C197  C     C_R   0.598485 0.838840 0.563682 0.086774
C198  C     C_R   0.506692 0.805405 0.544094 -0.084543
C199  C     C_R   0.568975 0.793427 0.507730 -0.112435
C200  C     C_R   0.724695 0.814208 0.490933 -0.111655
C201  C     C_R   0.818151 0.847098 0.510411 -0.093126
C202  C     C_R   0.755657 0.859448 0.546669 -0.099996
H103  H     H_    0.384243 0.789349 0.556578 0.111158
H104  H     H_    0.495405 0.768361 0.492343 0.103093
H105  H     H_    0.772586 0.804917 0.462767 0.109118
H106  H     H_    0.938340 0.863097 0.497241 0.141839
H107  H     H_    0.829140 0.885065 0.561397 0.165837
C203  C     C_R   0.388325 0.164728 0.436186 0.092202
C204  C     C_R   0.237855 0.142934 0.454431 -0.094590
C205  C     C_R   0.169345 0.157155 0.489700 -0.087193
C206  C     C_R   0.248295 0.193416 0.506780 -0.106262
C207  C     C_R   0.396059 0.215594 0.488642 -0.109599
C208  C     C_R   0.465759 0.201447 0.453466 -0.102064
H108  H     H_    0.173124 0.115127 0.441377 0.159996
H109  H     H_    0.055071 0.140125 0.503890 0.141205
H110  H     H_    0.194956 0.204324 0.534080 0.109942
H111  H     H_    0.457451 0.243556 0.502025 0.106583
H112  H     H_    0.582108 0.218720 0.440007 0.113822

loop_
_geom_bond_atom_site_label_1
_geom_bond_atom_site_label_2
_ccdc_geom_bond_type
C154  H67   S    
C10   N2    A    
C192  C193  A    
O15   V4    S    
C8    C81   S    
O16   V3    S    
C162  C163  A    
C166  H77   S    
C164  C165  A    
C26   C50   A    
C205  H109  S    
C175  H84   S    
C30   C38   A    
C159  C160  A    
C134  H50   S    
C1    C88   S    
C2    C87   S    
C184  H92   S    
C148  H62   S    
C157  C158  A    
C172  H82   S    
C136  H52   S    
C80   C88   A    
C74   C82   A    
C79   H23   S    
C163  H74   S    
C167  C172  A    
C78   C86   A    
N1    C17   A    
C133  C134  A    
C68   C76   A    
O17   V1    S    
C57   H1    S    
C94   H30   S    
O19   V3    S    
O20   V4    S    
C195  C196  A    
C55   C149  S    
C201  H106  S    
C191  C192  A    
C14   C46   A    
C63   H7    S    
C179  C180  A    
C81   C89   A    
C181  C182  A    
C125  C126  A    
C188  H95   S    
O10   V2    S    
C173  C174  A    
O12   C4    A    
C176  C177  A    
C73   C81   A    
C71   C79   A    
C15   O27   S    
C60   H4    S    
C29   C53   A    
C76   C84   A    
C137  C142  A    
C9    C41   A    
C171  C172  A    
O6    V2    S    
C31   C39   A    
C140  H55   S    
C12   N4    A    
C13   N5    A    
C15   N7    A    
C21   O33   S    
C161  C166  A    
C16   N8    A    
O1    C4    A    
C23   O35   S    
O2    C3    A    
C27   C51   A    
C116  C117  A    
O7    C6    A    
C51   C59   A    
C158  H70   S    
C160  H72   S    
C151  H64   S    
C125  C130  A    
C146  H60   S    
O10   C2    A    
C198  C199  A    
C87   C95   A    
C9    O21   S    
C58   H2    S    
C200  C201  A    
C178  H87   S    
C49   C113  S    
C115  C116  A    
C98   C106  A    
C47   C64   A    
O14   V4    S    
C70   H14   S    
C19   O31   S    
C113  C114  A    
C204  C205  A    
C102  C110  A    
C156  C157  A    
C147  C148  A    
O17   V3    S    
C206  H110  S    
O18   V4    S    
C123  H41   S    
O12   V1    S    
O19   V1    S    
C208  H112  S    
C37   C45   A    
C201  C202  A    
C94   C102  A    
C39   C47   A    
C128  H45   S    
C30   C54   A    
C144  C145  A    
C183  C184  A    
O8    V1    S    
C41   C58   A    
C151  C152  A    
C66   C106  A    
C207  C208  A    
C193  H99   S    
C34   C42   A    
C67   C75   A    
C45   C62   A    
O1    V3    S    
C17   C25   A    
C22   O34   S    
O2    V4    S    
C141  C142  A    
C65   C73   A    
N7    C112  S    
C70   C110  A    
N8    C111  S    
C20   C28   A    
C27   C35   A    
C197  C202  A    
C21   C29   A    
C182  H90   S    
C69   C77   A    
C23   C31   A    
C24   C32   A    
C204  H108  S    
C11   N3    A    
C192  H98   S    
C89   H25   S    
N4    C20   A    
C88   C96   A    
C194  H100  S    
N5    C21   A    
C162  H73   S    
C137  C138  A    
C185  C186  A    
C61   H5    S    
C205  C206  A    
C158  C159  A    
C6    C83   S    
C156  H68   S    
C98   C167  S    
C159  H71   S    
C85   C93   A    
C152  H65   S    
C68   C108  A    
C143  C148  A    
C103  C197  S    
C83   C91   A    
C127  C128  A    
C138  H53   S    
C71   C111  A    
C72   C112  A    
C168  C169  A    
C141  H56   S    
C75   C83   A    
C189  H96   S    
C25   C33   A    
C117  H36   S    
C48   C63   A    
C133  H49   S    
C186  C187  A    
N2    C18   A    
N2    C105  S    
O18   V2    S    
C102  C191  S    
C190  H97   S    
C91   C99   A    
C92   H28   S    
C35   C43   A    
C195  H101  S    
N6    C109  S    
C95   H31   S    
C97   C161  S    
C179  C184  A    
C96   H32   S    
C3    C86   S    
C155  C160  A    
C82   C90   A    
C188  C189  A    
C173  C178  A    
C36   C44   A    
C176  H85   S    
O14   C6    A    
C169  H79   S    
C40   C48   A    
C13   O25   S    
C62   H6    S    
C200  H105  S    
C74   H18   S    
C140  C141  A    
N1    C106  S    
C117  C118  A    
C14   N6    A    
N4    C107  S    
N5    C110  S    
C144  H58   S    
C119  C120  A    
C131  C132  A    
C163  C164  A    
C52   C60   A    
C116  H35   S    
C199  H104  S    
C56   C64   A    
C139  C140  A    
C104  C203  S    
C146  C147  A    
O11   C3    A    
C199  C200  A    
C73   H17   S    
C71   H15   S    
C37   C38   A    
C72   H16   S    
C169  C170  A    
C99   C107  A    
C69   H13   S    
C113  C118  A    
C97   C105  A    
C126  H43   S    
C100  C108  A    
C101  C109  A    
O11   V2    S    
C123  C124  A    
C119  C124  A    
C104  C112  A    
C91   H27   S    
C92   C100  A    
C49   C57   A    
C114  C115  A    
C180  C181  A    
O7    V2    S    
C174  H83   S    
C147  H61   S    
C207  H111  S    
C153  H66   S    
C35   C36   A    
C18   C26   A    
C66   C74   A    
C149  C154  A    
C129  C130  A    
C150  C151  A    
C17   O29   S    
C22   C30   A    
C145  C146  A    
C13   C45   A    
C70   C78   A    
C177  C178  A    
C15   C47   A    
C165  C166  A    
C194  C195  A    
C90   H26   S    
C11   C43   A    
N6    C22   A    
C180  H88   S    
C135  H51   S    
C12   O24   S    
C152  C153  A    
C10   C42   A    
O4    C1    A    
C56   C155  S    
C181  H89   S    
C4    C85   S    
C197  C198  A    
C143  C144  A    
C86   C94   A    
C127  H44   S    
C138  C139  A    
C54   C143  S    
C67   H11   S    
C121  C122  A    
O13   V3    S    
C65   H9    S    
C51   C125  S    
C196  H102  S    
C79   C87   A    
C170  H80   S    
C124  H42   S    
C50   C58   A    
C9    N1    A    
C78   H22   S    
C187  C188  A    
N3    C19   A    
N3    C108  S    
O20   V2    S    
C10   O22   S    
C59   H3    S    
C53   C137  S    
O3    V4    S    
O4    V3    S    
C39   C40   A    
C28   C36   A    
C80   H24   S    
C175  C176  A    
C7    C82   S    
C118  H37   S    
C18   O30   S    
C122  C123  A    
C155  C156  A    
C150  H63   S    
C32   C56   A    
C157  H69   S    
C38   C46   A    
C189  C190  A    
C52   C131  S    
C76   H20   S    
C77   H21   S    
C120  C121  A    
C75   H19   S    
C134  C135  A    
C120  H38   S    
C42   C57   A    
C167  C168  A    
C177  H86   S    
C187  H94   S    
C46   C61   A    
C93   H29   S    
C131  C136  A    
C168  H78   S    
C33   C41   A    
O3    C2    A    
C54   C62   A    
C121  H39   S    
C26   C34   A    
C95   C103  A    
C132  C133  A    
C96   C104  A    
C170  C171  A    
C16   C48   A    
C139  H54   S    
C12   C44   A    
O9    V1    S    
C101  C185  S    
O15   C7    A    
C132  H48   S    
C129  H46   S    
O16   C8    A    
C202  H107  S    
C203  C204  A    
C53   C61   A    
C11   O23   S    
C68   H12   S    
C198  H103  S    
O5    V1    S    
C171  H81   S    
C90   C98   A    
O13   C5    A    
C185  C190  A    
C126  C127  A    
C44   C59   A    
C161  C162  A    
C165  H76   S    
C135  C136  A    
C55   C63   A    
C191  C196  A    
C16   O28   S    
C72   C80   A    
C114  H33   S    
O8    C5    A    
C203  C208  A    
C99   C173  S    
C84   C92   A    
C43   C60   A    
C183  H91   S    
C77   C85   A    
O9    C1    A    
C174  C175  A    
C193  C194  A    
C122  H40   S    
C25   C49   A    
C19   C27   A    
C149  C150  A    
N7    C23   A    
C115  H34   S    
C29   C37   A    
C145  H59   S    
N8    C24   A    
C31   C55   A    
C64   H8    S    
C103  C111  A    
C164  H75   S    
C206  C207  A    
C142  H57   S    
C93   C101  A    
C153  C154  A    
C14   O26   S    
C50   C119  S    
C28   C52   A    
C128  C129  A    
O5    C8    A    
C100  C179  S    
O6    C7    A    
C5    C84   S    
C66   H10   S    
C130  H47   S    
C32   C40   A    
C67   C107  A    
C182  C183  A    
C65   C105  A    
C20   O32   S    
C33   C34   A    
C186  H93   S    
C69   C109  A    
C89   C97   A    
C24   O36   S    
