data_mof_unit_68034.cif
_audit_creation_date              2013-03-05T15:43:29-0500
_audit_creation_method            fapswitch 2.2
_symmetry_space_group_name_H-M    P1
_symmetry_Int_Tables_number       1
_space_group_crystal_system       triclinic
_cell_length_a                    15.505943
_cell_length_b                    16.107401
_cell_length_c                    7.149988
_cell_angle_alpha                 89.100768
_cell_angle_beta                  83.039757
_cell_angle_gamma                 90.108311
_cell_volume                      1772.39253513

loop_
_atom_site_label
_atom_site_type_symbol
_atom_site_description
_atom_site_fract_x
_atom_site_fract_y
_atom_site_fract_z
_atom_type_partial_charge
O1    O     O_R   0.337460 0.413110 0.524760 -0.578301
O2    O     O_R   0.662540 0.913110 0.475240 -0.573005
O3    O     O_R   0.348690 0.587910 0.191230 -0.578887
O4    O     O_R   0.651310 0.087910 0.808770 -0.587018
O5    O     O_R   0.166530 0.586890 0.082470 -0.537743
O6    O     O_R   0.833470 0.086890 0.917530 -0.556579
C1    C     C_R   0.375270 0.610733 0.354797 0.786716
C2    C     C_R   0.624352 0.109834 0.643154 0.770397
O7    O     O_R   0.348700 0.413830 0.191250 -0.580598
O8    O     O_R   0.651300 0.913830 0.808750 -0.577088
O9    O     O_R   0.166530 0.411570 0.082490 -0.559607
O10   O     O_R   0.833470 0.911570 0.917510 -0.557696
C3    C     C_R   0.371081 0.387884 0.356489 0.802748
C4    C     C_R   0.628313 0.886860 0.645637 0.800992
O11   O     O_R   0.337460 0.588430 0.524740 -0.541586
O12   O     O_R   0.662540 0.088430 0.475260 -0.549953
O13   O     O_3   0.192230 0.499460 0.407330 -0.316461
O14   O     O_3   0.807770 0.999460 0.592670 -0.327462
V1    V     V_3+5 0.263080 0.500100 0.108540 1.117178
V2    V     V_3+5 0.736920 0.000100 0.891460 1.100976
O15   O     O_R   0.155290 0.412090 0.756570 -0.569197
O16   O     O_R   0.844710 0.912090 0.243430 -0.566522
C5    C     C_R   0.137177 0.381063 0.930567 0.819163
C6    C     C_R   0.862574 0.879941 0.072182 0.815658
O17   O     O_R   0.155290 0.586170 0.756550 -0.576682
O18   O     O_R   0.844710 0.086170 0.243450 -0.564019
C7    C     C_R   0.138090 0.621316 0.926063 0.829715
C8    C     C_R   0.856948 0.125259 0.074196 0.801689
V3    V     V_3+5 0.240910 0.499900 0.616030 1.120684
V4    V     V_3+5 0.759090 0.999900 0.383970 1.112319
O19   O     O_3   0.311760 0.500540 0.867100 -0.295696
O20   O     O_3   0.688240 0.000540 0.132900 -0.290537
C9    C     C_3   0.092133 0.765699 0.089686 0.708688
C10   C     C_3   0.908840 0.274107 0.897939 0.715591
C11   C     C_3   0.009057 0.819432 0.155631 -0.234396
C12   C     C_3   0.993684 0.327680 0.842529 -0.198330
H1    H     H_    0.025652 0.884376 0.149885 0.093620
H2    H     H_    0.979085 0.394159 0.841413 0.100417
H3    H     H_    0.988629 0.809845 0.308437 0.096704
H4    H     H_    0.020408 0.320175 0.693008 0.095352
H5    H     H_    0.999176 0.620765 0.167907 0.046555
H6    H     H_    0.001929 0.124329 0.863609 0.025155
C13   C     C_3   0.979811 0.653947 0.043468 0.279535
C14   C     C_3   0.015444 0.161751 0.985317 0.292595
C15   C     C_3   0.044420 0.752448 0.777783 0.284558
C16   C     C_3   0.943180 0.262989 0.226698 0.303615
C17   C     C_3   0.067151 0.697444 0.952481 -0.150760
C18   C     C_3   0.926223 0.205279 0.050577 -0.169593
H7    H     H_    0.025672 0.707914 0.677561 0.082744
H8    H     H_    0.958985 0.223018 0.341544 0.094248
C19   C     C_3   0.930047 0.806404 0.042448 -0.197691
C20   C     C_3   0.066655 0.311936 0.966664 -0.200116
C21   C     C_3   0.897095 0.715113 0.095962 0.401119
C22   C     C_3   0.099237 0.220474 0.935500 0.397887
C23   C     C_3   0.960484 0.804059 0.827455 -0.193131
C24   C     C_3   0.026701 0.317230 0.175133 -0.181474
H9    H     H_    0.960454 0.865860 0.761720 0.081236
H10   H     H_    0.018542 0.383057 0.200590 0.084149
H11   H     H_    0.908890 0.778430 0.751263 0.127783
H12   H     H_    0.075002 0.299799 0.271727 0.127452
H13   H     H_    0.581682 0.789798 0.366332 0.054982
H14   H     H_    0.410539 0.277782 0.623750 0.050010
C25   C     C_2   0.443620 0.677670 0.349847 -0.259335
C26   C     C_2   0.555511 0.175064 0.642973 -0.270131
C27   C     C_2   0.483860 0.699075 0.502489 0.385813
C28   C     C_2   0.519829 0.202679 0.487062 0.386364
C29   C     C_2   0.558706 0.819135 0.656731 -0.082762
C30   C     C_2   0.444365 0.327073 0.347730 -0.066715
C31   C     C_2   0.544844 0.773735 0.500605 -0.163588
C32   C     C_2   0.455252 0.273508 0.495097 -0.161663
H15   H     H_    0.459799 0.710727 0.218154 0.023428
H16   H     H_    0.534470 0.201128 0.777314 0.036910
O21   O     O_3   0.114344 0.722212 0.246679 -0.710040
C33   C     C_3   0.186070 0.751474 0.325214 0.235644
H17   H     H_    0.176144 0.815244 0.371407 0.104917
H18   H     H_    0.248253 0.744561 0.241689 0.016634
C34   C     C_3   0.198873 0.690105 0.469225 -0.136977
H19   H     H_    0.135521 0.670735 0.530911 0.161680
H20   H     H_    0.219344 0.634559 0.394766 0.167427
H21   H     H_    0.243947 0.710998 0.567724 0.054008
O22   O     O_3   0.897856 0.235075 0.730601 -0.720964
C35   C     C_3   0.813370 0.232172 0.689192 0.189125
H22   H     H_    0.792107 0.291646 0.641899 0.090684
H23   H     H_    0.767629 0.206228 0.804190 0.060761
C36   C     C_3   0.813945 0.175833 0.535042 -0.153419
H24   H     H_    0.877884 0.145617 0.503935 0.163804
H25   H     H_    0.777940 0.125986 0.594834 0.155096
H26   H     H_    0.780801 0.201131 0.417586 0.090519
O23   O     O_3   0.959624 0.592598 0.915867 -0.645788
C37   C     C_3   0.900527 0.534118 0.007116 0.359158
H27   H     H_    0.863064 0.556187 0.138660 0.026021
H28   H     H_    0.936657 0.479596 0.046466 0.040883
C38   C     C_3   0.835542 0.511766 0.875269 -0.246497
H29   H     H_    0.863405 0.464647 0.776087 0.108169
H30   H     H_    0.774710 0.490507 0.958831 0.068947
H31   H     H_    0.819626 0.565494 0.789851 0.139431
O24   O     O_3   0.029861 0.108728 0.136209 -0.632287
C39   C     C_3   0.079306 0.040493 0.071164 0.366410
H32   H     H_    0.131642 0.055083 0.954541 0.033863
H33   H     H_    0.033711 0.996848 0.019420 0.008557
C40   C     C_3   0.121144 0.007376 0.235998 -0.336457
H34   H     H_    0.071418 0.005000 0.360729 0.122506
H35   H     H_    0.147786 0.945276 0.208876 0.099534
H36   H     H_    0.174795 0.049042 0.263353 0.120163
O25   O     O_3   0.837147 0.691171 0.970461 -0.648302
C41   C     C_3   0.750112 0.715162 0.009341 0.256941
H37   H     H_    0.740468 0.774685 0.084385 0.023032
H38   H     H_    0.712592 0.665253 0.092205 0.026068
C42   C     C_3   0.715420 0.721410 0.822216 -0.308086
H39   H     H_    0.727419 0.664153 0.740012 0.095030
H40   H     H_    0.645623 0.727489 0.851345 0.063507
H41   H     H_    0.745474 0.774770 0.738557 0.119055
O26   O     O_3   0.154385 0.201025 0.077415 -0.636482
C43   C     C_3   0.244208 0.217144 0.039803 0.270693
H42   H     H_    0.259529 0.277230 0.965696 0.032601
H43   H     H_    0.277599 0.165945 0.958355 0.017538
C44   C     C_3   0.279488 0.216680 0.228198 -0.317646
H44   H     H_    0.266539 0.156223 0.302058 0.095917
H45   H     H_    0.349968 0.223571 0.207418 0.074394
H46   H     H_    0.249741 0.267370 0.317162 0.115389
O27   O     O_3   0.472743 0.648066 0.661119 -0.622120
C45   C     C_3   0.538616 0.587193 0.643885 0.307558
H47   H     H_    0.603754 0.613613 0.590962 -0.005970
H48   H     H_    0.522244 0.538066 0.546088 0.023384
C46   C     C_3   0.545020 0.547473 0.835763 -0.319086
H49   H     H_    0.481442 0.520678 0.894686 0.161803
H50   H     H_    0.594205 0.497557 0.820214 0.045479
H51   H     H_    0.564971 0.594168 0.934775 0.087288
O28   O     O_3   0.534777 0.159472 0.320547 -0.616981
C47   C     C_3   0.472984 0.094421 0.326089 0.329838
H52   H     H_    0.407878 0.111219 0.399714 -0.018664
H53   H     H_    0.497043 0.039140 0.398965 0.042157
C48   C     C_3   0.460837 0.071030 0.126363 -0.332894
H54   H     H_    0.524078 0.052177 0.051292 0.166856
H55   H     H_    0.413187 0.019347 0.129307 0.040157
H56   H     H_    0.436498 0.124357 0.049012 0.094742
C49   C     C_3   0.501201 0.800877 0.843100 -0.222020
C50   C     C_3   0.515577 0.855107 0.012157 -0.395722
H57   H     H_    0.579925 0.842152 0.058539 0.160728
H58   H     H_    0.507533 0.920823 0.973336 0.144594
H59   H     H_    0.471046 0.842943 0.141137 0.095711
H60   H     H_    0.434495 0.806648 0.808239 0.125585
H61   H     H_    0.507871 0.736253 0.891956 0.169491
C51   C     C_3   0.511245 0.336645 0.175923 -0.175190
C52   C     C_3   0.476270 0.326169 0.984017 -0.350822
H62   H     H_    0.440371 0.267491 0.977716 0.108810
H63   H     H_    0.436694 0.378020 0.940892 0.165972
H64   H     H_    0.528765 0.328767 0.867500 0.093958
H65   H     H_    0.535808 0.401185 0.181788 0.057518
H66   H     H_    0.567037 0.294672 0.183570 0.159455
O29   O     O_3   0.156161 0.825064 0.008816 -0.662579
C53   C     C_3   0.240559 0.798140 0.936836 0.316071
H67   H     H_    0.254304 0.806443 0.783807 0.098616
H68   H     H_    0.252878 0.731105 0.956749 0.019044
C54   C     C_3   0.304855 0.854032 0.020641 -0.426405
H69   H     H_    0.274982 0.890799 0.140429 0.126073
H70   H     H_    0.350585 0.812305 0.079036 0.089444
H71   H     H_    0.337529 0.898655 0.915002 0.090252
O30   O     O_3   0.843953 0.336032 0.955888 -0.655034
C55   C     C_3   0.758374 0.313098 0.034726 0.325500
H72   H     H_    0.741438 0.343344 0.169290 0.114560
H73   H     H_    0.748428 0.246841 0.074195 -0.000610
C56   C     C_3   0.693516 0.348665 0.912203 -0.470713
H74   H     H_    0.658439 0.297108 0.854941 0.092305
H75   H     H_    0.650717 0.393373 0.990940 0.091713
H76   H     H_    0.724721 0.386967 0.794589 0.138211
C57   C     C_3   0.854022 0.705453 0.309818 -0.294414
C58   C     C_3   0.904848 0.659157 0.447992 -0.487671
H77   H     H_    0.904187 0.591187 0.425822 0.127776
H78   H     H_    0.972078 0.681523 0.433760 0.166966
H79   H     H_    0.874499 0.669574 0.592978 0.179553
H80   H     H_    0.836866 0.767159 0.369299 0.117443
H81   H     H_    0.791867 0.670918 0.321503 0.110799
C59   C     C_3   0.147583 0.204268 0.729357 -0.305374
C60   C     C_3   0.095346 0.168621 0.580433 -0.473481
H82   H     H_    0.084797 0.101026 0.603318 0.123335
H83   H     H_    0.032789 0.198597 0.578270 0.178866
H84   H     H_    0.130639 0.177502 0.438931 0.194070
H85   H     H_    0.180488 0.261754 0.670768 0.112324
H86   H     H_    0.199746 0.157952 0.735019 0.110462
O31   O     O_3   0.117790 0.800464 0.692111 -0.667240
C61   C     C_3   0.108746 0.888101 0.666811 0.322105
H87   H     H_    0.078478 0.917082 0.796187 0.060985
H88   H     H_    0.069783 0.899164 0.549326 0.021250
C62   C     C_3   0.196215 0.933859 0.625395 -0.403710
H89   H     H_    0.244960 0.899809 0.530070 0.094523
H90   H     H_    0.186811 0.995756 0.563208 0.063851
H91   H     H_    0.223450 0.946587 0.758058 0.124106
O32   O     O_3   0.868118 0.311861 0.289522 -0.660663
C63   C     C_3   0.875662 0.384521 0.399592 0.304942
H92   H     H_    0.916062 0.434573 0.331948 0.006913
H93   H     H_    0.901663 0.369409 0.532749 0.074294
C64   C     C_3   0.787239 0.428308 0.432203 -0.388943
H94   H     H_    0.733063 0.384622 0.476079 0.097569
H95   H     H_    0.787414 0.478041 0.536161 0.062540
H96   H     H_    0.772594 0.459707 0.300927 0.097175

loop_
_geom_bond_atom_site_label_1
_geom_bond_atom_site_label_2
_geom_bond_distance
_ccdc_geom_bond_type
C14   C18   1.575029 S    
C49   H60   1.096699 S    
C25   C27   1.369449 D    
C38   H29   1.099752 S    
C23   H11   1.103933 S    
C54   H70   1.092527 S    
O13   V3    1.752080 S    
O21   C33   1.390000 S    
C47   H53   1.112363 S    
C56   H74   1.102752 S    
O4    C2    1.345011 A    
V1    O19   1.798246 S    
C52   H62   1.100285 S    
C5    C20   1.555676 S    
C15   O31   1.442425 S    
C60   H83   1.086022 S    
C28   C32   1.516569 S    
C36   H24   1.105019 S    
O9    V1    2.092195 S    
C13   O23   1.415349 S    
C33   H18   1.077803 S    
C11   H1    1.075758 S    
O7    V1    2.052975 S    
O26   C43   1.408991 S    
O3    C1    1.342564 A    
C42   H40   1.081978 S    
C34   H21   1.106150 S    
C41   H37   1.107587 S    
H13   C31   1.083357 S    
C39   H32   1.112760 S    
C22   O26   1.435373 S    
O24   C39   1.394594 S    
H14   C32   1.085901 S    
C2    O12   1.323643 A    
C15   C17   1.594541 S    
O7    C3    1.332425 A    
C59   C60   1.531679 S    
C51   H66   1.104991 S    
C63   C64   1.537208 S    
O13   V1    2.280667 S    
O5    C7    1.361453 A    
C21   C57   1.597800 S    
C58   H79   1.100804 S    
O6    C8    1.374393 A    
C62   H89   1.106837 S    
C60   H82   1.107336 S    
O8    V2    2.062122 S    
C64   H95   1.101542 S    
C33   C34   1.447449 S    
C46   H51   1.109729 S    
O29   C53   1.418271 S    
O3    V1    2.078842 S    
O14   V4    1.751902 S    
C10   O22   1.388674 S    
C27   O27   1.383479 S    
C10   C12   1.578292 S    
C12   C20   1.539400 S    
C57   H81   1.105561 S    
C28   O28   1.383944 S    
C10   O30   1.447270 S    
C41   H38   1.111527 S    
C6    C19   1.581613 S    
C58   H78   1.094808 S    
C49   H61   1.101816 S    
C49   C50   1.539965 S    
C38   H30   1.104413 S    
C54   H71   1.110251 S    
H5    C13   1.103579 S    
H6    C14   1.106663 S    
O2    C4    1.330813 A    
C52   H63   1.099505 S    
C20   C22   1.568782 S    
O11   V3    2.103964 S    
C60   H84   1.097513 S    
C36   H25   1.033829 S    
O15   C5    1.331030 A    
O17   V3    2.104874 S    
C16   C18   1.623275 S    
C33   H17   1.089388 S    
C40   H34   1.106118 S    
O12   V4    2.121614 S    
C12   H4    1.107304 S    
C56   H76   1.098131 S    
C9    O29   1.440229 S    
C44   H46   1.109332 S    
C57   C58   1.523483 S    
C62   H91   1.105874 S    
C1    O11   1.327434 A    
C19   C23   1.553443 S    
C34   H19   1.070692 S    
C13   C21   1.629818 S    
O22   C35   1.378493 S    
C24   H12   1.112126 S    
C29   C31   1.382123 D    
C61   C62   1.537038 S    
C55   H73   1.105331 S    
O31   C61   1.429650 S    
C11   H3    1.108384 S    
C55   C56   1.518876 S    
C63   H92   1.090299 S    
C51   H65   1.109629 S    
C14   C22   1.606971 S    
C48   H56   1.105892 S    
C14   O24   1.404858 S    
C37   H28   1.093868 S    
O30   C55   1.423177 S    
C53   C54   1.523745 S    
C15   H7    1.085544 S    
C4    C29   1.527525 S    
C64   H96   1.107050 S    
O10   V2    2.092067 S    
O1    V3    2.102670 S    
C34   H20   1.076916 S    
C61   H87   1.096826 S    
C1    C25   1.507429 S    
O27   C45   1.413149 S    
C50   H58   1.101234 S    
C2    C26   1.499302 S    
C9    O21   1.392556 S    
C58   H77   1.108895 S    
C25   H15   1.076846 S    
C35   H22   1.076465 S    
C38   H31   1.097092 S    
C35   H23   1.095675 S    
C23   H9    1.094170 S    
C11   C19   1.563492 S    
C48   H54   1.104803 S    
C9    C17   1.563811 S    
O16   C6    1.335038 A    
C42   H41   1.108374 S    
C47   C48   1.516089 S    
O1    C3    1.322328 A    
C16   O32   1.436663 S    
C45   H48   1.113192 S    
C12   H2    1.095005 S    
C35   C36   1.437854 S    
C59   H86   1.105295 S    
C52   H64   1.092150 S    
C37   C38   1.507718 S    
C46   H50   1.106808 S    
O28   C47   1.415354 S    
V2    O20   1.798471 S    
C36   H26   1.109091 S    
C7    C17   1.646591 S    
O10   C6    1.338052 A    
C8    C18   1.669635 S    
C63   H93   1.101979 S    
O16   V4    2.121603 S    
C56   H75   1.095399 S    
O18   C8    1.347922 A    
C53   H68   1.106888 S    
C51   C52   1.546788 S    
C50   H59   1.097784 S    
C43   H43   1.109460 S    
O18   V4    2.080599 S    
C57   H80   1.107419 S    
O5    V1    2.073092 S    
O17   C7    1.343264 A    
C39   C40   1.503758 S    
O6    V2    2.073221 S    
O25   C41   1.400832 S    
C16   H8    1.087022 S    
C39   H33   1.095720 S    
O2    V4    2.085217 S    
C55   H72   1.089026 S    
C22   C59   1.596111 S    
C45   C46   1.518901 S    
C44   H45   1.090137 S    
C47   H52   1.116326 S    
C45   H47   1.115852 S    
V3    O19   2.215418 S    
C44   H44   1.106763 S    
V4    O20   2.215177 S    
C37   H27   1.107826 S    
C46   H49   1.108000 S    
O15   V3    2.097088 S    
C27   C31   1.527303 S    
O9    C5    1.328268 A    
C9    C11   1.581324 S    
C24   H10   1.083678 S    
C30   C51   1.514250 S    
O14   V2    2.280987 S    
C43   H42   1.107434 S    
C26   H16   1.068907 S    
O32   C63   1.433003 S    
C29   C49   1.534915 S    
C61   H88   1.105027 S    
C43   C44   1.513966 S    
C62   H90   1.102421 S    
C50   H57   1.108110 S    
O8    C4    1.338644 A    
O4    V2    2.069609 S    
C21   O25   1.424655 S    
C10   C18   1.589738 S    
C53   H67   1.095115 S    
C15   C23   1.553208 S    
C40   H35   1.094101 S    
C64   H94   1.107338 S    
C16   C24   1.564074 S    
C54   H69   1.104376 S    
C48   H55   1.110292 S    
C30   C32   1.377761 D    
C40   H36   1.105533 S    
C19   C21   1.581723 S    
O23   C37   1.408973 S    
C42   H39   1.105352 S    
C13   C17   1.586420 S    
C59   H85   1.107894 S    
C41   C42   1.503337 S    
C20   C24   1.546999 S    
C26   C28   1.371686 D    
C3    C30   1.497836 S    
