data_mof_unit_36007.cif
_audit_creation_date              2013-03-05T15:47:41-0500
_audit_creation_method            fapswitch 2.2
_symmetry_space_group_name_H-M    P1
_symmetry_Int_Tables_number       1
_space_group_crystal_system       triclinic
_cell_length_a                    8.255488
_cell_length_b                    19.180558
_cell_length_c                    22.935995
_cell_angle_alpha                 96.678745
_cell_angle_beta                  90.324095
_cell_angle_gamma                 94.666784
_cell_volume                      3594.77314627

loop_
_atom_site_label
_atom_site_type_symbol
_atom_site_description
_atom_site_fract_x
_atom_site_fract_y
_atom_site_fract_z
_atom_type_partial_charge
P1    P     P_3+3 0.067040 0.441110 0.370020 0.607225
O1    O     O_2   0.896730 0.461690 0.361000 -0.309231
O2    O     O_3   0.137170 0.462400 0.432040 -0.338529
O3    O     O_3   0.657500 0.588540 0.395070 -0.370433
O4    O     O_2   0.774186 0.539469 0.291758 -0.315600
O5    O     O_3   0.079669 0.352714 0.341414 -0.599899
O6    O     O_3   0.704696 0.670487 0.300007 -0.511667
H1    H     H_    0.702311 0.724005 0.383596 0.138544
C1    C     C_3   0.658072 0.791820 0.317999 -0.905899
H2    H     H_    0.788818 0.807585 0.312157 0.287285
H3    H     H_    0.592540 0.789812 0.275335 0.255263
P2    P     P_3+3 0.640420 0.660110 0.543790 0.485173
P3    P     P_3+3 0.096032 0.715402 0.422393 0.468944
O7    O     O_2   0.816140 0.670340 0.526560 -0.355846
O8    O     O_3   0.069580 0.624410 0.423530 -0.387805
O9    O     O_2   0.968130 0.748698 0.463346 -0.351119
O10   O     O_3   0.640841 0.685145 0.619570 -0.551251
O11   O     O_3   0.040014 0.733539 0.352485 -0.489525
C2    C     C_3   0.175635 0.728868 0.316145 0.340299
H4    H     H_    0.273051 0.770234 0.332086 0.054367
C3    C     C_3   0.126456 0.741554 0.254587 -0.771259
H5    H     H_    0.036537 0.698616 0.235482 0.275613
C4    C     C_3   0.204276 0.680398 0.595225 0.230556
H6    H     H_    0.320813 0.659173 0.582342 0.069854
H7    H     H_    0.116181 0.668594 0.557942 0.124800
C5    C     C_3   0.232917 0.760243 0.610332 -0.100641
H8    H     H_    0.299391 0.782962 0.574287 0.078809
Ba1   Ba    Ba6+2 0.850680 0.532880 0.472010 1.674561
C6    C     C_3   0.977355 0.303526 0.366644 0.595482
H9    H     H_    0.859648 0.324593 0.377799 -0.057113
C7    C     C_3   0.955410 0.237850 0.320285 -0.129044
H10   H     H_    0.873333 0.248059 0.284353 0.150912
H11   H     H_    0.074025 0.229270 0.299693 0.186312
C8    C     C_3   0.708735 0.634605 0.648819 0.431748
H12   H     H_    0.834850 0.628955 0.634369 0.114521
H13   H     H_    0.634645 0.583420 0.640313 0.079650
C9    C     C_3   0.710974 0.659583 0.714415 -0.872472
H14   H     H_    0.757125 0.715880 0.722648 0.310690
H15   H     H_    0.791972 0.628965 0.738298 0.214343
H16   H     H_    0.586099 0.653450 0.731916 0.241100
P4    P     P_3+3 0.122660 0.558950 0.629980 0.488747
O12   O     O_2   0.292960 0.538340 0.639040 -0.362571
O13   O     O_3   0.052540 0.537650 0.567960 -0.401332
O14   O     O_3   0.532200 0.411510 0.604930 -0.394086
O15   O     O_3   0.146135 0.650915 0.644823 -0.542687
P5    P     P_3+3 0.077600 0.283752 0.575229 0.542708
O16   O     O_3   0.629030 0.416090 0.471500 -0.352344
O17   O     O_3   0.120120 0.375640 0.576470 -0.339966
O18   O     O_2   0.227332 0.249800 0.547611 -0.308585
O19   O     O_3   0.084146 0.264265 0.647707 -0.533536
Ba2   Ba    Ba6+2 0.339140 0.467180 0.527990 1.661998
P6    P     P_3+3 0.644254 0.586711 0.318810 0.544457
C10   C     C_3   0.637779 0.720336 0.340555 0.498879
H17   H     H_    0.506002 0.706798 0.346519 -0.050388
H18   H     H_    0.607073 0.831543 0.350042 0.205658
O20   O     O_3   0.560670 0.583970 0.528500 -0.402662
C11   C     C_3   0.552032 0.307369 0.324720 0.435421
C12   C     C_3   0.451216 0.268548 0.271010 0.246964
P7    P     P_3+3 0.543165 0.329174 0.442846 0.580581
O21   O     O_2   0.373560 0.329680 0.473470 -0.228711
O22   O     O_3   0.447046 0.315893 0.372692 -0.524980
H19   H     H_    0.235408 0.743208 0.226513 0.242679
C13   C     C_3   0.941831 0.285010 0.675549 0.172447
H20   H     H_    0.935043 0.342758 0.676268 0.064447
C14   C     C_3   0.943341 0.267751 0.738825 -0.044307
H21   H     H_    0.055397 0.293065 0.762007 0.138096
H22   H     H_    0.836699 0.289562 0.761484 0.158202
P8    P     P_3+3 0.550516 0.425977 0.681598 0.448989
C15   C     C_3   0.480380 0.291761 0.669927 0.370487
H23   H     H_    0.553197 0.275110 0.630903 0.072892
O23   O     O_2   0.384389 0.447248 0.705660 -0.396478
O24   O     O_3   0.570562 0.344496 0.707009 -0.558254
H24   H     H_    0.365003 0.309915 0.655003 0.183913
H25   H     H_    0.550809 0.209478 0.719679 0.273730
C16   C     C_3   0.438240 0.228987 0.703325 -0.665531
H26   H     H_    0.370866 0.186099 0.673933 0.270109
H27   H     H_    0.360812 0.244636 0.741287 0.243344
H28   H     H_    0.001974 0.335922 0.048026 0.193382
H29   H     H_    0.931666 0.332172 0.944643 0.186075
C17   C     C_R   0.330045 0.528326 0.334581 -0.384131
C18   C     C_R   0.088697 0.567440 0.942428 -0.064597
C19   C     C_R   0.048073 0.564338 0.881867 0.530444
O25   O     O_2   0.067641 0.617609 0.857381 -0.569138
N1    N     N_R   0.983733 0.501902 0.850483 -0.167221
C20   C     C_R   0.960723 0.441496 0.878543 0.534517
O26   O     O_2   0.904950 0.386421 0.850961 -0.602048
C21   C     C_R   0.001637 0.442737 0.938891 -0.063003
C22   C     C_R   0.065092 0.506225 0.971030 -0.010008
C23   C     C_R   0.150964 0.630610 0.975303 -0.101181
C24   C     C_R   0.188532 0.633016 0.035150 -0.105384
C25   C     C_R   0.166342 0.572224 0.064265 -0.046825
C26   C     C_R   0.104833 0.508558 0.032035 -0.013827
C27   C     C_R   0.979966 0.381922 0.967999 -0.096635
C28   C     C_R   0.020402 0.384093 0.027664 -0.057805
C29   C     C_R   0.083072 0.447255 0.060558 -0.090137
C30   C     C_R   0.125881 0.450264 0.121019 0.581716
N2    N     N_R   0.185972 0.513299 0.152890 -0.168252
C31   C     C_R   0.204677 0.573930 0.124790 0.523404
C32   C     C_2   0.775935 0.484077 0.771912 -0.165953
C33   C     C_3   0.722776 0.490083 0.709135 0.167135
C34   C     C_1   0.005960 0.516514 0.686335 0.286155
C35   C     C_2   0.053847 0.519550 0.742450 -0.177319
C36   C     C_2   0.933852 0.500615 0.788832 0.116638
C37   C     C_R   0.391527 0.546603 0.233803 -0.188239
C38   C     C_R   0.438152 0.552379 0.293175 0.215156
C39   C     C_R   0.180845 0.492953 0.317129 0.284062
C40   C     C_R   0.132539 0.487598 0.257164 -0.180479
C41   C     C_R   0.235762 0.516067 0.214824 0.128313
O27   O     O_2   0.112101 0.396389 0.144845 -0.524236
O28   O     O_2   0.254286 0.629855 0.152548 -0.612913
C42   C     C_2   0.864884 0.484252 0.668306 -0.479331
H30   H     H_    0.235755 0.682893 0.058581 0.177347
H31   H     H_    0.476995 0.565278 0.202331 0.167855
H32   H     H_    0.179213 0.535940 0.755099 0.172448
H33   H     H_    0.684869 0.472549 0.804172 0.159612
H34   H     H_    0.016122 0.460542 0.243464 0.211373
H35   H     H_    0.367818 0.531942 0.380151 0.174531
H36   H     H_    0.851937 0.453685 0.625332 0.166587
C43   C     C_R   0.397057 0.699046 0.471351 -0.527547
C44   C     C_R   0.540501 0.722149 0.502427 0.297901
C45   C     C_R   0.595596 0.794025 0.507792 -0.253431
C46   C     C_R   0.505640 0.842750 0.482499 0.040502
C47   C     C_R   0.356493 0.818655 0.454003 -0.257777
C48   C     C_R   0.301436 0.747264 0.449564 0.198650
C49   C     C_R   0.553787 0.957424 0.440159 -0.169087
C50   C     C_R   0.600351 0.029506 0.445798 -0.023479
C51   C     C_R   0.647308 0.066745 0.500582 -0.005451
C52   C     C_R   0.654567 0.028443 0.549971 0.341984
C53   C     C_R   0.614679 0.954976 0.542886 -0.213673
C54   C     C_R   0.561081 0.919167 0.488456 0.104773
C55   C     C_R   0.841495 0.172655 0.531201 -0.139976
C56   C     C_R   0.886273 0.245073 0.536532 0.263580
C57   C     C_R   0.645245 0.262707 0.479816 0.063744
C58   C     C_R   0.591525 0.190544 0.478630 0.286386
C59   C     C_R   0.691832 0.144608 0.504400 -0.041894
C60   C     C_R   0.784196 0.289268 0.513027 -0.459687
H37   H     H_    0.597523 0.056451 0.406962 0.209766
H38   H     H_    0.512093 0.931603 0.397693 0.139975
H39   H     H_    0.706689 0.811956 0.532248 0.203085
H40   H     H_    0.617193 0.926211 0.580782 0.180626
H41   H     H_    0.922133 0.138264 0.548861 0.181543
H42   H     H_    0.817794 0.345315 0.518950 0.189316
H43   H     H_    0.353212 0.644037 0.468416 0.168808
H44   H     H_    0.309778 0.772901 0.650716 0.157644
N3    N     N_R   0.079104 0.792211 0.618955 0.285718
O29   O     O_R   0.035172 0.835925 0.583699 -0.349709
O30   O     O_R   0.991345 0.781546 0.664470 -0.331439
N4    N     N_R   0.053902 0.288790 0.420370 0.214357
O31   O     O_R   0.072853 0.339564 0.462707 -0.363075
O32   O     O_R   0.116318 0.229621 0.425327 -0.303083
N5    N     N_R   0.894341 0.173671 0.344362 0.280613
O33   O     O_R   0.976957 0.118359 0.338113 -0.246683
O34   O     O_R   0.753047 0.169571 0.368745 -0.424999
N6    N     N_R   0.619641 0.376898 0.312369 0.205506
O35   O     O_R   0.728368 0.383861 0.271836 -0.377084
O36   O     O_R   0.577288 0.432662 0.344598 -0.364846
H45   H     H_    0.648548 0.274446 0.334406 0.008194
H46   H     H_    0.327160 0.287435 0.273801 0.088447
N7    N     N_R   0.518824 0.284005 0.214518 0.251351
O37   O     O_R   0.437127 0.318153 0.180136 -0.324313
O38   O     O_R   0.657117 0.261212 0.196988 -0.305740
N8    N     N_R   0.438032 0.192102 0.272692 0.263568
O39   O     O_R   0.566604 0.157080 0.266742 -0.285588
O40   O     O_R   0.296109 0.157308 0.272188 -0.305008
H47   H     H_    0.832098 0.256580 0.653023 0.087967
N9    N     N_R   0.935225 0.191724 0.740883 0.290263
O41   O     O_R   0.054485 0.155693 0.721303 -0.291704
O42   O     O_R   0.813695 0.160302 0.766036 -0.305798
H48   H     H_    0.221642 0.675672 0.313982 0.067850
H49   H     H_    0.170388 0.678694 0.954872 0.181787
N10   N     N_R   0.437336 0.164226 0.452348 0.256520
O43   O     O_R   0.407055 0.171514 0.397856 -0.286164
O44   O     O_R   0.334588 0.125807 0.480467 -0.335689
N11   N     N_R   0.694828 0.063117 0.607820 0.244133
O45   O     O_R   0.767601 0.030274 0.645653 -0.291798
O46   O     O_R   0.640727 0.123696 0.625425 -0.425503
H50   H     H_    0.280627 0.855538 0.437245 0.165076
H51   H     H_    0.071816 0.792738 0.255858 0.245456

loop_
_geom_bond_atom_site_label_1
_geom_bond_atom_site_label_2
_geom_bond_distance
_ccdc_geom_bond_type
C32   C36   1.359846 D    
C21   C22   1.408434 A    
C13   C14   1.525843 S    
C50   H37   1.081606 S    
C50   C51   1.407115 A    
C4    O15   1.398538 S    
C5    N3    1.459050 S    
C8    C9    1.524477 S    
C43   H43   1.081597 S    
P4    O12   1.510719 D    
C2    H4    1.111465 S    
C24   H30   1.083210 S    
N10   O43   1.298816 A    
C52   C53   1.411072 A    
C6    N4    1.448781 S    
N2    C31   1.392092 Am   
Ba1   O20   2.914204 S    
C47   C48   1.399190 A    
Ba1   O16   2.773645 S    
C43   C48   1.396442 A    
N10   O44   1.301328 A    
P5    O18   1.548294 D    
C5    H8    1.106591 S    
C34   C35   1.337628 D    
P3    O11   1.747374 S    
P2    Ba1   3.386120 S    
C42   H36   1.086678 S    
C31   O28   1.220814 D    
O2    Ba1   2.918598 S    
C2    C3    1.518895 S    
N4    O32   1.300356 A    
O6    P6    1.746473 S    
H29   C27   1.083188 S    
C9    H16   1.110697 S    
C55   C59   1.414279 A    
C12   N7    1.465898 S    
P5    C56   1.863662 S    
C14   N9    1.460601 S    
C8    H12   1.104295 S    
Ba1   Ba2   4.543354 S    
C39   C40   1.419658 A    
C17   C39   1.390307 A    
P1    O1    1.510446 D    
C4    C5    1.529071 S    
C16   H27   1.110635 S    
N11   O45   1.301380 A    
C60   H42   1.080785 S    
O3    Ba1   2.735087 S    
P2    C44   1.846584 S    
N2    C41   1.470363 S    
C49   C54   1.401649 A    
O17   Ba2   2.747501 S    
C32   C33   1.522732 S    
C14   H22   1.111188 S    
P2    O10   1.748459 S    
P1    Ba1   3.370731 S    
C4    H6    1.103441 S    
C7    H11   1.105624 S    
O4    P6    1.546464 D    
C15   H24   1.106197 S    
C1    H18   1.106043 S    
C6    H9    1.102569 S    
C1    H2    1.110132 S    
N6    O36   1.300975 A    
C55   H41   1.083005 S    
C47   H50   1.083087 S    
O12   Ba2   2.789751 S    
C18   C23   1.408042 A    
N5    O34   1.297013 A    
N5    O33   1.301827 A    
P7    O21   1.570253 D    
C3    H5    1.110962 S    
N9    O42   1.300653 A    
O19   C13   1.404245 S    
P4    O13   1.530523 S    
C35   C36   1.512672 S    
C5    H44   1.111535 S    
C37   C38   1.402462 A    
N3    O30   1.300242 A    
P5    O19   1.747252 S    
N3    O29   1.300870 A    
N8    O40   1.299643 A    
C20   C21   1.419956 A    
P5    O17   1.765738 S    
P7    O22   1.772263 S    
H25   C16   1.108878 S    
P1    O5    1.756924 S    
C22   C26   1.430152 A    
N4    O31   1.292030 A    
C12   H46   1.113515 S    
C25   C26   1.407263 A    
P3    C48   1.835246 S    
O2    Ba2   2.741954 S    
O11   C2    1.402059 S    
O16   Ba2   2.913362 S    
C10   H17   1.110678 S    
C17   C38   1.398481 A    
P7    C57   1.863518 S    
C26   C29   1.410199 A    
C18   C19   1.420458 A    
C13   H20   1.111820 S    
P8    O24   1.749986 S    
P1    O2    1.530530 S    
Ba2   O20   2.773057 S    
C15   O24   1.403909 S    
C16   H26   1.110338 S    
P8    C33   1.859520 S    
C9    H14   1.109782 S    
C35   H32   1.084709 S    
C57   C60   1.400140 A    
C57   C58   1.415781 A    
C7    N5    1.461077 S    
N7    O37   1.300690 A    
C56   C60   1.391668 A    
C30   N2    1.391016 Am   
N7    O38   1.304506 A    
C3    H19   1.109636 S    
C11   C12   1.561692 S    
C27   C28   1.401861 A    
N1    C20   1.389861 Am   
C1    H3    1.110651 S    
N6    O35   1.306366 A    
C45   C46   1.412672 A    
P2    O20   1.552751 S    
O14   Ba2   2.734579 S    
C15   H23   1.111454 S    
C3    H51   1.110703 S    
P2    O7    1.509066 D    
P6    C38   1.841367 S    
C19   O25   1.221953 D    
C19   N1    1.387837 Am   
C58   N10   1.433340 S    
P3    O8    1.744429 S    
N9    O41   1.300820 A    
O14   P8    1.751761 S    
C1    C10   1.517970 S    
O10   C8    1.392591 S    
O6    C10   1.403286 S    
C40   C41   1.422807 A    
O8    Ba1   2.746778 S    
C55   C56   1.399071 A    
C12   N8    1.466473 S    
C37   C41   1.413481 A    
C44   C45   1.407312 A    
C53   C54   1.403881 A    
C11   N6    1.462471 S    
C11   H45   1.093392 S    
C17   H35   1.081862 S    
C7    H10   1.108831 S    
C2    H48   1.113222 S    
C51   C59   1.501028 S    
C20   O26   1.220752 D    
H1    C10   1.111349 S    
C23   H49   1.083161 S    
C43   C44   1.392234 A    
C11   O22   1.407315 S    
C58   C59   1.430272 A    
P4    Ba2   3.371300 S    
C49   H38   1.081071 S    
N8    O39   1.301090 A    
C30   O27   1.221603 D    
P1    C39   1.866710 S    
Ba1   O13   2.741426 S    
C52   N11   1.437723 S    
C45   H39   1.082588 S    
C23   C24   1.400207 A    
C6    C7    1.548993 S    
C32   H33   1.085750 S    
O13   Ba2   2.919276 S    
C24   C25   1.409546 A    
C49   C50   1.395480 A    
C53   H40   1.083304 S    
H28   C28   1.083156 S    
P8    O23   1.548929 D    
C34   C42   1.314563 D    
C21   C27   1.409562 A    
P4    C34   1.841897 S    
C15   C16   1.518852 S    
C8    H13   1.110132 S    
O3    P6    1.747999 S    
C4    H7    1.110201 S    
C25   C31   1.418141 A    
C28   C29   1.409101 A    
N11   O46   1.299995 A    
C40   H34   1.081310 S    
C18   C22   1.410778 A    
O16   P7    1.805879 S    
C37   H31   1.082577 S    
C13   H47   1.110729 S    
O5    C6    1.393278 S    
C33   C42   1.508373 S    
C9    H15   1.107543 S    
C14   H21   1.111536 S    
P3    O9    1.544822 D    
C29   C30   1.422598 A    
N1    C36   1.467403 S    
P4    O15   1.751823 S    
O1    Ba1   2.788996 S    
Ba2   O21   2.821132 S    
O7    Ba1   2.820853 S    
C46   C47   1.408860 A    
C46   C54   1.489979 S    
C51   C52   1.423545 A    
