data_mof_unit_23215.cif
_audit_creation_date              2012-10-26T18:30:19-0400
_audit_creation_method            fapswitch 2.2
_symmetry_space_group_name_H-M    P1
_symmetry_Int_Tables_number       1
_space_group_crystal_system       triclinic
_cell_length_a                    10.717983
_cell_length_b                    12.972116
_cell_length_c                    11.766001
_cell_angle_alpha                 99.512783
_cell_angle_beta                  95.179131
_cell_angle_gamma                 88.486598
_cell_volume                      1606.69263843

loop_
_atom_site_label
_atom_site_type_symbol
_atom_type_description
_atom_site_fract_x
_atom_site_fract_y
_atom_site_fract_z
_atom_type_partial_charge
C1    C     C_R   0.495772 0.299189 0.480145 0.542629
C2    C     C_R   0.625667 0.465790 0.826897 0.043145
C3    C     C_R   0.563213 0.443125 0.134024 0.135671
C4    C     C_R   0.436935 0.556909 0.866093 0.139069
C5    C     C_R   0.554877 0.472270 0.019383 0.016464
C6    C     C_R   0.445283 0.527598 0.980635 0.018642
C7    C     C_R   0.259931 0.498572 0.499110 0.549183
C8    C     C_R   0.740782 0.499823 0.500633 0.547702
C9    C     C_3   0.051984 0.432310 0.568802 0.021431
C10   C     C_3   0.951273 0.563995 0.430538 0.025481
C11   C     C_3   0.958002 0.401577 0.461459 0.000605
C12   C     C_R   0.496248 0.701163 0.519763 0.547293
C13   C     C_3   0.044861 0.594669 0.537750 0.001613
C14   C     C_3   0.877970 0.499498 0.501213 0.025481
C15   C     C_3   0.124066 0.496985 0.498000 0.029249
C16   C     C_3   0.971901 0.530514 0.608347 0.004314
C17   C     C_3   0.030922 0.465972 0.391039 0.007659
C18   C     C_R   0.474787 0.814775 0.528169 -0.013310
C19   C     C_R   0.472913 0.187380 0.473310 -0.005698
C20   C     C_R   0.374984 0.031305 0.362230 0.002545
C21   C     C_R   0.446586 0.979611 0.656109 0.002295
C22   C     C_R   0.404618 0.136611 0.373514 -0.142980
C23   C     C_R   0.499177 0.134706 0.570459 0.002689
C24   C     C_R   0.460913 0.871447 0.638789 -0.143856
C25   C     C_3   0.910357 0.292361 0.412133 -0.406378
C26   C     C_3   0.097659 0.703244 0.582593 -0.401304
C27   C     C_3   0.120354 0.360930 0.646627 -0.254172
C28   C     C_3   0.031693 0.292889 0.695172 -0.456177
C29   C     C_3   0.888496 0.638138 0.353941 -0.262434
C30   C     C_3   0.981351 0.702215 0.304304 -0.449840
C31   C     C_3   0.939233 0.572263 0.730829 -0.384416
C32   C     C_3   0.063757 0.423644 0.268547 -0.383763
C33   C     C_3   0.484404 0.815749 0.307233 -0.250355
C34   C     C_R   0.454746 0.866806 0.429355 -0.005737
C35   C     C_3   0.623242 0.787234 0.299304 -0.417112
C36   C     C_3   0.588296 0.178933 0.675768 -0.261279
C37   C     C_3   0.717915 0.203045 0.643802 -0.446806
C38   C     C_3   0.275972 0.986275 0.267693 -0.284143
C39   C     C_3   0.150185 0.043451 0.281103 -0.444655
C40   C     C_3   0.407434 0.034946 0.771831 -0.283430
C41   C     C_3   0.281402 0.995713 0.797825 -0.443308
C42   C     C_3   0.343173 0.635960 0.829660 -0.349080
C43   C     C_3   0.657246 0.364409 0.170805 -0.346184
C44   C     C_3   0.217421 0.584541 0.024991 -0.435447
C45   C     C_R   0.455013 0.031590 0.560820 0.035411
C46   C     C_3   0.782331 0.414076 0.974320 -0.433387
C47   C     C_R   0.424823 0.974958 0.449302 0.036243
C48   C     C_R   0.349865 0.550495 0.058581 -0.050405
C49   C     C_R   0.650137 0.449129 0.941249 -0.050311
C50   C     C_R   0.374315 0.534126 0.173017 0.040068
Cu1   Cu    Cu3+1 0.509400 0.507730 0.615930 0.891342
Cu2   Cu    Cu3+1 0.490600 0.492270 0.384070 0.884490
H1    H     H_    0.461901 0.831862 0.713027 0.130099
H2    H     H_    0.163048 0.724153 0.522316 0.130090
H3    H     H_    0.954716 0.340545 0.734633 0.145173
H4    H     H_    0.992241 0.230878 0.626013 0.148433
H5    H     H_    0.084195 0.254341 0.762661 0.134223
H6    H     H_    0.187532 0.309569 0.596220 0.150058
H7    H     H_    0.174366 0.410368 0.719737 0.159455
H8    H     H_    0.019703 0.766500 0.371310 0.146045
H9    H     H_    0.059608 0.652962 0.269827 0.147168
H10   H     H_    0.932260 0.737982 0.232965 0.130640
H11   H     H_    0.830101 0.591552 0.281700 0.153711
H12   H     H_    0.371095 0.179689 0.305103 0.134206
H13   H     H_    0.827499 0.692486 0.407675 0.138112
H14   H     H_    0.026043 0.588407 0.788997 0.110963
H15   H     H_    0.883441 0.645606 0.731395 0.142807
H16   H     H_    0.883882 0.514245 0.762617 0.130366
H17   H     H_    0.976951 0.408554 0.210094 0.111777
H18   H     H_    0.120645 0.480463 0.236572 0.132494
H19   H     H_    0.118134 0.349603 0.268174 0.134905
H20   H     H_    0.682953 0.834433 0.370126 0.144100
H21   H     H_    0.638931 0.702932 0.300821 0.183481
H22   H     H_    0.653778 0.801884 0.215629 0.119544
H23   H     H_    0.690660 0.433727 0.765513 0.143819
H24   H     H_    0.423261 0.747877 0.273966 0.155614
H25   H     H_    0.465419 0.869338 0.243841 0.130577
H26   H     H_    0.752327 0.138083 0.579995 0.143594
H27   H     H_    0.716944 0.277095 0.608966 0.168642
H28   H     H_    0.784273 0.212549 0.722816 0.121839
H29   H     H_    0.546695 0.248248 0.727900 0.166520
H30   H     H_    0.607454 0.121495 0.735137 0.134579
H31   H     H_    0.119555 0.041848 0.368538 0.152206
H32   H     H_    0.156769 0.125874 0.267971 0.140071
H33   H     H_    0.078260 0.004201 0.215469 0.130459
H34   H     H_    0.309427 0.566553 0.234450 0.139594
H35   H     H_    0.307634 0.991904 0.181561 0.131178
H36   H     H_    0.258547 0.902853 0.270946 0.139489
H37   H     H_    0.208560 0.004920 0.726666 0.154542
H38   H     H_    0.288078 0.912273 0.808654 0.137705
H39   H     H_    0.252327 0.042065 0.879408 0.131090
H40   H     H_    0.480117 0.022303 0.841882 0.131217
H41   H     H_    0.395625 0.120295 0.772719 0.145033
H42   H     H_    0.367075 0.663780 0.751363 0.182257
H43   H     H_    0.248992 0.601809 0.808710 0.111444
H44   H     H_    0.344415 0.707023 0.896577 0.082085
H45   H     H_    0.990896 0.237263 0.400673 0.126636
H46   H     H_    0.656122 0.293228 0.104101 0.085398
H47   H     H_    0.751359 0.398805 0.191686 0.110263
H48   H     H_    0.633375 0.336523 0.249120 0.189818
H49   H     H_    0.153839 0.578650 0.092789 0.102584
H50   H     H_    0.212826 0.667536 0.013573 0.126218
H51   H     H_    0.177651 0.531461 0.947252 0.134517
H52   H     H_    0.786099 0.331118 0.985814 0.127525
H53   H     H_    0.845691 0.419064 0.906094 0.102130
H54   H     H_    0.823041 0.466960 0.051800 0.133764
H55   H     H_    0.848226 0.265853 0.470773 0.119805
H56   H     H_    0.856924 0.292840 0.327180 0.124692
H57   H     H_    0.019908 0.761434 0.590975 0.125741
H58   H     H_    0.149468 0.704399 0.668525 0.121794
N1    N     N_R   0.523540 0.519360 0.790140 -0.240844
N2    N     N_R   0.476460 0.480640 0.209860 -0.242257
O1    O     O_R   0.506670 0.354460 0.582000 -0.508500
O2    O     O_R   0.493330 0.645540 0.418000 -0.509831
O3    O     O_R   0.490800 0.341410 0.386200 -0.518730
O4    O     O_R   0.509200 0.658590 0.613800 -0.515856
O5    O     O_R   0.324790 0.506500 0.597880 -0.514801
O6    O     O_R   0.675210 0.493500 0.402120 -0.515394
O7    O     O_R   0.308910 0.493440 0.402080 -0.521102
O8    O     O_R   0.691090 0.506560 0.597920 -0.519723

loop_
_geom_bond_atom_site_label_1
_geom_bond_atom_site_label_2
_ccdc_geom_bond_type
C31   H14   S    
C41   H37   S    
C29   H11   S    
C35   H22   S    
C23   C45   A    
C7    O5    A    
C43   H46   S    
C40   H41   S    
C28   H4    S    
C8    O6    A    
C28   H5    S    
C16   C31   S    
C31   H15   S    
C37   H27   S    
C46   C49   S    
C3    C43   S    
Cu1   O1    S    
C6    C48   A    
C42   H44   S    
C36   C37   S    
C9    C16   S    
C43   H47   S    
C39   H32   S    
C38   C39   S    
C11   C14   S    
Cu2   N2    S    
C10   C17   S    
C46   H53   S    
C45   C47   A    
C33   C35   S    
C28   H3    S    
C11   C17   S    
C36   H30   S    
C30   H8    S    
C8    C14   S    
C18   C24   A    
C36   H29   S    
C21   C45   A    
C48   C50   A    
C41   H38   S    
C5    C49   A    
C1    O1    A    
C26   H2    S    
C44   H51   S    
C33   C34   S    
C32   H19   S    
C12   O2    A    
C18   C34   A    
C31   H16   S    
C37   H28   S    
C2    N1    A    
C1    C19   S    
C42   H43   S    
C7    O7    A    
C19   C22   A    
C43   H48   S    
C4    C6    A    
C10   C14   S    
C44   H50   S    
C32   H18   S    
C24   H1    S    
C46   H52   S    
C27   H6    S    
Cu1   Cu2   S    
C38   H36   S    
C19   C23   A    
C29   C30   S    
C2    C49   A    
C20   C38   S    
C33   H24   S    
C3    N2    A    
C50   N2    A    
Cu1   O8    S    
C21   C24   A    
C40   H40   S    
C9    C11   S    
C26   H57   S    
C29   H13   S    
C25   H45   S    
C40   C41   S    
C41   H39   S    
C4    N1    A    
C20   C22   A    
C35   H20   S    
C30   H10   S    
C14   C16   S    
C13   C26   S    
C13   C16   S    
C39   H33   S    
C9    C27   S    
Cu2   O3    S    
C15   C17   S    
C8    O8    A    
C26   H58   S    
C35   H21   S    
Cu1   N1    S    
C42   H42   S    
C3    C5    A    
C10   C13   S    
C44   H49   S    
C32   H17   S    
Cu2   O2    S    
C37   H26   S    
Cu1   O4    S    
C38   H35   S    
C13   C15   S    
C9    C15   S    
C39   H31   S    
C27   H7    S    
C10   C29   S    
C33   H25   S    
C5    C6    A    
C21   C40   S    
C4    C42   S    
C46   H54   S    
C7    C15   S    
Cu1   O5    S    
C20   C47   A    
C50   H34   S    
C22   H12   S    
Cu2   O7    S    
C23   C36   S    
C30   H9    S    
C12   C18   S    
C27   C28   S    
C17   C32   S    
C11   C25   S    
C34   C47   A    
C1    O3    A    
C25   H55   S    
C2    H23   S    
C44   C48   S    
C25   H56   S    
C12   O4    A    
Cu2   O6    S    
