data_mof_unit_32165.cif
_audit_creation_date              2012-12-10T20:46:51-0500
_audit_creation_method            fapswitch 2.2
_symmetry_space_group_name_H-M    P1
_symmetry_Int_Tables_number       1
_space_group_crystal_system       triclinic
_cell_length_a                    12.923542
_cell_length_b                    8.927449
_cell_length_c                    8.088403
_cell_angle_alpha                 89.998792
_cell_angle_beta                  96.061194
_cell_angle_gamma                 89.997391
_cell_volume                      927.976683399

loop_
_atom_site_label
_atom_site_type_symbol
_atom_type_description
_atom_site_fract_x
_atom_site_fract_y
_atom_site_fract_z
_atom_type_partial_charge
C1    C     C_R   0.500000 0.217929 0.500001 0.907942
C2    C     C_R   0.867782 0.468279 0.704755 -0.296104
C3    C     C_R   0.135429 0.442254 0.596666 0.436449
C4    C     C_R   0.864578 0.442226 0.403345 0.436478
C5    C     C_R   0.027623 0.444987 0.580311 0.019683
C6    C     C_R   0.972382 0.444979 0.419704 0.019665
C7    C     C_1   0.500000 0.065207 0.500001 -0.205743
C8    C     C_1   0.500000 0.934837 0.499998 -0.201333
C9    C     C_3   0.775218 0.278824 0.220657 0.133697
C10   C     C_3   0.853017 0.185869 0.133253 -0.424999
C11   C     C_3   0.809506 0.031017 0.085927 -0.899361
C12   C     C_R   0.500000 0.782079 0.499999 0.947635
C13   C     C_3   0.224772 0.278866 0.779422 0.133674
C14   C     C_3   0.147061 0.186096 0.867210 -0.424910
C15   C     C_3   0.190564 0.031257 0.914666 -0.899392
C16   C     C_R   0.297870 0.492056 0.469715 0.897375
C17   C     C_R   0.702131 0.492051 0.530286 0.897328
C18   C     C_R   0.812902 0.467405 0.546181 -0.171139
C19   C     C_R   0.187100 0.467420 0.453824 -0.171095
C20   C     C_R   0.025580 0.453190 0.278020 -0.203858
C21   C     C_R   0.974423 0.453197 0.721994 -0.203876
C22   C     C_R   0.132219 0.468291 0.295255 -0.296182
H1    H     H_    0.700615 0.283670 0.138806 0.182401
H2    H     H_    0.128900 0.245171 0.981625 0.230268
H3    H     H_    0.073846 0.172178 0.783549 0.224340
H4    H     H_    0.208492 0.969345 0.801989 0.267593
H5    H     H_    0.132080 0.966523 0.976298 0.268168
H6    H     H_    0.262464 0.041400 0.002237 0.265325
H7    H     H_    0.828555 0.482603 0.815671 0.204051
H8    H     H_    0.171443 0.482629 0.184339 0.204025
H9    H     H_    0.984893 0.456115 0.153994 0.185843
H10   H     H_    0.015109 0.456137 0.846019 0.185832
H11   H     H_    0.757590 0.221634 0.337311 0.107660
H12   H     H_    0.871319 0.244786 0.018817 0.230259
H13   H     H_    0.926150 0.171991 0.217128 0.224351
H14   H     H_    0.791397 0.969291 0.198623 0.267570
H15   H     H_    0.868061 0.966118 0.024633 0.268191
H16   H     H_    0.737717 0.041114 0.998107 0.265323
H17   H     H_    0.299458 0.283721 0.861056 0.182448
H18   H     H_    0.242235 0.221524 0.662764 0.107581
N1    N     N_1   0.500020 0.500000 0.073640 -0.036967
N2    N     N_1   0.499980 0.500000 0.926360 -0.036980
O1    O     O_R   0.499990 0.285340 0.636850 -0.633611
O2    O     O_3   0.189020 0.428211 0.754031 -0.643838
O3    O     O_R   0.500010 0.714660 0.363150 -0.612102
O4    O     O_R   0.500010 0.285340 0.363150 -0.633602
O5    O     O_R   0.499990 0.714660 0.636850 -0.612100
O6    O     O_R   0.346350 0.500000 0.614250 -0.584444
O7    O     O_R   0.653650 0.500000 0.385750 -0.584442
O8    O     O_R   0.346360 0.500000 0.340500 -0.627600
O9    O     O_R   0.653640 0.500000 0.659500 -0.627601
O10   O     O_3   0.810992 0.428160 0.245979 -0.643854
Zn1   Zn    Zn3+2 0.499990 0.500000 0.682780 0.986984
Zn2   Zn    Zn3+2 0.500010 0.500000 0.317220 0.986994

loop_
_geom_bond_atom_site_label_1
_geom_bond_atom_site_label_2
_ccdc_geom_bond_type
C11   H16   S    
C3    C19   A    
C10   H13   S    
C2    C18   A    
C6    C20   A    
C9    C10   S    
C15   H5    S    
O4    Zn2   S    
O5    Zn1   S    
C8    C12   S    
C4    C18   A    
C17   O9    A    
C2    C21   A    
O1    Zn1   S    
C17   C18   S    
C5    C21   A    
C7    C8    T    
C10   H12   S    
C13   C14   S    
C9    H11   S    
N1    Zn2   S    
C16   O6    A    
C15   H6    S    
O8    Zn2   S    
C9    O10   S    
C4    O10   S    
C12   O5    A    
C5    C6    A    
C11   H14   S    
C16   O8    A    
O3    Zn2   S    
C16   C19   S    
C14   H3    S    
O6    Zn1   S    
C1    O4    A    
C21   H10   S    
C3    O2    S    
C13   H17   S    
C10   C11   S    
N2    Zn1   S    
C17   O7    A    
O7    Zn2   S    
C3    C5    A    
C19   C22   A    
C2    H7    S    
C4    C6    A    
N1    N2    T    
C14   H2    S    
C11   H15   S    
C14   C15   S    
C9    H1    S    
C13   H18   S    
C22   H8    S    
O9    Zn1   S    
C1    C7    S    
C1    O1    A    
C13   O2    S    
C20   C22   A    
C12   O3    A    
C15   H4    S    
C20   H9    S    
