data_mof_unit_37751.cif
_audit_creation_date              2012-12-10T17:16:35-0500
_audit_creation_method            fapswitch 2.2
_symmetry_space_group_name_H-M    P1
_symmetry_Int_Tables_number       1
_space_group_crystal_system       triclinic
_cell_length_a                    10.182832
_cell_length_b                    10.638409
_cell_length_c                    10.892706
_cell_angle_alpha                 89.108184
_cell_angle_beta                  95.273155
_cell_angle_gamma                 77.689751
_cell_volume                      1147.23724521

loop_
_atom_site_label
_atom_site_type_symbol
_atom_type_description
_atom_site_fract_x
_atom_site_fract_y
_atom_site_fract_z
_atom_type_partial_charge
Br1   Br    Br    0.137788 0.207214 0.836803 -0.177888
Br2   Br    Br    0.859194 0.798979 0.155779 -0.182860
Br3   Br    Br    0.986303 0.023257 0.313611 -0.313422
Br4   Br    Br    0.004619 0.992310 0.672327 -0.327286
Br5   Br    Br    0.545516 0.773047 0.199285 -0.403809
Br6   Br    Br    0.455825 0.224526 0.800143 -0.405633
Br7   Br    Br    0.880940 0.385116 0.292180 -0.192679
Br8   Br    Br    0.110327 0.654185 0.686324 -0.211873
C1    C     C_R   0.443522 0.504630 0.267730 0.829420
C2    C     C_R   0.491659 0.742465 0.487221 0.903466
C3    C     C_R   0.741297 0.059508 0.430939 -0.178270
C4    C     C_R   0.256505 0.943527 0.563658 -0.172035
C5    C     C_R   0.816439 0.985817 0.346256 0.233863
C6    C     C_R   0.180038 0.019970 0.646229 0.242363
C7    C     C_R   0.763950 0.891253 0.283074 0.241902
C8    C     C_R   0.234227 0.112238 0.711579 0.244848
C9    C     C_R   0.641483 0.864481 0.313667 0.181370
C10   C     C_R   0.358923 0.135550 0.684035 0.182329
C11   C     C_R   0.576805 0.926053 0.413341 -0.025344
C12   C     C_R   0.556463 0.495051 0.732302 0.830365
C13   C     C_R   0.423776 0.073618 0.584814 -0.022124
C14   C     C_R   0.615591 0.035866 0.459240 -0.005005
C15   C     C_R   0.384096 0.964675 0.538035 -0.006847
C16   C     C_R   0.473847 0.881623 0.467567 -0.079053
C17   C     C_R   0.526306 0.118254 0.530602 -0.076585
C18   C     C_2   0.410240 0.509076 0.136233 0.529441
C19   C     C_2   0.589573 0.489813 0.863847 0.534292
C20   C     C_2   0.512129 0.488714 0.065359 -0.184379
C21   C     C_2   0.487541 0.508682 0.934611 -0.188350
C22   C     C_2   0.076205 0.486590 0.494509 0.598395
C23   C     C_2   0.929209 0.496458 0.519047 0.595409
C24   C     C_R   0.508277 0.257489 0.512096 0.905266
F1    F     F_    0.721069 0.458386 0.912145 -0.550780
F2    F     F_    0.278743 0.541473 0.088041 -0.557265
F3    F     F_    0.883469 0.555243 0.621148 -0.586458
F4    F     F_    0.129946 0.402704 0.410632 -0.601574
H1    H     H_    0.786592 0.130431 0.478149 0.231799
H2    H     H_    0.211176 0.873185 0.515290 0.228929
H3    H     H_    0.382935 0.535626 0.895214 0.239637
H4    H     H_    0.616651 0.461005 0.104681 0.239481
N1    N     N_2   0.157300 0.551390 0.551120 -0.049894
N2    N     N_2   0.842700 0.448610 0.448880 -0.052199
O1    O     O_R   0.568940 0.489660 0.307530 -0.629072
O2    O     O_R   0.431060 0.510340 0.692470 -0.631896
O3    O     O_R   0.348880 0.522640 0.340350 -0.520910
O4    O     O_R   0.651120 0.477360 0.659650 -0.507173
O5    O     O_R   0.610030 0.300280 0.483580 -0.634898
O6    O     O_R   0.389970 0.699720 0.516420 -0.630040
O7    O     O_R   0.389970 0.333270 0.516400 -0.551623
O8    O     O_R   0.610030 0.666730 0.483600 -0.568928
Zn1   Zn    Zn3+2 0.646940 0.477980 0.478080 1.116153
Zn2   Zn    Zn3+2 0.353060 0.522020 0.521920 1.117422

loop_
_geom_bond_atom_site_label_1
_geom_bond_atom_site_label_2
_ccdc_geom_bond_type
C15   C16   A    
C22   N1    D    
C1    O3    A    
C12   C19   S    
C19   C21   D    
C10   C13   A    
N1    Zn2   S    
C18   C20   D    
Br3   C5    S    
C22   F4    S    
N2    Zn1   S    
O7    Zn2   S    
O1    Zn1   S    
C21   H3    S    
C17   C24   S    
C5    C7    A    
C11   C16   A    
Br1   C8    S    
C19   F1    S    
C2    O6    A    
Br2   C7    S    
C3    C5    A    
C4    C15   A    
O2    Zn2   S    
C20   C21   S    
C23   N2    D    
C4    C6    A    
C1    C18   S    
O8    Zn1   S    
C6    C8    A    
C13   C15   A    
Br4   C6    S    
C22   C23   S    
Br6   C10   S    
C24   O5    A    
C23   F3    S    
C24   O7    A    
C1    O1    A    
C12   O2    A    
Br5   C9    S    
C20   H4    S    
C2    O8    A    
C4    H2    S    
O6    Zn2   S    
C11   C14   A    
Br8   N1    S    
C8    C10   A    
Br7   N2    S    
C3    H1    S    
C13   C17   A    
C2    C16   S    
O5    Zn1   S    
C3    C14   A    
O3    Zn2   S    
C9    C11   A    
C7    C9    A    
O4    Zn1   S    
C18   F2    S    
C12   O4    A    
C14   C17   A    
