data_mof_unit_39555.cif
_audit_creation_date              2013-03-05T16:23:21-0500
_audit_creation_method            fapswitch 2.2
_symmetry_space_group_name_H-M    P1
_symmetry_Int_Tables_number       1
_space_group_crystal_system       triclinic
_cell_length_a                    27.4499
_cell_length_b                    10.699769
_cell_length_c                    9.783906
_cell_angle_alpha                 90.753405
_cell_angle_beta                  90.697466
_cell_angle_gamma                 91.769465
_cell_volume                      2871.76139947

loop_
_atom_site_label
_atom_site_type_symbol
_atom_site_description
_atom_site_fract_x
_atom_site_fract_y
_atom_site_fract_z
_atom_type_partial_charge
O1    O     O_R   0.500000 0.313960 0.616610 -0.587045
O2    O     O_R   0.500000 0.686040 0.383390 -0.621330
O3    O     O_R   0.500020 0.313950 0.383350 -0.579488
O4    O     O_R   0.499980 0.686050 0.616650 -0.553792
C1    C     C_R   0.501231 0.258207 0.499942 1.046310
C2    C     C_R   0.500108 0.742089 0.501560 1.044128
O5    O     O_R   0.428750 0.500030 0.616610 -0.606152
O6    O     O_R   0.571250 0.499970 0.383390 -0.591498
O7    O     O_R   0.428770 0.500020 0.383360 -0.563726
O8    O     O_R   0.571230 0.499980 0.616640 -0.570229
C3    C     C_R   0.405939 0.497486 0.499212 1.008274
C4    C     C_R   0.594077 0.506651 0.499851 0.984203
Zn1   Zn    Zn3+2 0.499990 0.500010 0.655740 1.111081
Zn2   Zn    Zn3+2 0.500010 0.499990 0.344260 1.095290
C5    C     C_R   0.168340 0.419572 0.509857 0.583148
C6    C     C_R   0.827610 0.680319 0.498654 0.588430
O9    O     O_2   0.186083 0.321125 0.576931 -0.454271
O10   O     O_2   0.807221 0.776869 0.563978 -0.434561
N1    N     N_R   0.199140 0.516497 0.477161 -0.341595
N2    N     N_R   0.799560 0.575805 0.468808 -0.348303
C7    C     C_R   0.182585 0.623314 0.420505 0.571642
C8    C     C_R   0.818014 0.472656 0.407188 0.565460
C9    C     C_R   0.277649 0.586512 0.576780 -0.098363
C10   C     C_R   0.728026 0.496592 0.590628 -0.092000
C11   C     C_R   0.328398 0.585447 0.578122 0.248020
C12   C     C_R   0.677844 0.470614 0.591079 0.289401
C13   C     C_R   0.324671 0.405187 0.418951 0.272552
C14   C     C_R   0.668247 0.612488 0.397881 0.276422
C15   C     C_R   0.273884 0.412640 0.416677 -0.122879
C16   C     C_R   0.718606 0.634003 0.399029 -0.105328
C17   C     C_R   0.250593 0.503005 0.493473 0.160461
C18   C     C_R   0.748340 0.575707 0.492958 0.158084
C19   C     C_R   0.100169 0.538848 0.431511 -0.070940
C20   C     C_R   0.897790 0.574704 0.411397 -0.077422
C21   C     C_R   0.118630 0.423530 0.474957 -0.157465
C22   C     C_R   0.877476 0.684910 0.465003 -0.157331
C23   C     C_R   0.086703 0.317681 0.484818 0.353409
C24   C     C_R   0.908312 0.792334 0.488718 0.340233
C25   C     C_R   0.131950 0.642972 0.409670 -0.080452
C26   C     C_R   0.867824 0.469098 0.376594 -0.079616
C27   C     C_R   0.352504 0.495424 0.498033 -0.263073
C28   C     C_R   0.647159 0.530968 0.497069 -0.262147
H1    H     H_    0.251800 0.348610 0.353529 0.208374
H2    H     H_    0.735395 0.691794 0.321448 0.202289
C29   C     C_R   0.969345 0.451916 0.371896 0.018920
C30   C     C_R   0.029686 0.667555 0.391399 0.020789
C31   C     C_R   0.978791 0.676742 0.412991 0.019482
C32   C     C_R   0.018971 0.441088 0.408018 0.019581
C33   C     C_R   0.948506 0.568500 0.396211 0.093309
C34   C     C_R   0.049748 0.549264 0.409647 0.095419
C35   C     C_R   0.939840 0.352190 0.315977 -0.121781
C36   C     C_R   0.060988 0.770471 0.358113 -0.124878
C37   C     C_R   0.888679 0.363851 0.312697 -0.084596
C38   C     C_R   0.112283 0.758956 0.369686 -0.127681
O11   O     O_2   0.788073 0.372785 0.379728 -0.487448
O12   O     O_2   0.215388 0.707022 0.371186 -0.500224
C39   C     C_R   0.037603 0.327598 0.451254 -0.201987
C40   C     C_R   0.958138 0.786866 0.461992 -0.203961
H3    H     H_    0.751960 0.445843 0.657374 0.202074
H4    H     H_    0.259054 0.657206 0.634754 0.206726
H5    H     H_    0.013930 0.245678 0.462012 0.199678
H6    H     H_    0.980902 0.868393 0.487089 0.195230
C41   C     C_3   0.528504 0.045690 0.611661 -0.286068
C42   C     C_3   0.474118 0.955370 0.397901 -0.273779
C43   C     C_3   0.546471 0.960352 0.495999 0.191834
C44   C     C_3   0.456356 0.040314 0.514831 0.194639
C45   C     C_3   0.500213 0.876255 0.506387 -0.300068
C46   C     C_3   0.502521 0.124477 0.502595 -0.314372
C47   C     C_3   0.482147 0.962234 0.621813 0.230329
C48   C     C_3   0.520930 0.038821 0.387954 0.224453
C49   C     C_3   0.460991 0.450759 0.043977 0.336015
C50   C     C_3   0.539129 0.549625 0.955186 0.373398
C51   C     C_3   0.496091 0.386708 0.949012 -0.150562
C52   C     C_3   0.503987 0.613545 0.050801 -0.124681
H7    H     H_    0.490461 0.292115 0.902761 0.235168
H8    H     H_    0.508152 0.708433 0.097585 0.221948
N3    N     N_3   0.499960 0.500030 0.863290 -0.151940
N4    N     N_3   0.500040 0.499970 0.136710 -0.155543
C53   C     C_3   0.463950 0.562803 0.950449 -0.135239
C54   C     C_3   0.536240 0.437284 0.049266 -0.157088
H9    H     H_    0.432390 0.610320 0.905012 0.236455
H10   H     H_    0.567048 0.386904 0.095029 0.223887
N5    N     N_R   0.346226 0.305308 0.341753 0.276796
O13   O     O_R   0.391154 0.274997 0.361689 -0.342081
O14   O     O_R   0.319747 0.237654 0.255836 -0.258392
N6    N     N_R   0.640499 0.667443 0.289187 0.243013
O15   O     O_R   0.599119 0.718764 0.312540 -0.340146
O16   O     O_R   0.660026 0.682563 0.169770 -0.276225
C55   C     C_2   0.558388 0.081430 0.737027 1.124596
O17   O     O_2   0.576496 0.999410 0.804955 -0.470527
O18   O     O_R   0.564314 0.206152 0.778471 -0.752441
H11   H     H_    0.584462 0.216755 0.865637 0.375223
C56   C     C_2   0.442641 0.905529 0.281432 1.085461
O19   O     O_2   0.448711 0.944590 0.165934 -0.505030
O20   O     O_R   0.406247 0.814807 0.306225 -0.727709
H12   H     H_    0.387730 0.787569 0.220074 0.374398
N7    N     N_R   0.460378 0.933249 0.753853 0.281617
O21   O     O_R   0.447490 0.024142 0.833827 -0.268025
O22   O     O_R   0.458937 0.820130 0.799939 -0.307331
N8    N     N_R   0.544498 0.078501 0.262076 0.268323
O23   O     O_R   0.548994 0.997690 0.162942 -0.261829
O24   O     O_R   0.572417 0.178925 0.263610 -0.336010
N9    N     N_R   0.415696 0.395886 0.093757 0.248354
O25   O     O_R   0.406246 0.277286 0.072758 -0.246239
O26   O     O_R   0.380332 0.468945 0.124400 -0.346730
N10   N     N_R   0.583103 0.607626 0.899985 0.246895
O27   O     O_R   0.580646 0.711605 0.833444 -0.255377
O28   O     O_R   0.625049 0.557029 0.918842 -0.288976
N11   N     N_R   0.104220 0.196160 0.513053 0.271368
O29   O     O_R   0.135653 0.148309 0.430849 -0.306045
O30   O     O_R   0.081266 0.123863 0.598450 -0.313265
N12   N     N_R   0.890091 0.908928 0.536859 0.259611
O31   O     O_R   0.857878 0.965973 0.464126 -0.237526
O32   O     O_R   0.912882 0.970210 0.635347 -0.321260
N13   N     N_R   0.659825 0.367978 0.670442 0.241496
O33   O     O_R   0.677736 0.349596 0.792018 -0.286813
O34   O     O_R   0.635729 0.276843 0.608420 -0.339818
N14   N     N_R   0.354881 0.681776 0.653873 0.235670
O35   O     O_R   0.339548 0.718005 0.772881 -0.300866
O36   O     O_R   0.388451 0.748692 0.593903 -0.331277
C57   C     C_2   0.858000 0.275410 0.228389 1.059685
O37   O     O_2   0.840512 0.310369 0.120414 -0.560392
O38   O     O_R   0.848077 0.154281 0.273819 -0.657283
H13   H     H_    0.826436 0.103601 0.207625 0.381060
C58   C     C_2   0.144900 0.869077 0.344188 1.119881
O39   O     O_2   0.145872 0.916396 0.231116 -0.540619
O40   O     O_R   0.175672 0.915610 0.449255 -0.681578
H14   H     H_    0.199698 0.982352 0.416782 0.401240
C59   C     C_2   0.962675 0.246294 0.242950 0.913441
O41   O     O_2   0.947239 0.139088 0.258264 -0.569431
O42   O     O_R   0.002694 0.269717 0.158912 -0.750545
H15   H     H_    0.015564 0.190519 0.116519 0.372633
C60   C     C_2   0.040271 0.881756 0.291609 0.951597
O43   O     O_2   0.052941 0.987443 0.328711 -0.559108
O44   O     O_R   0.005460 0.864319 0.187013 -0.745620
H16   H     H_    0.994348 0.946072 0.148004 0.379637
N15   N     N_R   0.596497 0.918880 0.490618 0.257849
O45   O     O_R   0.627012 0.968953 0.405035 -0.228270
O46   O     O_R   0.612322 0.842383 0.582029 -0.304141
N16   N     N_R   0.406849 0.082140 0.534412 0.271510
O47   O     O_R   0.370588 0.028441 0.467319 -0.242374
O48   O     O_R   0.398090 0.163729 0.630013 -0.307695

loop_
_geom_bond_atom_site_label_1
_geom_bond_atom_site_label_2
_geom_bond_distance
_ccdc_geom_bond_type
C40   H6    1.081052 S    
C44   C46   1.538566 S    
C41   C43   1.540053 S    
C56   O19   1.221513 D    
C13   C15   1.398763 A    
C32   C39   1.400596 A    
O20   H12   1.013774 S    
N1    C17   1.431359 S    
C11   N14   1.435490 S    
N12   O32   1.301237 A    
N7    O21   1.300462 A    
C35   C59   1.490196 S    
O38   H13   1.013847 S    
C31   C33   1.411245 A    
C5    N1    1.361555 A    
N15   O46   1.300100 A    
C19   C25   1.413750 A    
C52   H8    1.110267 S    
O1    C1    1.282281 A    
N1    C7    1.364793 A    
N16   O48   1.300674 A    
C42   C56   1.503678 S    
N11   O30   1.301235 A    
N4    C54   1.488628 S    
C25   C38   1.426033 A    
N10   O27   1.299533 A    
C29   C35   1.419283 A    
C43   C48   1.534787 S    
C30   C36   1.419417 A    
O4    Zn1   2.031932 S    
N14   O35   1.301266 A    
C4    C28   1.472841 S    
C24   C40   1.398465 A    
C41   C47   1.536789 S    
C48   N8    1.460061 S    
N13   O34   1.300547 A    
C42   C48   1.546733 S    
C55   O18   1.393750 S    
C23   N11   1.429324 S    
O6    C4    1.293752 A    
C43   N15   1.457470 S    
C32   C34   1.411567 A    
C56   O20   1.396901 S    
C15   H1    1.082890 S    
C36   C60   1.489218 S    
C51   H7    1.108890 S    
C16   H2    1.083598 S    
O2    C2    1.295360 A    
C1    C46   1.432973 S    
C5    C21   1.404594 A    
N12   O31   1.300096 A    
N7    O22   1.296782 A    
C36   C38   1.420484 A    
C30   C34   1.408446 A    
N3    C53   1.483870 S    
C9    H4    1.083522 S    
C38   C58   1.483293 S    
Zn1   N3    2.030656 S    
N6    O16   1.301304 A    
C42   C45   1.548828 S    
O44   H16   1.013063 S    
N16   O47   1.300246 A    
C54   H10   1.109730 S    
C11   C27   1.418390 A    
O18   H11   1.013979 S    
C49   C51   1.518904 S    
N6    O15   1.298274 A    
C43   C45   1.538606 S    
C19   C34   1.405963 A    
C49   C53   1.518490 S    
C50   C54   1.524277 S    
C45   C47   1.543402 S    
C42   C44   1.544722 S    
O5    C3    1.301054 A    
O7    Zn2   1.997169 S    
C10   C18   1.394897 A    
C50   N3    1.474691 S    
C13   C27   1.426538 A    
N5    O13   1.297946 A    
C7    C25   1.415068 A    
C29   C33   1.406925 A    
C6    N2    1.364337 A    
C8    C26   1.404788 A    
C41   C55   1.505792 S    
N8    O24   1.300229 A    
N9    O26   1.300419 A    
C58   O40   1.399128 S    
O7    C3    1.302061 A    
C57   O37   1.222911 D    
O3    Zn2   2.031934 S    
O8    C4    1.311832 A    
C50   C52   1.522940 S    
C2    C45   1.435612 S    
N5    O14   1.302127 A    
C50   N10   1.453369 S    
C52   C53   1.545801 S    
C14   N6    1.442645 S    
C58   O39   1.222921 D    
C20   C26   1.412436 A    
O4    C2    1.282651 A    
O1    Zn1   2.022232 S    
C24   N12   1.434279 S    
O40   H14   1.013829 S    
C22   C24   1.421109 A    
C12   C28   1.415222 A    
C53   H9    1.109220 S    
C59   O41   1.222228 D    
N2    C18   1.428521 S    
C29   C32   1.411768 A    
C12   N13   1.432413 S    
C5    O9    1.348898 S    
C49   N9    1.450874 S    
C30   C31   1.421698 A    
C20   C33   1.405361 A    
O6    Zn2   1.988085 S    
C21   C23   1.415520 A    
C10   C12   1.396890 A    
N2    C8    1.364780 A    
O3    C1    1.294715 A    
O8    Zn1   1.997172 S    
C7    O12   1.348328 S    
C39   H5    1.081916 S    
C8    O11   1.349960 S    
N15   O45   1.300365 A    
C41   C46   1.549285 S    
C13   N5    1.446157 S    
C14   C16   1.394219 A    
C15   C17   1.392454 A    
C37   C57   1.482695 S    
N11   O29   1.298786 A    
C6    C22   1.411295 A    
C31   C40   1.404507 A    
C16   C18   1.388545 A    
C60   O43   1.222028 D    
N10   O28   1.299544 A    
C10   H3    1.083429 S    
C14   C28   1.429142 A    
N8    O23   1.300396 A    
C19   C21   1.416726 A    
C51   C54   1.546750 S    
C3    C27   1.466164 S    
C20   C22   1.417019 A    
Zn2   N4    2.030657 S    
O42   H15   1.013770 S    
O2    Zn2   2.022230 S    
N14   O36   1.299797 A    
C57   O38   1.395643 S    
C44   C47   1.528468 S    
O5    Zn1   1.988080 S    
C9    C11   1.393354 A    
C44   N16   1.457889 S    
C6    O10   1.347580 S    
C26   C37   1.420095 A    
C52   N4    1.488609 S    
N9    O25   1.300520 A    
C60   O44   1.398331 S    
C46   C48   1.539070 S    
C51   N3    1.485205 S    
C35   C37   1.413753 A    
C55   O17   1.221958 D    
C49   N4    1.475894 S    
C23   C39   1.390919 A    
N13   O33   1.301213 A    
C9    C17   1.392623 A    
C59   O42   1.398581 S    
C47   N7    1.462889 S    
