data_mof_unit_22915.cif
_audit_creation_date              2012-12-10T17:57:52-0500
_audit_creation_method            fapswitch 2.2
_symmetry_space_group_name_H-M    P1
_symmetry_Int_Tables_number       1
_space_group_crystal_system       triclinic
_cell_length_a                    10.80664
_cell_length_b                    9.519653
_cell_length_c                    15.049187
_cell_angle_alpha                 90.244422
_cell_angle_beta                  89.019055
_cell_angle_gamma                 90.106302
_cell_volume                      1547.94863745

loop_
_atom_site_label
_atom_site_type_symbol
_atom_type_description
_atom_site_fract_x
_atom_site_fract_y
_atom_site_fract_z
_atom_type_partial_charge
C1    C     C_R   0.262087 0.499932 0.500176 0.783026
C2    C     C_R   0.737839 0.500185 0.501705 0.777524
C3    C     C_R   0.297855 0.597094 0.057332 -0.302912
C4    C     C_R   0.715689 0.438535 0.941337 -0.293398
C5    C     C_R   0.063364 0.376097 0.520612 -0.201803
C6    C     C_R   0.936545 0.625330 0.486085 -0.194358
C7    C     C_R   0.935341 0.376567 0.522117 -0.208331
C8    C     C_R   0.064482 0.624788 0.484388 -0.207227
C9    C     C_R   0.871615 0.500857 0.503934 -0.006097
C10   C     C_R   0.128248 0.500054 0.501353 -0.013563
C11   C     C_R   0.421692 0.073888 0.446852 -0.026699
C12   C     C_R   0.578253 0.926101 0.553190 -0.030906
C13   C     C_R   0.578274 0.074923 0.553177 -0.023088
C14   C     C_R   0.421670 0.925066 0.446866 -0.025270
C15   C     C_R   0.506859 0.499692 0.328982 0.803056
C16   C     C_R   0.494593 0.500393 0.670881 0.803743
C17   C     C_R   0.599216 0.469435 0.809540 -0.244931
C18   C     C_R   0.409037 0.548038 0.189523 -0.241640
C19   C     C_R   0.490242 0.502034 0.767261 -0.082886
C20   C     C_R   0.513209 0.499706 0.232245 -0.085082
C21   C     C_R   0.381734 0.538830 0.815901 0.029977
C22   C     C_R   0.620475 0.457154 0.183566 0.025818
C23   C     C_R   0.388598 0.552207 0.910496 -0.003030
C24   C     C_R   0.621264 0.469765 0.088595 -0.001359
C25   C     C_R   0.501030 0.513015 0.952692 -0.028899
C26   C     C_R   0.509579 0.511796 0.046382 -0.027900
C27   C     C_R   0.604900 0.472533 0.901295 0.069598
C28   C     C_R   0.405375 0.551554 0.097686 0.073516
C29   C     C_R   0.289448 0.604417 0.964805 0.476853
C30   C     C_R   0.728020 0.443871 0.033643 0.471290
Cu1   Cu    Cu3+1 0.500000 0.640660 0.500000 0.926617
Cu2   Cu    Cu3+1 0.500000 0.359340 0.500000 0.930911
H1    H     H_    0.680638 0.441345 0.770049 0.130048
H2    H     H_    0.328705 0.580683 0.228751 0.129577
H3    H     H_    0.219160 0.628102 0.098391 0.141086
H4    H     H_    0.794513 0.408221 0.900149 0.150696
H5    H     H_    0.111310 0.279107 0.534740 0.150061
H6    H     H_    0.888738 0.722333 0.471775 0.149130
H7    H     H_    0.886465 0.279732 0.536801 0.145906
H8    H     H_    0.113229 0.721611 0.469462 0.149022
H9    H     H_    0.358987 0.129542 0.404246 0.123128
H10   H     H_    0.640928 0.870438 0.595816 0.123653
H11   H     H_    0.640983 0.131402 0.595793 0.118073
H12   H     H_    0.358931 0.868579 0.404277 0.117928
N1    N     N_R   0.500000 0.852070 0.500000 -0.160237
N2    N     N_R   0.500000 0.147930 0.500000 -0.158349
O1    O     O_R   0.319640 0.618740 0.499990 -0.596512
O2    O     O_R   0.680360 0.381260 0.500010 -0.591632
O3    O     O_R   0.680360 0.618740 0.500010 -0.591657
O4    O     O_R   0.319640 0.381260 0.499990 -0.588958
O5    O     O_R   0.499970 0.618800 0.370260 -0.577802
O6    O     O_R   0.500030 0.381200 0.629740 -0.581513
O7    O     O_R   0.500030 0.618800 0.629740 -0.587143
O8    O     O_R   0.499970 0.381200 0.370260 -0.586291
C31   C     C_3   0.259526 0.544846 0.766756 -0.339271
C32   C     C_3   0.230503 0.693347 0.733282 -0.280738
C33   C     C_3   0.092709 0.709897 0.715201 -0.846121
H13   H     H_    0.060484 0.625224 0.670358 0.264980
H14   H     H_    0.038091 0.704470 0.778232 0.271251
H15   H     H_    0.075844 0.813094 0.683554 0.232101
H16   H     H_    0.258881 0.774370 0.782143 0.237333
H17   H     H_    0.283355 0.713621 0.670817 0.226644
H18   H     H_    0.261352 0.472130 0.708769 0.147578
H19   H     H_    0.183389 0.501286 0.808708 0.231857
C34   C     C_3   0.728894 0.395248 0.233699 -0.344781
C35   C     C_3   0.823523 0.508789 0.258531 -0.300919
C36   C     C_3   0.948213 0.443642 0.280639 -0.822009
H20   H     H_    0.988133 0.388480 0.221739 0.267929
H21   H     H_    0.013705 0.527194 0.301090 0.237917
H22   H     H_    0.937042 0.366773 0.335357 0.259817
H23   H     H_    0.837175 0.585016 0.203636 0.236453
H24   H     H_    0.787946 0.569006 0.316890 0.194627
H25   H     H_    0.697855 0.342305 0.295549 0.182024
H26   H     H_    0.771004 0.307049 0.195646 0.238309
O9    O     O_3   0.182750 0.658181 0.928122 -0.602281
C37   C     C_3   0.162935 0.798090 0.956845 -0.376433
H27   H     H_    0.249763 0.861491 0.955472 0.166617
H28   H     H_    0.118998 0.800753 0.024057 0.165458
H29   H     H_    0.097593 0.848856 0.910976 0.192157
O10   O     O_3   0.843249 0.418181 0.069356 -0.600888
C38   C     C_3   0.932541 0.513580 0.035261 -0.306906
H30   H     H_    0.896071 0.622701 0.030449 0.153982
H31   H     H_    0.969522 0.477260 0.969841 0.193506
H32   H     H_    0.011580 0.516937 0.081149 0.189050

loop_
_geom_bond_atom_site_label_1
_geom_bond_atom_site_label_2
_ccdc_geom_bond_type
C31   C32   S    
C4    H4    S    
C5    H5    S    
C37   H29   S    
C4    C27   A    
C6    C9    A    
C38   H30   S    
C21   C31   S    
C23   C29   A    
C3    C28   A    
C19   C21   A    
C24   C26   A    
C13   N2    A    
C11   C14   A    
C33   H14   S    
C34   H25   S    
C32   C33   S    
C3    C29   A    
C16   O7    A    
Cu2   O6    S    
C12   H10   S    
C35   H24   S    
C35   H23   S    
C31   H18   S    
C6    H6    S    
C15   O5    A    
C1    O4    A    
C18   C20   A    
C30   O10   S    
C35   C36   S    
Cu1   O1    S    
Cu2   O2    S    
C17   H1    S    
Cu1   O3    S    
Cu2   O8    S    
C38   H31   S    
C14   N1    A    
C12   N1    A    
C15   C20   S    
C37   H28   S    
C36   H20   S    
C17   C27   A    
C15   O8    A    
C18   C28   A    
C37   H27   S    
C5    C7    A    
C1    O1    A    
C33   H15   S    
C6    C8    A    
C2    O2    A    
C25   C26   A    
C34   H26   S    
C36   H21   S    
O9    C37   S    
C22   C34   S    
C2    O3    A    
Cu1   Cu2   S    
C3    H3    S    
C31   H19   S    
Cu1   O7    S    
C18   H2    S    
Cu2   O4    S    
C20   C22   A    
C21   C23   A    
C22   C24   A    
C13   H11   S    
C38   H32   S    
C14   H12   S    
C7    C9    A    
Cu2   N2    S    
C1    C10   S    
C16   O6    A    
Cu1   O5    S    
O10   C38   S    
C29   O9    S    
C25   C27   A    
C26   C28   A    
C36   H22   S    
C5    C10   A    
C33   H13   S    
C16   C19   S    
C17   C19   A    
C11   H9    S    
C32   H17   S    
C23   C25   A    
C24   C30   A    
C12   C13   A    
C8    C10   A    
C34   C35   S    
Cu1   N1    S    
C7    H7    S    
C32   H16   S    
C11   N2    A    
C8    H8    S    
C2    C9    S    
C4    C30   A    
