data_mof_unit_51796.cif
_audit_creation_date              2012-12-10T17:17:51-0500
_audit_creation_method            fapswitch 2.2
_symmetry_space_group_name_H-M    P1
_symmetry_Int_Tables_number       1
_space_group_crystal_system       triclinic
_cell_length_a                    15.075843
_cell_length_b                    15.335327
_cell_length_c                    9.636276
_cell_angle_alpha                 91.086669
_cell_angle_beta                  89.562628
_cell_angle_gamma                 89.836098
_cell_volume                      2227.36375139

loop_
_atom_site_label
_atom_site_type_symbol
_atom_type_description
_atom_site_fract_x
_atom_site_fract_y
_atom_site_fract_z
_atom_type_partial_charge
C1    C     C_R   0.378556 0.884242 0.499932 0.790557
C2    C     C_R   0.383547 0.120575 0.501039 0.765364
C3    C     C_R   0.878557 0.384241 0.499932 0.790555
C4    C     C_R   0.883547 0.620575 0.501039 0.765364
C5    C     C_R   0.240553 0.179091 0.570585 -0.140820
C6    C     C_R   0.317894 0.746741 0.418232 -0.128480
C7    C     C_R   0.740554 0.679091 0.570586 -0.140819
C8    C     C_R   0.817898 0.246738 0.418238 -0.128487
C9    C     C_R   0.675831 0.742622 0.568352 -0.137394
C10   C     C_R   0.754157 0.182627 0.418227 -0.145183
C11   C     C_R   0.175830 0.242621 0.568350 -0.137399
C12   C     C_R   0.254153 0.682630 0.418220 -0.145183
C13   C     C_R   0.691314 0.820104 0.498891 -0.051174
C14   C     C_R   0.678442 0.192208 0.501074 -0.060984
C15   C     C_R   0.191314 0.320104 0.498892 -0.051169
C16   C     C_R   0.178441 0.692209 0.501073 -0.060996
C17   C     C_R   0.628849 0.899475 0.112386 0.003166
C18   C     C_R   0.128849 0.399475 0.112386 0.003169
C19   C     C_R   0.714477 0.895804 0.053579 -0.180746
C20   C     C_R   0.214477 0.395803 0.053578 -0.180755
C21   C     C_R   0.731984 0.940224 0.931724 -0.174630
C22   C     C_R   0.231984 0.440223 0.931724 -0.174634
C23   C     C_R   0.661782 0.979093 0.862122 -0.103372
C24   C     C_R   0.161782 0.479094 0.862122 -0.103369
C25   C     C_R   0.577103 0.983906 0.924933 0.168653
C26   C     C_R   0.077103 0.483907 0.924933 0.168650
C27   C     C_R   0.570830 0.965947 0.068509 0.051266
C28   C     C_R   0.070830 0.465947 0.068509 0.051264
C29   C     C_R   0.427578 0.025060 0.074858 0.735382
C30   C     C_R   0.927577 0.525059 0.074858 0.735379
C31   C     C_R   0.616370 0.120663 0.500489 0.729575
C32   C     C_R   0.620332 0.883158 0.499223 0.762694
C33   C     C_R   0.116370 0.620664 0.500489 0.729575
C34   C     C_R   0.120332 0.383158 0.499223 0.762693
C35   C     C_R   0.426492 0.020816 0.927053 -0.105079
C36   C     C_R   0.926492 0.520815 0.927052 -0.105079
C37   C     C_R   0.423592 0.288000 0.374188 -0.283064
C38   C     C_R   0.212326 0.913771 0.656283 -0.285566
C39   C     C_R   0.923593 0.788001 0.374192 -0.283068
C40   C     C_R   0.712322 0.413775 0.656268 -0.285563
C41   C     C_R   0.441258 0.367653 0.310347 -0.185205
C42   C     C_R   0.132627 0.927383 0.729847 -0.174363
C43   C     C_R   0.941259 0.867653 0.310350 -0.185204
C44   C     C_R   0.632621 0.427389 0.729827 -0.174348
C45   C     C_R   0.876101 0.933100 0.313897 0.555793
C46   C     C_R   0.568011 0.361904 0.727959 0.590152
C47   C     C_R   0.376101 0.433101 0.313901 0.555793
C48   C     C_R   0.068016 0.861899 0.727975 0.590160
C49   C     C_R   0.793862 0.917917 0.376013 -0.275365
C50   C     C_R   0.582739 0.284449 0.653346 -0.235235
C51   C     C_R   0.293863 0.417918 0.376017 -0.275354
C52   C     C_R   0.082741 0.784447 0.653354 -0.235228
C53   C     C_R   0.774264 0.836872 0.435622 0.030619
C54   C     C_R   0.662935 0.269677 0.579762 0.043706
C55   C     C_R   0.274264 0.336872 0.435623 0.030617
C56   C     C_R   0.162936 0.769677 0.579767 0.043707
C57   C     C_R   0.340209 0.271461 0.436401 0.114207
C58   C     C_R   0.228382 0.835462 0.580170 0.124169
C59   C     C_R   0.840210 0.771461 0.436403 0.114211
C60   C     C_R   0.728381 0.335463 0.580164 0.124159
C61   C     C_R   0.321290 0.192017 0.502850 -0.037908
C62   C     C_R   0.306745 0.821891 0.500111 -0.064291
C63   C     C_R   0.821290 0.692017 0.502851 -0.037914
C64   C     C_R   0.806746 0.321890 0.500111 -0.064289
Cu1   Cu    Cu3+1 0.499990 0.000000 0.640660 0.958030
Cu2   Cu    Cu3+1 0.999990 0.500000 0.640660 0.958030
Cu3   Cu    Cu3+1 0.500010 0.000000 0.359340 1.039256
Cu4   Cu    Cu3+1 0.000010 0.500000 0.359340 1.039253
H1    H     H_    0.226721 0.118531 0.622115 0.143841
H2    H     H_    0.377504 0.736537 0.356888 0.173138
H3    H     H_    0.726722 0.618532 0.622117 0.143853
H4    H     H_    0.877510 0.236532 0.356900 0.173133
H5    H     H_    0.796866 0.935591 0.883126 0.203504
H6    H     H_    0.296866 0.435590 0.883126 0.203510
H7    H     H_    0.675536 0.004208 0.761220 0.188164
H8    H     H_    0.175536 0.504208 0.761220 0.188165
H9    H     H_    0.366047 0.036426 0.873085 0.194711
H10   H     H_    0.866046 0.536424 0.873085 0.194709
H11   H     H_    0.475683 0.239421 0.374787 0.176870
H12   H     H_    0.260180 0.966050 0.656103 0.166621
H13   H     H_    0.975685 0.739422 0.374795 0.176859
H14   H     H_    0.760176 0.466054 0.656085 0.166618
H15   H     H_    0.746057 0.970518 0.377869 0.155900
H16   H     H_    0.529796 0.237119 0.652466 0.174281
H17   H     H_    0.246059 0.470520 0.377877 0.155899
H18   H     H_    0.029797 0.737118 0.652472 0.174281
H19   H     H_    0.612670 0.730736 0.619055 0.165566
H20   H     H_    0.764868 0.124341 0.355193 0.192156
H21   H     H_    0.112669 0.230735 0.619052 0.165554
H22   H     H_    0.264863 0.624345 0.355182 0.192159
H23   H     H_    0.763578 0.850162 0.090251 0.192549
H24   H     H_    0.263577 0.350161 0.090250 0.192549
N1    N     N_R   0.501200 0.000000 0.147910 -0.243869
N2    N     N_R   0.001200 0.500000 0.147910 -0.243868
N3    N     N_R   0.501270 1.000000 0.852040 -0.231110
N4    N     N_R   0.001270 0.500000 0.852040 -0.231110
O1    O     O_R   0.409820 0.909830 0.618810 -0.576787
O2    O     O_R   0.409820 0.090170 0.618810 -0.599464
O3    O     O_R   0.909820 0.409830 0.618810 -0.576787
O4    O     O_R   0.909820 0.590170 0.618810 -0.599462
O5    O     O_R   0.409840 0.909830 0.381240 -0.510736
O6    O     O_R   0.409840 0.090170 0.381240 -0.504897
O7    O     O_R   0.909840 0.409830 0.381240 -0.510734
O8    O     O_R   0.909840 0.590170 0.381240 -0.504897
O9    O     O_R   0.590170 0.090170 0.618760 -0.601720
O10   O     O_R   0.590170 0.909830 0.618760 -0.583657
O11   O     O_R   0.090170 0.590170 0.618760 -0.601719
O12   O     O_R   0.090170 0.409830 0.618760 -0.583658
O13   O     O_R   0.590190 0.090180 0.381190 -0.577295
O14   O     O_R   0.590190 0.909820 0.381190 -0.594627
O15   O     O_R   0.090190 0.590180 0.381190 -0.577301
O16   O     O_R   0.090190 0.409820 0.381190 -0.594627
C65   C     C_2   0.528950 0.382196 0.243240 0.964425
O17   O     O_2   0.595515 0.350580 0.293487 -0.553636
O18   O     O_R   0.537547 0.430098 0.121777 -0.638478
H25   H     H_    0.478827 0.443795 0.076685 0.362092
C66   C     C_2   0.118154 0.010194 0.809303 0.964205
O19   O     O_2   0.179781 0.043309 0.872426 -0.517767
O20   O     O_R   0.035699 0.052286 0.812770 -0.693850
H26   H     H_    0.991637 0.026432 0.744845 0.321582
C67   C     C_2   0.028951 0.882197 0.243246 0.964437
O21   O     O_2   0.095518 0.850598 0.293512 -0.553637
O22   O     O_R   0.037546 0.930084 0.121767 -0.638477
H27   H     H_    0.978826 0.943773 0.076672 0.362093
C68   C     C_2   0.618142 0.510206 0.809266 0.964185
O23   O     O_2   0.679766 0.543328 0.872388 -0.517777
O24   O     O_R   0.535686 0.552296 0.812714 -0.693864
H28   H     H_    0.491627 0.526433 0.744793 0.321586
F1    F     F_    0.892723 0.013066 0.261760 -0.681941
F2    F     F_    0.491150 0.371538 0.801033 -0.688309
F3    F     F_    0.392724 0.513069 0.261771 -0.681950
F4    F     F_    0.991156 0.871532 0.801052 -0.688313
F5    F     F_    0.351763 0.047861 0.142579 -0.599161
F6    F     F_    0.851762 0.547859 0.142579 -0.599166
C69   C     C_2   0.590534 0.814686 0.155718 0.909213
O25   O     O_2   0.639103 0.754853 0.189962 -0.556202
O26   O     O_R   0.498738 0.802310 0.153001 -0.738291
H29   H     H_    0.481476 0.740479 0.176468 0.349281
C70   C     C_2   0.090533 0.314686 0.155718 0.909211
O27   O     O_2   0.139101 0.254853 0.189962 -0.556201
O28   O     O_R   0.998737 0.302311 0.153001 -0.738290
H30   H     H_    0.981474 0.240480 0.176468 0.349282

loop_
_geom_bond_atom_site_label_1
_geom_bond_atom_site_label_2
_ccdc_geom_bond_type
C58   C62   A    
Cu2   Cu4   S    
C45   F1    S    
C40   C60   A    
C34   O16   A    
C13   C32   S    
C29   F5    S    
C33   O11   A    
Cu4   O7    S    
C14   C31   S    
C1    C62   S    
C51   H17   S    
C53   C59   A    
C50   H16   S    
C69   O25   D    
C54   C60   A    
C3    C64   S    
C37   H11   S    
C4    C63   S    
C10   H20   S    
C50   C54   A    
C32   O14   A    
C12   H22   S    
C19   C21   A    
C24   C26   A    
Cu1   O2    S    
C5    C11   A    
C66   O20   S    
C7    H3    S    
C2    O6    A    
O18   H25   S    
C21   H5    S    
C28   N2    A    
Cu4   O16   S    
Cu2   O4    S    
C9    C13   A    
C5    H1    S    
C38   C58   A    
C11   C15   A    
Cu3   O13   S    
C12   C16   A    
Cu1   Cu3   S    
C17   C69   S    
C33   O15   A    
Cu2   O11   S    
C15   C34   S    
C18   C20   A    
C2    C61   S    
Cu2   O12   S    
C32   O10   A    
C31   O9    A    
C6    H2    S    
Cu1   O9    S    
C41   C47   A    
C44   C46   A    
C46   C50   A    
C13   C53   A    
C26   N4    A    
C44   C68   S    
C8    H4    S    
Cu1   N3    S    
C17   C27   A    
C40   H14   S    
O22   H27   S    
C18   C28   A    
C39   H13   S    
C10   C14   A    
C1    O1    A    
C29   N1    A    
C24   H8    S    
C39   C43   A    
Cu3   N1    S    
C30   F6    S    
C35   H9    S    
Cu4   N2    S    
C47   F3    S    
Cu4   O15   S    
C15   C55   A    
Cu2   O3    S    
C16   C56   A    
C16   C33   S    
C20   H24   S    
C11   H21   S    
Cu3   O14   S    
C45   C49   A    
C70   O27   D    
C39   C59   A    
C31   O13   A    
C5    C61   A    
C42   C48   A    
C43   C45   A    
C7    C63   A    
C67   O21   D    
C8    C64   A    
C14   C54   A    
C20   C22   A    
C25   N3    A    
C55   C57   A    
C68   O23   D    
C69   O26   S    
C22   C24   A    
C27   N1    A    
C22   H6    S    
C40   C44   A    
O24   H28   S    
C1    O5    A    
Cu1   O10   S    
Cu3   O5    S    
Cu2   N4    S    
C65   O17   D    
C3    O7    A    
C7    C9    A    
C43   C67   S    
C59   C63   A    
Cu4   O8    S    
C23   H7    S    
C46   F2    S    
C47   C51   A    
O20   H26   S    
C42   C66   S    
C57   C61   A    
C35   N3    A    
C25   C27   A    
O26   H29   S    
C29   C35   A    
C26   C28   A    
C4    O4    A    
C30   C36   A    
C60   C64   A    
C34   O12   A    
C6    C62   A    
C21   C23   A    
C41   C65   S    
Cu1   O1    S    
C30   N2    A    
C36   H10   S    
O28   H30   S    
C9    H19   S    
C6    C12   A    
C70   O28   S    
C49   H15   S    
C38   H12   S    
C49   C53   A    
C4    O8    A    
C52   H18   S    
C17   C19   A    
C56   C58   A    
C51   C55   A    
C23   C25   A    
C37   C41   A    
C18   C70   S    
C67   O22   S    
C19   H23   S    
C38   C42   A    
C3    O3    A    
C48   C52   A    
C2    O2    A    
C8    C10   A    
C68   O24   S    
C48   F4    S    
C66   O19   D    
C37   C57   A    
C52   C56   A    
Cu3   O6    S    
C36   N4    A    
C65   O18   S    
