data_mof_unit_47452.cif
_audit_creation_date              2012-12-11T20:41:21-0500
_audit_creation_method            fapswitch 2.2
_symmetry_space_group_name_H-M    P1
_symmetry_Int_Tables_number       1
_space_group_crystal_system       triclinic
_cell_length_a                    8.286029
_cell_length_b                    18.955945
_cell_length_c                    26.998002
_cell_angle_alpha                 97.359327
_cell_angle_beta                  92.389525
_cell_angle_gamma                 86.410039
_cell_volume                      4194.94850517

loop_
_atom_site_label
_atom_site_type_symbol
_atom_type_description
_atom_site_fract_x
_atom_site_fract_y
_atom_site_fract_z
_atom_type_partial_charge
Ba1   Ba    Ba6+2 0.852670 0.466460 0.522850 1.634979
Ba2   Ba    Ba6+2 0.337150 0.533490 0.477140 1.640848
C1    C     C_3   0.593530 0.221272 0.662317 -0.073549
C2    C     C_R   0.934852 0.569891 0.179755 0.580109
C3    C     C_2   0.767102 0.544369 0.271935 -0.076156
C4    C     C_3   0.024707 0.291865 0.646773 0.355507
C5    C     C_3   0.747370 0.567113 0.327034 0.001449
C6    C     C_1   0.984557 0.489189 0.342762 0.041813
C7    C     C_2   0.025675 0.484752 0.294927 -0.113481
C8    C     C_2   0.909345 0.511874 0.256003 0.192202
C9    C     C_R   0.035908 0.504849 0.102222 -0.083417
C10   C     C_R   0.051662 0.442582 0.125946 -0.027869
C11   C     C_R   0.105442 0.378621 0.097893 -0.059253
C12   C     C_3   0.569251 0.294703 0.643753 0.403959
C13   C     C_R   0.977411 0.568719 0.129465 -0.063497
C14   C     C_2   0.853924 0.525691 0.360597 -0.308599
C15   C     C_2   0.356040 0.489051 0.640570 -0.301411
C16   C     C_3   0.018862 0.256177 0.694604 -0.160768
C17   C     C_R   0.204891 0.440164 0.975348 -0.000398
C18   C     C_R   0.065284 0.558517 0.973749 0.025982
C19   C     C_R   0.151308 0.498009 0.948807 0.035551
C20   C     C_R   0.314371 0.386581 0.950873 0.117943
C21   C     C_R   0.346289 0.386158 0.900249 -0.026224
C22   C     C_R   0.280449 0.439369 0.872538 -0.067258
C23   C     C_3   0.515431 0.645798 0.630708 0.297387
C24   C     C_R   0.184378 0.495885 0.896968 -0.083158
C25   C     C_R   0.121957 0.550719 0.869688 -0.023371
C26   C     C_R   0.160579 0.549512 0.818955 0.592046
C27   C     C_R   0.314315 0.438528 0.821330 0.589867
C28   C     C_3   0.193954 0.313579 0.406371 0.358364
C29   C     C_2   0.455748 0.485676 0.729279 -0.083116
C30   C     C_3   0.501425 0.492403 0.676168 -0.042160
C31   C     C_1   0.213038 0.513521 0.656751 0.055478
C32   C     C_2   0.171658 0.508981 0.703285 -0.103638
C33   C     C_2   0.298896 0.494557 0.742876 0.190435
C34   C     C_3   0.493512 0.674420 0.685452 -0.371858
C35   C     C_R   0.147718 0.439570 0.024855 0.026419
C36   C     C_R   0.077976 0.503241 0.051142 0.035415
C37   C     C_R   0.049560 0.565221 0.026721 -0.000864
C38   C     C_R   0.149856 0.377024 0.048352 -0.108106
C39   C     C_R   0.968301 0.631261 0.106640 -0.030868
C40   C     C_3   0.233044 0.236872 0.382991 -0.119883
C41   C     C_R   0.991013 0.608575 0.944295 -0.112423
C42   C     C_R   0.020972 0.605564 0.893660 -0.059803
C43   C     C_R   0.007853 0.631015 0.056835 0.116847
C44   C     C_2   0.399003 0.291983 0.512690 -0.297542
C45   C     C_3   0.099971 0.674628 0.343469 0.310090
C46   C     C_3   0.257399 0.244917 0.509167 -0.032069
C47   C     C_2   0.315020 0.167314 0.510463 0.039454
C48   C     C_2   0.466761 0.144930 0.494469 -0.043179
C49   C     C_2   0.571541 0.199474 0.477555 0.058410
C50   C     C_1   0.526769 0.269269 0.486207 0.056895
C51   C     C_R   0.644844 0.929456 0.488252 0.446562
C52   C     C_3   0.037374 0.689323 0.588770 0.312548
C53   C     C_R   0.529775 0.068245 0.492124 0.498557
C54   C     C_R   0.614208 0.805939 0.508603 -0.128650
C55   C     C_R   0.668594 0.734529 0.507704 0.043116
C56   C     C_3   0.107010 0.690413 0.289854 -0.299698
C57   C     C_R   0.908352 0.756706 0.465604 0.065118
C58   C     C_R   0.855313 0.828773 0.466158 -0.130342
C59   C     C_R   0.705778 0.853868 0.487255 -0.072416
C60   C     C_R   0.812503 0.710044 0.485212 -0.273178
C61   C     C_3   0.102410 0.763136 0.603531 -0.141639
C62   C     C_3   0.667738 0.382512 0.373501 0.307870
C63   C     C_3   0.670393 0.365075 0.316951 -0.350126
C64   C     C_3   0.532620 0.727620 0.362252 0.460204
C65   C     C_3   0.458664 0.798274 0.347183 -0.327533
C66   C     C_R   0.009546 0.445281 0.176744 0.598697
H1    H     H_    0.615948 0.289084 0.605275 0.041107
H2    H     H_    0.395530 0.630963 0.614163 0.020201
H3    H     H_    0.543384 0.223206 0.700002 0.131770
H4    H     H_    0.199707 0.635675 0.351153 0.115177
H5    H     H_    0.123691 0.639557 0.264830 0.111282
H6    H     H_    0.993138 0.719561 0.279094 0.155567
H7    H     H_    0.209929 0.723306 0.285247 0.136416
H8    H     H_    0.503362 0.725893 0.401969 0.056563
H9    H     H_    0.484439 0.802409 0.307638 0.126585
H10   H     H_    0.509898 0.843901 0.371445 0.070873
H11   H     H_    0.900223 0.294648 0.630417 0.060988
H12   H     H_    0.119771 0.212127 0.368023 0.094943
H13   H     H_    0.144317 0.462226 0.283849 0.126666
H14   H     H_    0.112096 0.329025 0.114048 0.121394
H15   H     H_    0.551814 0.478842 0.757139 0.110392
H16   H     H_    0.429242 0.344584 0.882992 0.138390
H17   H     H_    0.178795 0.325324 0.028334 0.078346
H18   H     H_    0.935284 0.682033 0.128155 0.136327
H19   H     H_    0.904346 0.649482 0.959468 0.077526
H20   H     H_    0.065685 0.346834 0.656166 0.050886
H21   H     H_    0.841116 0.539753 0.400550 0.083000
H22   H     H_    0.373687 0.473191 0.600983 0.082159
H23   H     H_    0.904479 0.694549 0.582797 0.002734
H24   H     H_    0.502809 0.824191 0.527011 0.110166
H25   H     H_    0.383708 0.347312 0.528882 0.069599
H26   H     H_    0.915457 0.280678 0.716887 0.125151
H27   H     H_    0.853376 0.654637 0.484871 0.056307
H28   H     H_    0.999484 0.198545 0.684620 0.123323
H29   H     H_    0.307949 0.338653 0.419147 0.016838
H30   H     H_    0.382172 0.181851 0.331498 0.180544
H31   H     H_    0.286971 0.254740 0.312482 0.211674
H32   H     H_    0.286858 0.205014 0.411708 0.044244
H33   H     H_    0.113206 0.857419 0.575527 0.201129
H34   H     H_    0.094184 0.664551 0.553777 0.069309
H35   H     H_    0.927360 0.827139 0.573999 0.174310
H36   H     H_    0.236849 0.757956 0.605303 0.120088
H37   H     H_    0.576820 0.427213 0.382780 0.081399
H38   H     H_    0.693912 0.413098 0.299654 0.065420
H39   H     H_    0.368970 0.346351 0.677369 0.180258
H40   H     H_    0.373433 0.349508 0.615486 0.125419
H41   H     H_    0.396320 0.177684 0.623838 0.226302
H42   H     H_    0.571792 0.162999 0.593292 0.174311
H43   H     H_    0.601245 0.598191 0.628048 0.039355
H44   H     H_    0.416194 0.724709 0.688469 0.131963
H45   H     H_    0.060800 0.785567 0.641322 0.110706
H46   H     H_    0.433833 0.635440 0.704765 0.078036
H47   H     H_    0.613016 0.684950 0.704192 0.129595
H48   H     H_    0.185900 0.318025 0.734537 0.209573
H49   H     H_    0.263116 0.238865 0.705698 0.221813
H50   H     H_    0.985761 0.649852 0.347399 -0.006315
H51   H     H_    0.759139 0.693442 0.382856 0.092467
H52   H     H_    0.752337 0.775429 0.367698 0.158086
H53   H     H_    0.326514 0.802967 0.351493 0.153483
H54   H     H_    0.441540 0.360819 0.013970 0.187877
H55   H     H_    0.363829 0.289834 0.975330 0.178153
H56   H     H_    0.788486 0.398120 0.388004 0.009738
H57   H     H_    0.677791 0.563858 0.245620 0.117946
H58   H     H_    0.963899 0.646583 0.873249 0.121619
H59   H     H_    0.046950 0.519666 0.713698 0.141366
H60   H     H_    0.918926 0.721147 0.028793 0.175730
H61   H     H_    0.118079 0.696523 0.014713 0.189205
H62   H     H_    0.174538 0.129126 0.559538 0.210269
H63   H     H_    0.097404 0.123630 0.500108 0.194615
H64   H     H_    0.662807 0.190941 0.407841 0.195311
H65   H     H_    0.805378 0.193635 0.455332 0.211856
H66   H     H_    0.929010 0.864423 0.449910 0.106203
H67   H     H_    0.724259 0.206715 0.665902 0.077279
H68   H     H_    0.114455 0.313572 0.438408 -0.013447
H69   H     H_    0.766851 0.323083 0.306504 0.133436
H70   H     H_    0.551592 0.345961 0.302205 0.137456
N1    N     N_R   0.952058 0.508699 0.203423 -0.421112
N2    N     N_3   0.520139 0.165210 0.628138 -0.499435
N3    N     N_3   0.166153 0.263863 0.725807 -0.471657
N4    N     N_3   0.708015 0.725136 0.356839 -0.484450
N5    N     N_3   0.416444 0.338792 0.977179 -0.506085
N6    N     N_3   0.029675 0.699485 0.041501 -0.504791
N7    N     N_3   0.203146 0.117352 0.521993 -0.460822
N8    N     N_3   0.694476 0.173986 0.442448 -0.482216
N9    N     N_R   0.256222 0.493775 0.795012 -0.422799
N10   N     N_R   0.486521 0.948248 0.496508 -0.239498
N11   N     N_R   0.430497 0.015873 0.498260 -0.208365
N12   N     N_R   0.688610 0.049295 0.484009 -0.222580
N13   N     N_R   0.744929 0.981464 0.481929 -0.238427
N14   N     N_3   0.347543 0.235200 0.343122 -0.470181
N15   N     N_3   0.048708 0.811408 0.567566 -0.510827
N16   N     N_3   0.397584 0.316580 0.643258 -0.489800
O1    O     O_2   0.914730 0.537460 0.618690 -0.455629
O2    O     O_2   0.247730 0.751826 0.465802 -0.467562
O3    O     O_3   0.109719 0.738050 0.376238 -0.621936
O4    O     O_3   0.146720 0.537410 0.558510 -0.494222
O5    O     O_3   0.553920 0.415280 0.473710 -0.490181
O6    O     O_2   0.383540 0.672140 0.526840 -0.465753
O7    O     O_3   0.578338 0.698865 0.606855 -0.641647
O8    O     O_2   0.419826 0.533167 0.322829 -0.509357
O9    O     O_3   0.463701 0.670633 0.331062 -0.597248
O10   O     O_2   0.022105 0.390924 0.196857 -0.596698
O11   O     O_2   0.395133 0.388309 0.800187 -0.599301
O12   O     O_3   0.627999 0.321697 0.393483 -0.625437
O13   O     O_2   0.883042 0.626005 0.202565 -0.616272
O14   O     O_2   0.111644 0.599086 0.796481 -0.599829
O15   O     O_3   0.666360 0.409390 0.586570 -0.482860
O16   O     O_2   0.830869 0.448519 0.670873 -0.497001
O17   O     O_3   0.071603 0.650735 0.629142 -0.643944
O18   O     O_3   0.656110 0.343674 0.676531 -0.619562
O19   O     O_2   0.806150 0.327840 0.473120 -0.466319
O20   O     O_3   0.073640 0.373350 0.561550 -0.478375
O21   O     O_2   0.928575 0.252125 0.536598 -0.504971
O22   O     O_3   0.129004 0.251583 0.612825 -0.625118
O23   O     O_2   0.274960 0.462520 0.381280 -0.467620
O24   O     O_3   0.042980 0.462530 0.441480 -0.488009
O25   O     O_3   0.523340 0.590550 0.413420 -0.482348
O26   O     O_3   0.111415 0.349630 0.370351 -0.635757
O27   O     O_3   0.635780 0.584660 0.526290 -0.473770
O28   O     O_3   0.116060 0.626590 0.438450 -0.503411
P1    P     P_3+3 0.084800 0.558370 0.611580 0.998938
P2    P     P_3+3 0.628800 0.338360 0.458800 0.987139
P3    P     P_3+3 0.095769 0.280277 0.553794 0.938218
P4    P     P_3+3 0.104900 0.441570 0.388420 0.992649
P5    P     P_3+3 0.098154 0.719084 0.437683 0.956578
P6    P     P_3+3 0.661975 0.424837 0.652061 0.949951
P7    P     P_3+3 0.568296 0.673904 0.542227 0.950966
P8    P     P_3+3 0.537352 0.587941 0.348622 0.937661

loop_
_geom_bond_atom_site_label_1
_geom_bond_atom_site_label_2
_ccdc_geom_bond_type
C19   C24   A    
C40   H12   S    
C54   C59   A    
C16   H28   S    
C1    H3    S    
C65   H9    S    
C34   H46   S    
Ba1   P1    S    
C23   H43   S    
C4    H20   S    
O22   P3    S    
H61   N6    S    
H30   N14   S    
C55   P7    S    
C39   H18   S    
C10   C66   A    
C28   H29   S    
Ba1   O19   S    
C24   C25   A    
H41   N2    S    
O17   P1    S    
Ba1   O4    S    
C17   C19   A    
C22   C24   A    
O6    P7    D    
C32   C33   S    
C35   C38   A    
O20   P3    S    
C36   C37   A    
O1    P1    D    
C41   H19   S    
C52   C61   S    
C44   C50   D    
C29   H15   S    
C54   C55   A    
Ba1   Ba2   S    
Ba2   O28   S    
C27   O11   D    
Ba1   O1    S    
C22   C27   A    
C11   C38   A    
C62   O12   S    
C17   C35   A    
O27   P7    S    
C25   C42   A    
H35   N15   S    
C45   H50   S    
O19   P2    D    
C23   O7    S    
C6    C7    D    
C26   N9    Am   
C20   N5    S    
C34   H44   S    
C43   N6    S    
C21   C22   A    
C5    P8    S    
C57   P5    S    
Ba2   O23   S    
O5    P2    S    
C40   N14   S    
O4    P1    S    
C37   C43   A    
C63   H69   S    
C23   H2    S    
C64   C65   S    
C64   H8    S    
C57   C58   A    
C6    C14   D    
C60   H27   S    
C12   N16   S    
H62   N7    S    
C52   H23   S    
C65   H10   S    
C15   C31   D    
H54   N5    S    
C65   H53   S    
C7    C8    S    
C3    C8    D    
Ba1   P2    S    
C56   H7    S    
C53   N11   A    
C66   O10   D    
C4    C16   S    
C44   C46   S    
Ba1   O20   S    
C21   H16   S    
C30   P6    S    
C49   C50   D    
O3    P5    S    
Ba1   O5    S    
C17   C20   A    
O12   P2    S    
N10   N11   A    
C61   N15   S    
O7    P7    S    
C3    C5    S    
C18   C37   A    
Ba1   O27   S    
C32   H59   S    
C49   N8    S    
C55   C60   A    
C62   H56   S    
C11   H14   S    
C51   N10   A    
O23   P4    D    
C58   C59   A    
Ba2   O27   S    
C61   H45   S    
C38   H17   S    
C9    C36   A    
H49   N3    S    
C41   C42   A    
Ba2   P4    S    
C31   P1    S    
C35   C36   A    
C40   H32   S    
O21   P3    D    
Ba1   O24   S    
C29   C30   S    
H33   N15   S    
Ba2   O4    S    
C42   H58   S    
C31   C32   D    
C47   N7    S    
C48   C49   S    
H52   N4    S    
C33   N9    S    
C18   C19   A    
H60   N6    S    
C13   C39   A    
C1    C12   S    
O26   P4    S    
C63   H70   S    
C12   O18   S    
C46   C47   S    
C3    H57   S    
C9    C13   A    
C16   H26   S    
C12   H1    S    
C29   C33   D    
Ba2   O25   S    
Ba2   O5    S    
C51   C59   S    
C58   H66   S    
C63   H38   S    
O8    P8    D    
C18   C41   A    
C56   H6    S    
C53   N12   A    
C45   O3    S    
O2    P5    D    
C15   C30   S    
O16   P6    D    
C5    C14   S    
C57   C60   A    
C39   C43   A    
C62   H37   S    
N12   N13   A    
C52   O17   S    
C52   H34   S    
C16   N3    S    
C15   H22   S    
C50   P2    S    
O15   P6    S    
C61   H36   S    
C27   N9    Am   
C9    C10   A    
C64   N4    S    
H31   N14   S    
C28   H68   S    
C48   C53   S    
C2    O13   D    
C6    P4    S    
C62   C63   S    
H65   N8    S    
C2    C13   A    
H42   N2    S    
H64   N8    S    
C46   P3    S    
C45   C56   S    
C34   H47   S    
C4    H11   S    
O25   P8    S    
C4    O22   S    
O18   P6    S    
Ba1   O15   S    
C64   O9    S    
H63   N7    S    
O9    P8    S    
C1    H67   S    
O28   P5    S    
C44   H25   S    
C45   H4    S    
H39   N16   S    
C26   O14   D    
C23   C34   S    
H48   N3    S    
O24   P4    S    
C14   H21   S    
H40   N16   S    
C10   C11   A    
Ba2   O6    S    
C47   C48   D    
C8    N1    S    
H55   N5    S    
C25   C26   A    
C51   N13   A    
H51   N4    S    
C28   O26   S    
C20   C21   A    
C28   C40   S    
C66   N1    Am   
C1    N2    S    
Ba2   O24   S    
C54   H24   S    
C56   H5    S    
C7    H13   S    
C2    N1    Am   
