data_mof_unit_19934.cif
_audit_creation_date              2012-12-10T17:21:15-0500
_audit_creation_method            fapswitch 2.2
_symmetry_space_group_name_H-M    P1
_symmetry_Int_Tables_number       1
_space_group_crystal_system       triclinic
_cell_length_a                    9.644027
_cell_length_b                    10.840813
_cell_length_c                    13.889489
_cell_angle_alpha                 95.190557
_cell_angle_beta                  84.78773
_cell_angle_gamma                 93.180813
_cell_volume                      1438.56212243

loop_
_atom_site_label
_atom_site_type_symbol
_atom_type_description
_atom_site_fract_x
_atom_site_fract_y
_atom_site_fract_z
_atom_type_partial_charge
C1    C     C_R   0.502998 0.737796 0.505047 0.802212
C2    C     C_R   0.589326 0.938029 0.445174 -0.045412
C3    C     C_R   0.579957 0.064879 0.446675 -0.190666
C4    C     C_R   0.476889 0.494176 0.682095 0.827510
C5    C     C_R   0.483501 0.128725 0.511629 -0.067819
C6    C     C_R   0.860662 0.357423 0.355215 -0.138473
C7    C     C_R   0.929957 0.321970 0.267075 -0.257985
C8    C     C_R   0.073083 0.330795 0.256903 -0.053098
C9    C     C_R   0.146181 0.361179 0.340139 -0.050969
C10   C     C_R   0.078695 0.428850 0.425512 0.148791
C11   C     C_R   0.928641 0.428307 0.428555 0.197222
C12   C     C_1   0.462448 0.488678 0.784774 -0.115572
C13   C     C_R   0.923970 0.572849 0.565526 0.036496
C14   C     C_R   0.070725 0.570632 0.566518 -0.035279
C15   C     C_R   0.494350 0.263548 0.508532 0.787509
C16   C     C_R   0.522729 0.499468 0.317309 0.818852
C17   C     C_1   0.536220 0.494380 0.214008 -0.131814
C18   C     C_2   0.556704 0.482077 0.022853 -0.052614
C19   C     C_2   0.441529 0.490889 0.976230 0.404807
C20   C     C_1   0.451602 0.487976 0.871505 -0.090320
C21   C     C_1   0.546656 0.488839 0.126950 0.071852
C22   C     C_1   0.141685 0.286458 0.163845 0.320263
C23   C     C_R   0.368368 0.880863 0.673411 -0.147450
C24   C     C_1   0.264155 0.284461 0.337083 0.341666
C25   C     C_1   0.693157 0.466929 0.971721 0.222140
C26   C     C_1   0.680261 0.876030 0.369611 0.263371
C27   C     C_1   0.456033 0.806518 0.720690 0.233813
C28   C     C_1   0.209883 0.224664 0.633563 0.289447
C29   C     C_1   0.853967 0.661445 0.633066 0.316447
C30   C     C_R   0.252110 0.927753 0.729834 0.416544
C31   C     C_R   0.206053 0.040862 0.711631 -0.159369
C32   C     C_R   0.276668 0.111613 0.641565 -0.133197
C33   C     C_R   0.392531 0.062905 0.579691 0.031632
C34   C     C_R   0.423041 0.937837 0.589098 0.004757
C35   C     C_R   0.509929 0.873425 0.515529 -0.110280
Cu1   Cu    Cu3+1 0.359340 0.500010 0.500010 0.977071
Cu2   Cu    Cu3+1 0.640660 0.499990 0.499990 0.974537
H1    H     H_    0.752838 0.330904 0.360567 0.200003
H2    H     H_    0.871494 0.280920 0.208102 0.168461
H3    H     H_    0.123698 0.629228 0.620503 0.135976
H4    H     H_    0.115893 0.076143 0.756077 0.179993
H5    H     H_    0.645956 0.114372 0.393880 0.145671
H6    H     H_    0.242363 0.511823 0.983103 0.341610
H7    H     H_    0.213576 0.782231 0.802330 0.326352
N1    N     N_R   0.852210 0.498790 0.499090 -0.215363
N2    N     N_R   0.148080 0.498710 0.499060 -0.187753
N3    N     N_1   0.196289 0.250755 0.089708 -0.229913
N4    N     N_1   0.355748 0.218453 0.326275 -0.315195
N5    N     N_1   0.802234 0.454845 0.930833 -0.242699
N6    N     N_1   0.752960 0.826356 0.309169 -0.251026
N7    N     N_1   0.526372 0.751730 0.762627 -0.250949
N8    N     N_1   0.149607 0.313253 0.630680 -0.244784
N9    N     N_1   0.801386 0.734891 0.687807 -0.237294
O1    O     O_R   0.381190 0.680360 0.500010 -0.573766
O2    O     O_3   0.184998 0.869104 0.806549 -0.703036
O3    O     O_R   0.618760 0.680340 0.500000 -0.568833
O4    O     O_R   0.364420 0.499990 0.637850 -0.580268
O5    O     O_R   0.601990 0.499960 0.637840 -0.563712
O6    O     O_R   0.381240 0.319660 0.500000 -0.575110
O7    O     O_R   0.618810 0.319640 0.499990 -0.604361
O8    O     O_R   0.398010 0.500040 0.362160 -0.571976
O9    O     O_R   0.635580 0.500010 0.362150 -0.587525
O10   O     O_3   0.314247 0.506714 0.029188 -0.701126

loop_
_geom_bond_atom_site_label_1
_geom_bond_atom_site_label_2
_ccdc_geom_bond_type
C2    C35   A    
C10   N2    A    
C8    C22   S    
C1    O1    A    
C6    H1    S    
C9    C24   S    
Cu1   N2    S    
C6    C7    A    
C23   C27   S    
C4    C12   S    
C18   C21   S    
C9    C10   A    
Cu2   O5    S    
C31   C32   A    
Cu1   O6    S    
C32   C33   A    
C23   C34   A    
C22   N3    T    
H6    O10   S    
C7    C8    A    
C14   N2    A    
C13   C14   A    
C13   N1    A    
C28   N8    T    
H7    O2    S    
C12   C20   T    
C16   C17   S    
C18   C25   S    
C16   O9    A    
C13   C29   S    
Cu1   Cu2   S    
C33   C34   A    
C1    O3    A    
C27   N7    T    
Cu2   O9    S    
C2    C3    A    
C10   C11   A    
C26   N6    T    
C30   C31   A    
C25   N5    T    
C5    C15   S    
Cu2   O7    S    
C11   N1    A    
C16   O8    A    
C14   H3    S    
Cu1   O8    S    
C24   N4    T    
C23   C30   A    
C28   C32   S    
C3    H5    S    
Cu1   O1    S    
C1    C35   S    
C2    C26   S    
C34   C35   A    
C30   O2    S    
C4    O5    A    
C6    C11   A    
C7    H2    S    
C18   C19   D    
Cu1   O4    S    
C15   O6    A    
C31   H4    S    
C3    C5    A    
Cu2   O3    S    
Cu2   N1    S    
C15   O7    A    
C17   C21   T    
C19   C20   S    
C4    O4    A    
C19   O10   S    
C8    C9    A    
C29   N9    T    
C5    C33   A    
