data_mof_unit_43424.cif
_audit_creation_date              2012-12-10T17:50:11-0500
_audit_creation_method            fapswitch 2.2
_symmetry_space_group_name_H-M    P1
_symmetry_Int_Tables_number       1
_space_group_crystal_system       triclinic
_cell_length_a                    10.621167
_cell_length_b                    14.704911
_cell_length_c                    14.713937
_cell_angle_alpha                 65.192675
_cell_angle_beta                  103.019017
_cell_angle_gamma                 102.677709
_cell_volume                      2012.00780585

loop_
_atom_site_label
_atom_site_type_symbol
_atom_type_description
_atom_site_fract_x
_atom_site_fract_y
_atom_site_fract_z
_atom_type_partial_charge
C1    C     C_R   0.477319 0.119648 0.312341 0.818437
C2    C     C_R   0.521309 0.880377 0.687627 0.819665
C3    C     C_R   0.475281 0.291544 0.178840 -0.218784
C4    C     C_R   0.511724 0.708504 0.821074 -0.212215
C5    C     C_R   0.460406 0.359994 0.077340 0.097942
C6    C     C_R   0.497163 0.639113 0.920023 0.093110
C7    C     C_R   0.436794 0.320615 0.001121 0.153984
C8    C     C_R   0.506963 0.678111 0.995060 0.146693
C9    C     C_R   0.472336 0.466336 0.049812 0.064817
C10   C     C_R   0.473919 0.532518 0.946372 0.070915
C11   C     C_R   0.449078 0.489906 0.872605 -0.166487
C12   C     C_R   0.480227 0.508510 0.121952 -0.159691
C13   C     C_R   0.429655 0.386015 0.899746 -0.165217
C14   C     C_R   0.496728 0.612311 0.094708 -0.153528
C15   C     C_R   0.710230 0.280650 0.673429 -0.242157
C16   C     C_R   0.288005 0.718750 0.327549 -0.245286
C17   C     C_R   0.679607 0.201069 0.641113 0.074086
C18   C     C_R   0.319919 0.798830 0.359173 0.073580
C19   C     C_R   0.520632 0.286019 0.508550 0.036708
C20   C     C_R   0.478705 0.713660 0.491757 0.034972
C21   C     C_R   0.548244 0.370834 0.536527 -0.045740
C22   C     C_R   0.449504 0.628239 0.464656 -0.044938
C23   C     C_R   0.259742 0.000462 0.500236 0.864680
C24   C     C_R   0.740265 0.999548 0.499751 0.866204
C25   C     C_R   0.644203 0.365769 0.622515 0.064217
C26   C     C_R   0.353075 0.633160 0.378967 0.067235
C27   C     C_R   0.483166 0.458898 0.483426 0.017304
C28   C     C_R   0.513670 0.539775 0.518260 0.012808
C29   C     C_R   0.606439 0.529275 0.606098 -0.259834
C30   C     C_R   0.389062 0.468840 0.396373 -0.263748
C31   C     C_R   0.671200 0.444926 0.656873 0.373404
C32   C     C_R   0.324463 0.553282 0.345548 0.363325
C33   C     C_3   0.017297 0.012724 0.408638 0.435395
C34   C     C_3   0.982742 0.987315 0.591321 0.434835
C35   C     C_3   0.962877 0.088719 0.431185 -0.240133
C36   C     C_3   0.037156 0.911318 0.568775 -0.240941
C37   C     C_3   0.876660 0.998858 0.499379 -0.125835
C38   C     C_3   0.123364 0.001175 0.500585 -0.125336
C39   C     C_3   0.929039 0.922981 0.475630 -0.214528
C40   C     C_3   0.070995 0.077055 0.524327 -0.215052
C41   C     C_R   0.461188 0.187203 0.204777 -0.042058
C42   C     C_R   0.525173 0.812801 0.794849 -0.043001
C43   C     C_R   0.421408 0.215844 0.027147 -0.153727
C44   C     C_R   0.525790 0.782965 0.969447 -0.154321
C45   C     C_R   0.432539 0.149408 0.128426 -0.144482
C46   C     C_R   0.533561 0.850004 0.869647 -0.151750
Cu1   Cu    Cu3+1 0.465750 0.918270 0.475680 0.970691
Cu2   Cu    Cu3+1 0.534250 0.081730 0.524320 0.971022
H1    H     H_    0.929562 0.160660 0.374309 0.185833
H2    H     H_    0.070491 0.839384 0.625655 0.185167
H3    H     H_    0.554211 0.718582 0.552585 0.126860
H4    H     H_    0.445946 0.281304 0.447208 0.126447
H5    H     H_    0.270695 0.864952 0.318604 0.166689
H6    H     H_    0.729268 0.135161 0.681484 0.167827
H7    H     H_    0.784602 0.274187 0.738690 0.208622
H8    H     H_    0.213312 0.725151 0.262485 0.209269
H9    H     H_    0.630752 0.585395 0.638572 0.165813
H10   H     H_    0.362972 0.411969 0.364851 0.162671
H11   H     H_    0.868887 0.860577 0.454919 0.184108
H12   H     H_    0.131156 0.139458 0.545036 0.183680
H13   H     H_    0.410578 0.356723 0.840756 0.153224
H14   H     H_    0.501763 0.641254 0.152367 0.160519
H15   H     H_    0.513823 0.683481 0.762532 0.147319
H16   H     H_    0.501901 0.317869 0.239537 0.147724
H17   H     H_    0.544192 0.930562 0.850862 0.162168
H18   H     H_    0.420886 0.068854 0.146894 0.161186
H19   H     H_    0.401821 0.185365 0.969067 0.146814
H20   H     H_    0.532451 0.813054 0.026440 0.146423
H21   H     H_    0.440092 0.534449 0.792396 0.142368
H22   H     H_    0.469892 0.463394 0.200105 0.147117
N1    N     N_R   0.585750 0.204560 0.560800 -0.188044
N2    N     N_R   0.414250 0.795440 0.439200 -0.187500
O1    O     O_R   0.454850 0.022100 0.338110 -0.584613
O2    O     O_R   0.545150 0.977900 0.661890 -0.583867
O3    O     O_R   0.512700 0.160150 0.379180 -0.598462
O4    O     O_R   0.487300 0.839850 0.620820 -0.598721
O5    O     O_R   0.287930 0.931000 0.479440 -0.562606
O6    O     O_R   0.712070 0.069000 0.520560 -0.562148
O7    O     O_R   0.345780 0.069050 0.520520 -0.591825
O8    O     O_R   0.654220 0.930950 0.479480 -0.590994
Cl1   Cl    Cl    0.043730 0.030198 0.286683 -0.608645
Cl2   Cl    Cl    0.956467 0.969896 0.713293 -0.609529
Cl3   Cl    Cl    0.784932 0.441666 0.765801 -0.603504
Cl4   Cl    Cl    0.208640 0.555627 0.237867 -0.614630

loop_
_geom_bond_atom_site_label_1
_geom_bond_atom_site_label_2
_ccdc_geom_bond_type
C25   C31   A    
C38   C40   S    
C26   C32   A    
C40   H12   S    
C34   C37   S    
C19   N1    A    
C36   H2    S    
C3    H16   S    
C4    H15   S    
C33   C39   S    
C34   C40   S    
Cu2   O7    S    
C28   C29   A    
C35   C37   S    
Cu1   O4    S    
C20   H3    S    
C15   C25   A    
C14   H14   S    
C31   Cl3   S    
C42   C46   A    
Cu2   O6    S    
C12   H22   S    
C18   H5    S    
C19   H4    S    
C24   O8    A    
C35   H1    S    
C7    C43   A    
C9    C10   A    
C2    O2    A    
C21   C27   A    
C22   C28   A    
C27   C30   A    
C18   N2    A    
Cu2   O3    S    
Cu1   O8    S    
C44   C46   A    
C16   C26   A    
C32   Cl4   S    
C1    O3    A    
Cu2   O2    S    
Cu1   O1    S    
C46   H17   S    
C4    C6    A    
C5    C7    A    
C6    C8    A    
C15   H7    S    
C16   H8    S    
C43   H19   S    
C5    C9    A    
Cu1   Cu2   S    
C39   H11   S    
C24   C37   S    
C16   C18   A    
C23   O5    A    
C43   C45   A    
C24   O6    A    
C29   H9    S    
C17   N1    A    
C44   H20   S    
C20   C22   A    
Cu2   N1    S    
C45   H18   S    
C2    O4    A    
C1    C41   S    
C15   C17   A    
C21   C25   A    
C3    C41   A    
C8    C14   A    
C19   C21   A    
C36   C39   S    
C8    C44   A    
C12   C14   A    
C3    C5    A    
C6    C10   A    
C11   H21   S    
C23   C38   S    
C33   C38   S    
C1    O1    A    
C36   C38   S    
C35   C40   S    
C37   C39   S    
C41   C45   A    
C30   C32   A    
C11   C13   A    
C4    C42   A    
C2    C42   S    
C30   H10   S    
C33   C35   S    
C34   C36   S    
C9    C12   A    
Cu1   N2    S    
C10   C11   A    
C7    C13   A    
C13   H13   S    
C29   C31   A    
C22   C26   A    
C27   C28   A    
Cu1   O5    S    
C20   N2    A    
C34   Cl2   S    
C23   O7    A    
C33   Cl1   S    
C17   H6    S    
