data_mof_unit_18919.cif
_audit_creation_date              2012-12-11T15:14:42-0500
_audit_creation_method            fapswitch 2.2
_symmetry_space_group_name_H-M    P1
_symmetry_Int_Tables_number       1
_space_group_crystal_system       triclinic
_cell_length_a                    22.377427
_cell_length_b                    7.229354
_cell_length_c                    19.337964
_cell_angle_alpha                 89.999736
_cell_angle_beta                  98.351795
_cell_angle_gamma                 90.00012
_cell_volume                      3095.20950103

loop_
_atom_site_label
_atom_site_type_symbol
_atom_type_description
_atom_site_fract_x
_atom_site_fract_y
_atom_site_fract_z
_atom_type_partial_charge
O1    O     O_R   0.448470 0.506130 0.415700 -0.523809
O2    O     O_R   0.551530 0.006130 0.584300 -0.523808
O3    O     O_R   0.436320 0.174490 0.555800 -0.529647
O4    O     O_R   0.563680 0.674490 0.444200 -0.529647
C1    C     C_R   0.421788 0.343943 0.575966 0.717591
C2    C     C_R   0.578212 0.843944 0.424034 0.717592
O5    O     O_R   0.441350 0.176340 0.414480 -0.537266
O6    O     O_R   0.558650 0.676340 0.585520 -0.537265
O7    O     O_R   0.556600 0.007100 0.441970 -0.521138
O8    O     O_R   0.443400 0.507100 0.558030 -0.521138
C3    C     C_R   0.424473 0.345930 0.391579 0.705355
C4    C     C_R   0.575527 0.845929 0.608422 0.705357
O9    O     O_3   0.537810 0.339550 0.509190 -0.359808
O10   O     O_3   0.462190 0.839550 0.490810 -0.359809
V1    V     V_3+5 0.492990 0.064280 0.498300 1.546473
V2    V     V_3+5 0.507010 0.564280 0.501700 1.546474
C5    C     C_R   0.871774 0.946713 0.698473 -0.141378
C6    C     C_R   0.128226 0.446705 0.301525 -0.141386
H1    H     H_    0.957650 0.949439 0.763051 0.113412
H2    H     H_    0.042351 0.449411 0.236945 0.113413
H3    H     H_    0.793579 0.008607 0.587271 0.151498
H4    H     H_    0.206421 0.508614 0.412727 0.151501
H5    H     H_    0.892018 0.963076 0.651194 0.122386
H6    H     H_    0.107984 0.463058 0.348802 0.122393
C7    C     C_R   0.884570 0.937355 0.824325 -0.058648
C8    C     C_R   0.115429 0.437354 0.175676 -0.058645
C9    C     C_R   0.594836 0.777436 0.732739 -0.144016
C10   C     C_R   0.405160 0.277409 0.267263 -0.144008
C11   C     C_R   0.632225 0.736677 0.794447 -0.076713
C12   C     C_R   0.367770 0.236648 0.205557 -0.076714
C13   C     C_R   0.693631 0.773782 0.801271 -0.096730
C14   C     C_R   0.306365 0.273778 0.198732 -0.096728
C15   C     C_R   0.719061 0.865606 0.748370 0.060826
C16   C     C_R   0.280938 0.365615 0.251632 0.060825
C17   C     C_R   0.681299 0.899980 0.682559 0.028853
C18   C     C_R   0.318701 0.399989 0.317441 0.028852
C19   C     C_R   0.782520 0.907329 0.756921 0.040356
C20   C     C_R   0.217479 0.407339 0.243080 0.040364
C21   C     C_R   0.809016 0.935852 0.695606 0.084497
C22   C     C_R   0.190985 0.435858 0.304394 0.084492
C23   C     C_R   0.772720 0.967507 0.632151 -0.184394
C24   C     C_R   0.227280 0.467517 0.367848 -0.184400
C25   C     C_R   0.710118 0.970245 0.627180 0.088549
C26   C     C_R   0.289882 0.470256 0.372820 0.088550
C27   C     C_R   0.821041 0.926180 0.822829 0.066150
C28   C     C_R   0.178958 0.426188 0.177174 0.066152
C29   C     C_R   0.909178 0.940939 0.762134 -0.199957
C30   C     C_R   0.090822 0.440925 0.237864 -0.199963
C31   C     C_R   0.618024 0.852240 0.675272 -0.080122
C32   C     C_R   0.381974 0.352239 0.324728 -0.080123
H7    H     H_    0.547546 0.739524 0.728340 0.131406
H8    H     H_    0.452449 0.239476 0.271663 0.131405
H9    H     H_    0.721440 0.719354 0.846923 0.160032
H10   H     H_    0.278554 0.219354 0.153082 0.160030
H11   H     H_    0.613808 0.668182 0.836457 0.159350
H12   H     H_    0.386185 0.168131 0.163549 0.159346
C33   C     C_3   0.771085 0.790180 0.303241 -0.157289
C34   C     C_3   0.228914 0.290177 0.696759 -0.157289
C35   C     C_3   0.799327 0.976005 0.284222 -0.202124
C36   C     C_3   0.200672 0.476002 0.715776 -0.202123
H13   H     H_    0.840706 0.040396 0.312874 0.147881
H14   H     H_    0.159292 0.540390 0.687124 0.147881
H15   H     H_    0.789226 0.701164 0.348178 0.168399
H16   H     H_    0.210773 0.201159 0.651823 0.168401
C37   C     C_1   0.875022 0.941613 0.120897 -0.138000
C38   C     C_1   0.124978 0.441615 0.879102 -0.138001
C39   C     C_1   0.623928 0.852359 0.378020 -0.095499
C40   C     C_1   0.376072 0.352359 0.621979 -0.095498
C41   C     C_3   0.762629 0.731926 0.225077 -0.146967
C42   C     C_3   0.237371 0.231926 0.774924 -0.146966
C43   C     C_3   0.790318 0.917566 0.206618 0.024316
C44   C     C_3   0.209681 0.417566 0.793382 0.024317
C45   C     C_3   0.699202 0.822574 0.214111 0.178741
C46   C     C_3   0.300797 0.322577 0.785889 0.178739
C47   C     C_3   0.707953 0.879924 0.291573 0.033618
C48   C     C_3   0.292047 0.379924 0.708426 0.033618
C49   C     C_3   0.727279 0.007815 0.195060 0.158812
C50   C     C_3   0.272720 0.507818 0.804938 0.158810
C51   C     C_3   0.735651 0.064899 0.272981 0.151236
C52   C     C_3   0.264347 0.564899 0.727017 0.151236
C53   C     C_1   0.836764 0.932439 0.159403 0.036001
C54   C     C_1   0.163236 0.432440 0.840596 0.036000
C55   C     C_1   0.661906 0.862531 0.339217 0.090431
C56   C     C_1   0.338094 0.362531 0.660783 0.090432
H17   H     H_    0.773876 0.594453 0.204848 0.176381
H18   H     H_    0.226125 0.094453 0.795154 0.176381
O11   O     O_R   0.056650 0.288730 0.942060 -0.535402
O12   O     O_R   0.943350 0.788730 0.057940 -0.535402
O13   O     O_R   0.058660 0.616870 0.085540 -0.531620
O14   O     O_R   0.941340 0.116870 0.914460 -0.531621
C57   C     C_R   0.073106 0.448127 0.109987 0.722141
C58   C     C_R   0.926894 0.948128 0.890014 0.722142
O15   O     O_R   0.063700 0.618520 0.944220 -0.530522
O16   O     O_R   0.936300 0.118520 0.055780 -0.530522
O17   O     O_R   0.948460 0.787610 0.915680 -0.537624
O18   O     O_R   0.051540 0.287610 0.084320 -0.537624
C59   C     C_R   0.078880 0.450187 0.924644 0.728034
C60   C     C_R   0.921120 0.950187 0.075356 0.728034
O19   O     O_3   0.962230 0.453430 0.990860 -0.372777
O20   O     O_3   0.037770 0.953430 0.009140 -0.372777
V3    V     V_3+5 0.007010 0.728750 0.001700 1.488052
V4    V     V_3+5 0.992990 0.228750 0.998300 1.488051
I1    I     I_    0.712206 0.321958 0.316120 -0.399611
I2    I     I_    0.287791 0.821958 0.683875 -0.399613
I3    I     I_    0.694400 0.182395 0.108564 -0.226057
I4    I     I_    0.305599 0.682402 0.891433 -0.226062
I5    I     I_    0.619600 0.697362 0.159324 -0.229652
I6    I     I_    0.380400 0.197370 0.840676 -0.229654
I7    I     I_    0.787700 0.997459 0.918194 -0.366279
I8    I     I_    0.212298 0.497473 0.081813 -0.366281
I9    I     I_    0.671437 0.130915 0.541228 -0.357727
I10   I     I_    0.328562 0.630923 0.458773 -0.357725

loop_
_geom_bond_atom_site_label_1
_geom_bond_atom_site_label_2
_ccdc_geom_bond_type
C12   C14   A    
C39   C55   T    
O18   V4    S    
C9    C11   A    
C23   C25   A    
O1    C3    A    
O2    C4    A    
C48   C56   S    
C2    O7    A    
O12   V3    S    
C34   C48   S    
C21   C23   A    
O16   C60   A    
O5    C3    A    
C5    H5    S    
C46   C48   S    
C52   I2    S    
C6    H6    S    
C10   C32   A    
C38   C59   S    
C37   C60   S    
C27   I7    S    
C33   C35   S    
C36   C44   S    
C34   C36   S    
C36   H14   S    
C5    C21   A    
C41   C43   S    
C6    C22   A    
C42   C46   S    
O14   V4    S    
C44   C50   S    
C57   O18   A    
C37   C53   T    
C17   C31   A    
C13   C15   A    
C41   C45   S    
O13   C57   A    
C17   C25   A    
C7    C29   A    
C16   C18   A    
C8    C30   A    
O5    V1    S    
O6    V2    S    
C45   C47   S    
C51   I1    S    
C24   C26   A    
C1    C40   S    
C14   H10   S    
C9    H7    S    
C33   H15   S    
C49   C51   S    
C34   H16   S    
C35   H13   S    
C40   C56   T    
C48   C52   S    
O4    C2    A    
C35   C51   S    
O15   V3    S    
C34   C42   S    
O11   C59   A    
C11   H11   S    
C8    C57   S    
C12   H12   S    
C58   O17   A    
C15   C19   A    
C14   C16   A    
O4    V2    S    
C4    C31   S    
C41   H17   S    
C38   C54   T    
O11   V4    S    
O15   C59   A    
O14   C58   A    
O6    C4    A    
C50   C52   S    
O1    V2    S    
C13   H9    S    
O2    V1    S    
H2    C30   S    
H3    C23   S    
C26   I10   S    
C2    C39   S    
C28   I8    S    
C18   C26   A    
C19   C27   A    
C42   H18   S    
C7    C27   A    
C43   C49   S    
C18   C32   A    
C36   C52   S    
C7    C58   S    
O13   V3    S    
C16   C20   A    
C5    C29   A    
O3    C1    A    
C6    C30   A    
C49   I3    S    
C50   I4    S    
C33   C47   S    
C10   C12   A    
O7    V1    S    
C1    O8    A    
C11   C13   A    
C3    C32   S    
O8    V2    S    
C20   C22   A    
C10   H8    S    
C47   C55   S    
H4    C24   S    
C22   C24   A    
O20   V3    S    
C15   C17   A    
H1    C29   S    
O12   C60   A    
C20   C28   A    
C45   I5    S    
C8    C28   A    
C46   I6    S    
C25   I9    S    
O17   V3    S    
O19   V4    S    
O16   V4    S    
C19   C21   A    
C46   C50   S    
O9    V2    S    
C45   C49   S    
O10   V1    S    
O3    V1    S    
C42   C44   S    
C33   C41   S    
C47   C51   S    
C44   C54   S    
C9    C31   A    
C35   C43   S    
C43   C53   S    
