data_mof_unit_50400.cif
_audit_creation_date              2012-12-11T14:32:56-0500
_audit_creation_method            fapswitch 2.2
_symmetry_space_group_name_H-M    P1
_symmetry_Int_Tables_number       1
_space_group_crystal_system       triclinic
_cell_length_a                    6.992117
_cell_length_b                    13.851571
_cell_length_c                    17.95545
_cell_angle_alpha                 111.660843
_cell_angle_beta                  95.245304
_cell_angle_gamma                 89.986901
_cell_volume                      1608.39336348

loop_
_atom_site_label
_atom_site_type_symbol
_atom_type_description
_atom_site_fract_x
_atom_site_fract_y
_atom_site_fract_z
_atom_type_partial_charge
O1    O     O_R   0.484560 0.544530 0.414330 -0.549392
O2    O     O_R   0.197040 0.638810 0.585080 -0.497171
O3    O     O_R   0.026800 0.455470 0.585670 -0.527635
C1    C     C_R   0.372450 0.679089 0.610420 0.765865
O4    O     O_R   0.155000 0.556150 0.414940 -0.549388
O5    O     O_R   0.984450 0.372220 0.414320 -0.536048
C2    C     C_R   0.317912 0.565386 0.386894 0.736699
O6    O     O_R   0.526900 0.627780 0.585680 -0.484383
O7    O     O_3   0.339170 0.439750 0.499990 -0.366206
V1    V     V_3+5 0.064350 0.511180 0.500000 1.593152
O8    O     O_R   0.654880 0.361190 0.414920 -0.549602
C3    C     C_R   0.817968 0.324822 0.386859 0.753949
O9    O     O_R   0.696930 0.443850 0.585060 -0.532519
C4    C     C_R   0.873259 0.444378 0.617180 0.802483
V2    V     V_3+5 0.564340 0.488820 0.500000 1.574287
O10   O     O_3   0.839390 0.560250 0.500010 -0.318501
C5    C     C_R   0.051837 0.900496 0.849062 -0.113770
C6    C     C_R   0.908009 0.419716 0.690041 -0.087653
C7    C     C_R   0.969647 0.866204 0.707862 0.409994
C8    C     C_R   0.015468 0.832157 0.770843 -0.192758
C9    C     C_R   0.051429 0.008937 0.865235 -0.242194
C10   C     C_R   0.015353 0.046532 0.800568 0.061994
C11   C     C_R   0.974589 0.971630 0.721214 -0.017540
C12   C     C_R   0.016247 0.154399 0.810203 0.104008
C13   C     C_R   0.971528 0.181933 0.741045 0.047448
C14   C     C_R   0.946121 0.103702 0.664578 -0.208557
C15   C     C_R   0.945320 0.001821 0.655154 -0.134361
C16   C     C_R   0.065114 0.235613 0.884995 -0.187702
C17   C     C_R   0.073636 0.339132 0.890996 -0.220139
C18   C     C_R   0.024094 0.365442 0.823638 0.116070
C19   C     C_R   0.962879 0.287208 0.748782 0.076628
C20   C     C_R   0.036374 0.469131 0.829752 -0.115343
C21   C     C_R   0.982894 0.495901 0.763032 -0.167911
C22   C     C_R   0.895939 0.316895 0.683567 -0.163701
H1    H     H_    0.926638 0.946986 0.593799 0.209166
H2    H     H_    0.832837 0.262256 0.626592 0.152721
H3    H     H_    0.999567 0.575960 0.768418 0.112074
H4    H     H_    0.118565 0.399195 0.948927 0.116239
H5    H     H_    0.019100 0.750111 0.760219 0.145706
H6    H     H_    0.077996 0.061167 0.927180 0.101625
H7    H     H_    0.933943 0.118100 0.609392 0.178210
H8    H     H_    0.103986 0.220791 0.939210 0.118902
H9    H     H_    0.090071 0.529091 0.885943 0.158154
H10   H     H_    0.114467 0.221282 0.308800 0.153118
H11   H     H_    0.834935 0.035835 0.195330 0.153432
C23   C     C_2   0.133708 0.035992 0.183817 -0.321649
C24   C     C_2   0.972632 0.077556 0.217844 -0.120340
H12   H     H_    0.677814 0.179984 0.296288 0.117895
C25   C     C_2   0.815211 0.221808 0.319472 -0.321815
C26   C     C_2   0.976641 0.179771 0.286031 -0.076763
H13   H     H_    0.271019 0.077979 0.206809 0.126647
C27   C     C_R   0.402076 0.787475 0.676100 -0.036405
C28   C     C_R   0.540380 0.474000 0.828412 -0.040251
C29   C     C_R   0.521215 0.888246 0.814778 -0.130840
C30   C     C_R   0.472584 0.793132 0.752876 -0.153148
C31   C     C_R   0.389387 0.883433 0.661603 -0.057029
C32   C     C_R   0.453121 0.983340 0.724565 0.054354
C33   C     C_R   0.508475 0.982272 0.802240 0.116426
C34   C     C_R   0.461994 0.084482 0.716100 -0.013749
C35   C     C_R   0.499513 0.179824 0.785309 0.072340
C36   C     C_R   0.543133 0.171470 0.860588 -0.155157
C37   C     C_R   0.552097 0.075168 0.868238 -0.192092
C38   C     C_R   0.444894 0.094164 0.640876 -0.257039
C39   C     C_R   0.412817 0.188085 0.631321 0.396354
C40   C     C_R   0.440495 0.282171 0.698725 -0.031326
C41   C     C_R   0.496333 0.280041 0.776441 0.043664
C42   C     C_R   0.424391 0.378358 0.689056 -0.074010
C43   C     C_R   0.473064 0.471769 0.752424 -0.172745
C44   C     C_R   0.547276 0.378377 0.841116 -0.177090
H14   H     H_    0.591506 0.073507 0.927562 0.108950
H15   H     H_    0.593024 0.383072 0.901350 0.089032
H16   H     H_    0.458783 0.543396 0.741605 0.085747
H17   H     H_    0.570887 0.888228 0.873697 0.144772
H18   H     H_    0.489789 0.722833 0.765402 0.100177
H19   H     H_    0.573447 0.238669 0.915159 0.114741
H20   H     H_    0.470805 0.030614 0.587549 0.198767
H21   H     H_    0.378753 0.383191 0.631650 0.203094
H22   H     H_    0.335619 0.668395 0.195053 0.156088
H23   H     H_    0.614080 0.591878 0.308749 0.143838
C45   C     C_2   0.314928 0.603067 0.319369 -0.305403
C46   C     C_2   0.476567 0.611952 0.285948 -0.117581
H24   H     H_    0.771605 0.636356 0.207089 0.125657
C47   C     C_2   0.634481 0.656362 0.183919 -0.337891
C48   C     C_2   0.473093 0.648124 0.217727 -0.114845
H25   H     H_    0.177800 0.622962 0.296119 0.125406
O11   O     O_R   0.421600 0.630430 0.917010 -0.542032
O12   O     O_R   0.793840 0.702190 0.087630 -0.542111
O13   O     O_R   0.964010 0.886170 0.088190 -0.541039
C49   C     C_R   0.631136 0.693352 0.115993 0.760782
O14   O     O_R   0.751460 0.619510 0.917500 -0.538274
O15   O     O_R   0.921330 0.802900 0.916840 -0.534759
C50   C     C_R   0.575304 0.578758 0.894661 0.680158
O16   O     O_R   0.464290 0.713700 0.088350 -0.537431
O17   O     O_3   0.609200 0.818520 0.002630 -0.379090
V3    V     V_3+5 0.884140 0.747190 0.002530 1.380146
O18   O     O_R   0.251150 0.814630 0.917340 -0.540344
C51   C     C_R   0.078291 0.851308 0.910093 0.695371
O19   O     O_R   0.293530 0.897310 0.087470 -0.546173
C52   C     C_R   0.130647 0.933355 0.115957 0.737101
V4    V     V_3+5 0.384070 0.769710 0.002370 1.373967
O20   O     O_3   0.109180 0.698190 0.002460 -0.382877
S1    S     S_3+6 0.348763 0.182253 0.531570 -0.038555
O21   O     O_2   0.308939 0.071481 0.474908 -0.327769
O22   O     O_2   0.171538 0.242671 0.528896 -0.352522
O23   O     O_3   0.531323 0.233203 0.501735 -0.516410
H26   H     H_    0.519552 0.198462 0.442345 0.355742
C53   C     C_1   0.329870 0.873781 0.579842 0.404729
N1    N     N_1   0.286649 0.865542 0.513835 -0.282574
S2    S     S_3+6 0.878320 0.772974 0.616085 -0.060162
O24   O     O_2   0.857687 0.677047 0.634931 -0.354857
O25   O     O_2   0.690232 0.804008 0.588676 -0.402941
O26   O     O_3   0.008189 0.754282 0.538275 -0.518334
H27   H     H_    0.915435 0.740245 0.490019 0.354033

loop_
_geom_bond_atom_site_label_1
_geom_bond_atom_site_label_2
_ccdc_geom_bond_type
C33   C37   A    
C23   C52   S    
C13   C19   A    
C4    C6    S    
O2    C1    A    
C7    C8    A    
C42   H21   S    
C1    O6    A    
C28   C44   A    
C3    C25   S    
O14   V3    S    
C36   H19   S    
C39   S1    S    
C14   C15   A    
C17   C18   A    
C1    C27   S    
C16   C17   A    
S2    O25   D    
O5    C3    A    
C18   C19   A    
C32   C34   A    
C41   C44   A    
C38   H20   S    
V2    O10   S    
O19   C52   A    
C5    C8    A    
C31   C32   A    
C37   H14   S    
S1    O23   S    
C44   H15   S    
C28   C43   A    
S1    O21   D    
C23   C24   D    
C30   H18   S    
O8    V2    S    
C40   C42   A    
O12   V3    S    
C17   H4    S    
V3    O20   S    
C53   N1    T    
O1    V2    S    
C11   C15   A    
O11   V4    S    
O7    V1    S    
C27   C30   A    
C7    S2    S    
O13   V3    S    
C35   C41   A    
C34   C35   A    
O9    C4    A    
O17   V3    S    
O26   H27   S    
C24   C26   S    
H11   C24   S    
C47   C49   S    
C42   C43   A    
C12   C13   A    
S2    O26   S    
H23   C46   S    
C8    H5    S    
C15   H1    S    
C13   C14   A    
C23   H13   S    
C21   H3    S    
C35   C36   A    
C7    C11   A    
C31   C53   S    
C45   H25   S    
C29   H17   S    
O14   C50   A    
C47   C48   D    
O17   V4    S    
C43   H16   S    
O18   C51   A    
C28   C50   S    
C19   C22   A    
O15   C51   A    
S1    O22   D    
C6    C22   A    
O16   V4    S    
O3    C4    A    
H12   C25   S    
H24   C47   S    
O6    V2    S    
O19   V4    S    
O12   C49   A    
C10   C12   A    
O2    V1    S    
C46   C48   S    
O4    C2    A    
C29   C33   A    
H10   C26   S    
C29   C30   A    
O1    C2    A    
C12   C16   A    
C45   C46   D    
O5    V1    S    
O8    C3    A    
O23   H26   S    
C34   C38   A    
C20   C21   A    
O9    V2    S    
O7    V2    S    
O4    V1    S    
O3    V1    S    
O11   C50   A    
S2    O24   D    
C39   C40   A    
C18   C20   A    
C32   C33   A    
C9    H6    S    
O18   V4    S    
C16   H8    S    
V4    O20   S    
C20   H9    S    
C22   H2    S    
C40   C41   A    
C49   O16   A    
C36   C37   A    
C6    C21   A    
C5    C9    A    
O13   C52   A    
O15   V3    S    
C38   C39   A    
H22   C48   S    
C25   C26   D    
C10   C11   A    
V1    O10   S    
C9    C10   A    
C5    C51   S    
C27   C31   A    
C14   H7    S    
C2    C45   S    
