data_mof_unit_63625.cif
_audit_creation_date              2012-12-10T21:02:19-0500
_audit_creation_method            fapswitch 2.2
_symmetry_space_group_name_H-M    P1
_symmetry_Int_Tables_number       1
_space_group_crystal_system       triclinic
_cell_length_a                    15.09289
_cell_length_b                    15.843918
_cell_length_c                    16.851667
_cell_angle_alpha                 89.977113
_cell_angle_beta                  83.546023
_cell_angle_gamma                 90.086797
_cell_volume                      4004.20383362

loop_
_atom_site_label
_atom_site_type_symbol
_atom_type_description
_atom_site_fract_x
_atom_site_fract_y
_atom_site_fract_z
_atom_type_partial_charge
C1    C     C_R   0.500058 0.661094 0.500125 0.938689
C2    C     C_R   0.499931 0.338903 0.499985 0.934244
C3    C     C_R   0.478816 0.043696 0.432506 -0.146320
C4    C     C_R   0.520959 0.956282 0.567845 -0.145900
C5    C     C_R   0.499819 0.086862 0.500147 0.139753
C6    C     C_R   0.499976 0.913120 0.500196 0.138874
C7    C     C_R   0.520887 0.043801 0.567819 -0.135526
C8    C     C_R   0.478890 0.956178 0.432531 -0.134060
C9    C     C_1   0.499804 0.175659 0.500099 -0.018801
C10   C     C_1   0.500083 0.824328 0.500201 -0.016178
C11   C     C_1   0.500131 0.749484 0.500180 -0.087769
C12   C     C_1   0.499827 0.250508 0.500045 -0.094496
C13   C     C_R   0.038628 0.498175 0.572424 0.335851
C14   C     C_R   0.961370 0.501905 0.427567 0.335887
C15   C     C_R   0.094944 0.500971 0.499479 -0.172208
C16   C     C_R   0.905056 0.499093 0.500513 -0.171983
C17   C     C_R   0.056110 0.502242 0.426600 -0.133039
C18   C     C_R   0.943890 0.497848 0.573391 -0.133070
C19   C     C_1   0.193042 0.500389 0.499804 0.171759
C20   C     C_1   0.806958 0.499640 0.500192 0.170084
C21   C     C_R   0.486402 0.499469 0.653141 0.973190
C22   C     C_R   0.513612 0.501220 0.346831 0.972280
C23   C     C_R   0.474189 0.496437 0.739149 -0.233015
C24   C     C_R   0.526171 0.511796 0.261277 -0.234428
C25   C     C_R   0.511059 0.429366 0.779265 0.179687
C26   C     C_R   0.489335 0.582671 0.226536 0.177081
C27   C     C_R   0.502000 0.428996 0.862694 0.287777
C28   C     C_R   0.501438 0.592196 0.143592 0.286572
C29   C     C_R   0.456748 0.495923 0.904306 -0.037769
C30   C     C_R   0.549690 0.530617 0.096935 -0.034786
C31   C     C_R   0.415103 0.558754 0.864257 -0.160390
C32   C     C_R   0.591537 0.464286 0.132151 -0.158318
C33   C     C_R   0.423744 0.559675 0.781637 0.234942
C34   C     C_R   0.579891 0.454256 0.214265 0.237316
C35   C     C_2   0.463283 0.508538 0.988368 -0.096412
C36   C     C_2   0.542992 0.524528 0.012209 -0.092889
H1    H     H_    0.603465 0.522307 0.970569 0.190650
H2    H     H_    0.402759 0.509553 0.029989 0.192953
H3    H     H_    0.380549 0.609971 0.897217 0.215784
H4    H     H_    0.628196 0.417030 0.095366 0.218340
H5    H     H_    0.462655 0.922201 0.380238 0.179528
H6    H     H_    0.537134 0.077776 0.620107 0.177679
H7    H     H_    0.462533 0.077588 0.380188 0.169093
H8    H     H_    0.537252 0.922388 0.620158 0.168949
N1    N     N_1   0.729450 0.499980 0.500020 -0.067195
N2    N     N_1   0.270550 0.500020 0.499980 -0.065926
O1    O     O_R   0.426350 0.621980 0.500000 -0.578080
O2    O     O_R   0.573650 0.378020 0.500000 -0.582855
O3    O     O_R   0.573690 0.621980 0.499960 -0.620314
O4    O     O_R   0.426310 0.378020 0.500040 -0.618686
O5    O     O_R   0.417630 0.500010 0.615820 -0.577466
O6    O     O_R   0.582370 0.499990 0.384180 -0.578472
O7    O     O_R   0.564960 0.500010 0.615780 -0.602481
O8    O     O_R   0.435040 0.499990 0.384220 -0.600674
Zn1   Zn    Zn3+2 0.401630 0.500000 0.500020 1.065474
Zn2   Zn    Zn3+2 0.598370 0.500000 0.499980 1.062533
Br1   Br    Br    0.572166 0.337888 0.720502 -0.414554
Br2   Br    Br    0.424367 0.667320 0.291779 -0.421360
Br3   Br    Br    0.632522 0.357129 0.258693 -0.402857
Br4   Br    Br    0.372043 0.652651 0.729812 -0.414594
Br5   Br    Br    0.451860 0.688141 0.093526 -0.372046
Br6   Br    Br    0.551153 0.337933 0.919967 -0.373741
C37   C     C_2   0.883943 0.495916 0.649892 0.518269
H9    H     H_    0.818603 0.466735 0.652248 0.070238
O9    O     O_2   0.904735 0.529617 0.710220 -0.473596
C38   C     C_2   0.116061 0.504219 0.350102 0.518418
H10   H     H_    0.181409 0.533379 0.347771 0.070879
O10   O     O_2   0.095260 0.470587 0.289745 -0.473068
Br7   Br    Br    0.093849 0.489363 0.670322 -0.328770
Br8   Br    Br    0.906138 0.510731 0.329674 -0.328680

loop_
_geom_bond_atom_site_label_1
_geom_bond_atom_site_label_2
_ccdc_geom_bond_type
N2    Zn1   S    
C6    C10   S    
C38   O10   D    
C31   C33   A    
C5    C9    S    
C27   Br6   S    
C27   C29   A    
O3    Zn2   S    
C5    C7    A    
C29   C35   S    
C26   C28   A    
C35   C36   D    
C1    C11   S    
C13   C15   A    
C30   C36   S    
C16   C20   S    
C2    C12   S    
C28   Br5   S    
C35   H2    S    
C28   C30   A    
C38   H10   S    
C19   N2    T    
C22   O8    A    
C21   O7    A    
C14   Br8   S    
C14   C17   A    
C3    H7    S    
C17   C38   S    
C13   Br7   S    
C13   C18   A    
C4    C7    A    
C16   C18   A    
C36   H1    S    
C2    O2    A    
C24   C26   A    
C15   C19   S    
C33   Br4   S    
C14   C16   A    
C32   H4    S    
C21   C23   S    
C34   Br3   S    
C37   O9    D    
C9    C12   T    
C22   C24   S    
C18   C37   S    
O7    Zn2   S    
C4    C6    A    
C25   C27   A    
C10   C11   T    
O6    Zn2   S    
C37   H9    S    
C30   C32   A    
C20   N1    T    
C25   Br1   S    
C21   O5    A    
C23   C25   A    
C8    H5    S    
C23   C33   A    
C15   C17   A    
C3    C8    A    
C7    H6    S    
C2    O4    A    
O2    Zn2   S    
O1    Zn1   S    
O8    Zn1   S    
C1    O1    A    
C6    C8    A    
C4    H8    S    
O5    Zn1   S    
C22   O6    A    
C29   C31   A    
C1    O3    A    
C26   Br2   S    
C24   C34   A    
O4    Zn1   S    
N1    Zn2   S    
C31   H3    S    
C3    C5    A    
C32   C34   A    
