data_mof_unit_5300.cif
_audit_creation_date              2012-12-11T15:31:41-0500
_audit_creation_method            fapswitch 2.2
_symmetry_space_group_name_H-M    P1
_symmetry_Int_Tables_number       1
_space_group_crystal_system       triclinic
_cell_length_a                    6.941107
_cell_length_b                    14.75183
_cell_length_c                    21.342999
_cell_angle_alpha                 74.993929
_cell_angle_beta                  90.419179
_cell_angle_gamma                 90.093868
_cell_volume                      2110.81362747

loop_
_atom_site_label
_atom_site_type_symbol
_atom_type_description
_atom_site_fract_x
_atom_site_fract_y
_atom_site_fract_z
_atom_type_partial_charge
O1    O     O_R   0.648150 0.130050 0.214300 -0.541671
O2    O     O_R   0.351850 0.869950 0.785700 -0.539821
O3    O     O_R   0.320490 0.006660 0.340150 -0.524159
O4    O     O_R   0.679510 0.993340 0.659850 -0.532933
O5    O     O_R   0.146100 0.869940 0.285700 -0.550040
O6    O     O_R   0.853900 0.130060 0.714300 -0.542358
C1    C     C_R   0.489468 0.001629 0.366884 0.770038
C2    C     C_R   0.510473 0.998197 0.633140 0.765501
O7    O     O_R   0.318690 0.137980 0.218120 -0.538380
O8    O     O_R   0.681310 0.862020 0.781880 -0.536286
O9    O     O_R   0.144280 0.002190 0.162800 -0.546388
O10   O     O_R   0.855720 0.997810 0.837200 -0.543571
C3    C     C_R   0.487027 0.175709 0.205517 0.682573
C4    C     C_R   0.512997 0.824290 0.794478 0.689387
O11   O     O_R   0.649960 0.997790 0.337200 -0.540491
O12   O     O_R   0.350040 0.002210 0.662800 -0.552052
O13   O     O_3   0.479300 0.955290 0.231990 -0.382922
O14   O     O_3   0.520700 0.044710 0.768010 -0.376113
V1    V     V_3+5 0.206040 0.008290 0.253340 1.480637
V2    V     V_3+5 0.793960 0.991710 0.746660 1.460304
O15   O     O_R   0.814320 0.993320 0.159850 -0.548422
O16   O     O_R   0.185680 0.006680 0.840150 -0.544047
C5    C     C_R   0.982703 0.998364 0.132821 0.674219
C6    C     C_R   0.017297 0.001634 0.867179 0.687914
O17   O     O_R   0.816120 0.862000 0.281880 -0.533134
O18   O     O_R   0.183880 0.138000 0.718120 -0.542278
C7    C     C_R   0.985414 0.824444 0.293416 0.822171
C8    C     C_R   0.014736 0.175440 0.705588 0.732619
V3    V     V_3+5 0.705540 0.991700 0.246660 1.454540
V4    V     V_3+5 0.294460 0.008300 0.753340 1.434351
O19   O     O_3   0.982150 0.044700 0.268010 -0.366350
O20   O     O_3   0.017850 0.955300 0.731990 -0.367982
C9    C     C_R   0.996960 0.722877 0.320469 -0.084059
C10   C     C_R   0.003561 0.276619 0.675927 -0.128049
C11   C     C_R   0.064447 0.567550 0.308663 -0.177400
C12   C     C_R   0.937273 0.432775 0.686481 -0.189087
C13   C     C_R   0.060429 0.664717 0.282028 0.118717
C14   C     C_R   0.948605 0.336260 0.714447 0.161299
C15   C     C_R   0.943867 0.684716 0.385278 0.234220
C16   C     C_R   0.039723 0.313358 0.608668 0.243174
C17   C     C_R   0.983184 0.588457 0.415542 -0.014827
C18   C     C_R   0.997466 0.409366 0.578718 0.058901
C19   C     C_R   0.026070 0.529425 0.374596 0.062071
C20   C     C_R   0.962644 0.469418 0.619735 0.042446
C21   C     C_R   0.983038 0.548651 0.484290 0.049504
C22   C     C_R   0.994931 0.449101 0.509741 0.093311
C23   C     C_R   0.997284 0.393098 0.465122 -0.114923
C24   C     C_R   0.982256 0.605269 0.528334 -0.203438
C25   C     C_R   0.025010 0.432430 0.399445 -0.158256
C26   C     C_R   0.960697 0.566421 0.594288 -0.143088
H1    H     H_    0.040829 0.386407 0.367574 0.154627
H2    H     H_    0.948449 0.612952 0.625948 0.157300
H3    H     H_    0.101895 0.521671 0.278287 0.133984
H4    H     H_    0.905763 0.479533 0.716813 0.134473
H5    H     H_    0.975996 0.318382 0.479166 0.177643
H6    H     H_    0.999703 0.680387 0.513003 0.180531
C27   C     C_3   0.820846 0.994528 0.977218 -0.123463
C28   C     C_3   0.179157 0.005461 0.022784 -0.122224
C29   C     C_3   0.916831 0.919965 0.033453 -0.134770
C30   C     C_3   0.083172 0.080024 0.966550 -0.135445
H7    H     H_    0.848143 0.853977 0.061385 0.115381
H8    H     H_    0.151858 0.146013 0.938617 0.116709
H9    H     H_    0.672643 0.990068 0.958296 0.110103
H10   H     H_    0.327359 0.009920 0.041708 0.109445
C31   C     C_3   0.991945 0.998940 0.062184 -0.002475
C32   C     C_3   0.008057 0.001050 0.937818 -0.007941
C33   C     C_3   0.896071 0.073521 0.006732 -0.138976
C34   C     C_3   0.103931 0.926469 0.993270 -0.138582
H11   H     H_    0.809981 0.134097 0.012649 0.099920
H12   H     H_    0.190023 0.865893 0.987354 0.100271
C35   C     C_3   0.685125 0.996877 0.478881 -0.303894
C36   C     C_3   0.314691 0.002561 0.521155 -0.264558
C37   C     C_3   0.596218 0.073158 0.507907 0.144164
C38   C     C_3   0.403597 0.926261 0.492150 0.155488
H13   H     H_    0.836267 0.994678 0.462653 0.168804
H14   H     H_    0.163583 0.004891 0.537394 0.144932
C39   C     C_3   0.501052 0.998619 0.563087 -0.125110
C40   C     C_3   0.498678 0.000911 0.436981 -0.123242
C41   C     C_3   0.585535 0.922249 0.533863 0.328927
C42   C     C_3   0.414303 0.077176 0.466259 0.364862
C43   C     C_R   0.493726 0.277991 0.179211 -0.131086
C44   C     C_R   0.506575 0.722002 0.820781 -0.132410
C45   C     C_R   0.463042 0.436289 0.190574 -0.163064
C46   C     C_R   0.540190 0.563797 0.809491 -0.161966
C47   C     C_R   0.471581 0.340024 0.219248 0.348192
C48   C     C_R   0.530258 0.660019 0.780787 0.348790
C49   C     C_R   0.508686 0.313586 0.111833 -0.259845
C50   C     C_R   0.491564 0.686393 0.888155 -0.259939
C51   C     C_R   0.498916 0.411230 0.082079 0.085437
C52   C     C_R   0.503209 0.588808 0.917958 0.085590
C53   C     C_R   0.475224 0.472129 0.123079 0.061913
C54   C     C_R   0.528059 0.527952 0.876986 0.061614
C55   C     C_R   0.509052 0.450267 0.013235 0.073254
C56   C     C_R   0.493768 0.549799 0.986819 0.073188
C57   C     C_R   0.470282 0.606902 0.030159 -0.182640
C58   C     C_R   0.533852 0.393213 0.969927 -0.183202
C59   C     C_R   0.462029 0.568689 0.096678 -0.183322
C60   C     C_R   0.542607 0.431442 0.903417 -0.183039
H15   H     H_    0.443936 0.615529 0.127869 0.119785
H16   H     H_    0.562131 0.384661 0.872251 0.121206
H17   H     H_    0.475492 0.737460 0.915804 0.108458
H18   H     H_    0.523042 0.262482 0.084132 0.108391
H19   H     H_    0.445113 0.483525 0.221510 0.134708
H20   H     H_    0.559243 0.516607 0.778579 0.135290
H21   H     H_    0.457404 0.682068 0.014493 0.115129
H22   H     H_    0.548101 0.318107 0.985639 0.115088
O21   O     O_3   0.671630 0.839527 0.570265 -0.637780
H23   H     H_    0.718300 0.806951 0.538079 0.301849
O22   O     O_3   0.328192 0.159922 0.429901 -0.636917
H24   H     H_    0.283763 0.193018 0.462083 0.317775
O23   O     O_3   0.545459 0.689603 0.714041 -0.633736
H25   H     H_    0.523764 0.758101 0.699149 0.297247
O24   O     O_3   0.456619 0.310467 0.286002 -0.632274
H26   H     H_    0.476641 0.241846 0.300856 0.296833
O25   O     O_3   0.131253 0.260167 0.572944 -0.664763
H27   H     H_    0.147575 0.194257 0.597997 0.280220
O26   O     O_3   0.841085 0.741557 0.415161 -0.659044
H28   H     H_    0.742424 0.701981 0.442781 0.283846
N1    N     N_3   0.913959 0.298631 0.782640 -0.680289
H29   H     H_    0.785925 0.260112 0.787271 0.226436
H30   H     H_    0.890688 0.352707 0.805168 0.226216
N2    N     N_3   0.109146 0.704387 0.215149 -0.688872
H31   H     H_    0.237743 0.741668 0.214281 0.226658
H32   H     H_    0.137303 0.651288 0.192156 0.229253
N3    N     N_3   0.697584 0.155733 0.516270 -0.644586
H33   H     H_    0.745131 0.192941 0.470484 0.245742
H34   H     H_    0.820694 0.132303 0.544209 0.228740
N4    N     N_3   0.299707 0.844513 0.483404 -0.640288
H35   H     H_    0.260664 0.804299 0.529425 0.246633
H36   H     H_    0.396669 0.804284 0.464714 0.223324

loop_
_geom_bond_atom_site_label_1
_geom_bond_atom_site_label_2
_ccdc_geom_bond_type
C32   C34   S    
C55   C56   A    
C52   C56   A    
C11   H3    S    
O13   V3    S    
O23   H25   S    
C27   C32   S    
O4    C2    A    
V1    O19   S    
N4    H35   S    
C35   C41   S    
C50   H17   S    
C54   C60   A    
C23   C25   A    
C21   C22   A    
C7    C9    S    
O9    V1    S    
C9    C15   A    
C45   H19   S    
C10   C16   A    
C11   C13   A    
C46   C48   A    
O3    C1    A    
C40   C42   S    
C27   C29   S    
C16   O25   S    
C28   C30   S    
O25   H27   S    
C3    C43   S    
C30   H8    S    
C18   C22   A    
O7    C3    A    
C57   H21   S    
O5    C7    A    
O7    V1    S    
O6    C8    A    
C30   C33   S    
O8    V2    S    
C31   C33   S    
C58   C60   A    
C42   O22   S    
C26   H2    S    
O21   H23   S    
O3    V1    S    
O14   V4    S    
C51   C53   A    
C11   C19   A    
C6    C32   S    
C24   C26   A    
C8    C10   S    
C2    O12   A    
C35   H13   S    
O17   V3    S    
C17   C19   A    
C18   C20   A    
C27   C33   S    
C59   H15   S    
O11   V3    S    
C39   C41   S    
C28   H10   S    
C38   N4    S    
C29   H7    S    
C36   C38   S    
O8    C4    A    
C35   C37   S    
C19   C25   A    
C1    O11   A    
C25   H1    S    
C44   C48   A    
O15   V3    S    
C9    C13   A    
C33   H11   S    
C36   C39   S    
C29   C34   S    
C49   H18   S    
C28   C31   S    
C52   C54   A    
C37   N3    S    
V3    O19   S    
O10   V2    S    
O1    V3    S    
C41   O21   S    
C36   H14   S    
C53   C59   A    
C43   C49   A    
N1    H30   S    
C1    C40   S    
C14   N1    S    
C28   C34   S    
C45   C47   A    
C50   C52   A    
O18   V4    S    
C55   C58   A    
C60   H16   S    
C38   C41   S    
O15   C5    A    
N3    H33   S    
C46   H20   S    
O16   C6    A    
C12   C20   A    
O1    C3    A    
C4    C44   S    
N2    H32   S    
C12   C14   A    
O6    V2    S    
C23   H5    S    
O24   H26   S    
V2    O20   S    
C21   C24   A    
C20   C26   A    
C24   H6    S    
C58   H22   S    
C22   C23   A    
C37   C39   S    
O16   V4    S    
C10   C14   A    
C27   H9    S    
C16   C18   A    
N4    H36   S    
N1    H29   S    
C57   C59   A    
O5    V1    S    
O17   C7    A    
C45   C53   A    
O10   C6    A    
O18   C8    A    
O2    V4    S    
C5    C31   S    
C47   O24   S    
C48   O23   S    
C36   C42   S    
C15   O26   S    
O26   H28   S    
C29   C31   S    
V4    O20   S    
C2    C39   S    
C44   C50   A    
O9    C5    A    
O13   V1    S    
C37   C42   S    
O14   V2    S    
C51   C55   A    
C56   C57   A    
O2    C4    A    
C12   H4    S    
C30   C32   S    
C13   N2    S    
O4    V2    S    
C15   C17   A    
C34   H12   S    
C38   C40   S    
N3    H34   S    
C49   C51   A    
C17   C21   A    
C46   C54   A    
N2    H31   S    
O22   H24   S    
O12   V4    S    
C35   C40   S    
C43   C47   A    
