data_mof_unit_64047.cif
_audit_creation_date              2012-12-10T19:13:37-0500
_audit_creation_method            fapswitch 2.2
_symmetry_space_group_name_H-M    P1
_symmetry_Int_Tables_number       1
_space_group_crystal_system       triclinic
_cell_length_a                    25.044821
_cell_length_b                    25.054182
_cell_length_c                    60.946784
_cell_angle_alpha                 89.98323
_cell_angle_beta                  90.01005
_cell_angle_gamma                 90.012819
_cell_volume                      38242.732687

loop_
_atom_site_label
_atom_site_type_symbol
_atom_type_description
_atom_site_fract_x
_atom_site_fract_y
_atom_site_fract_z
_atom_type_partial_charge
C1    C     C_R   0.499996 0.999993 0.809787 0.511501
C2    C     C_R   0.501819 0.000667 0.381041 0.165464
C3    C     C_R   0.096508 0.482361 0.523773 -0.064497
C4    C     C_R   0.517380 0.903631 0.476106 -0.067334
C5    C     C_R   0.519193 0.095475 0.523897 -0.062661
C6    C     C_R   0.096367 0.482895 0.476084 -0.068218
C7    C     C_R   0.904518 0.481677 0.523921 -0.061151
C8    C     C_R   0.604439 0.895560 0.750001 0.521705
C9    C     C_R   0.395559 0.104437 0.249998 0.521653
C10   C     C_R   0.104442 0.604439 0.750000 0.520269
C11   C     C_R   0.895560 0.395559 0.249999 0.521144
C12   C     C_R   0.395559 0.104437 0.749998 0.521856
C13   C     C_R   0.001241 0.500034 0.619008 0.167336
C14   C     C_R   0.604440 0.895566 0.250001 0.522085
C15   C     C_R   0.895562 0.395562 0.750001 0.520091
C16   C     C_R   0.104439 0.604437 0.249999 0.521261
C17   C     C_R   0.604439 0.104441 0.250001 0.521228
C18   C     C_R   0.395560 0.895560 0.749999 0.521034
C19   C     C_R   0.104440 0.395563 0.250002 0.521631
C20   C     C_R   0.895562 0.604441 0.750000 0.523330
C21   C     C_R   0.395561 0.895563 0.250001 0.520584
C22   C     C_R   0.604439 0.104437 0.749999 0.521271
C23   C     C_R   0.895558 0.604432 0.250000 0.521223
C24   C     C_R   0.999305 0.498392 0.381034 0.164219
C25   C     C_R   0.104442 0.395563 0.750001 0.523737
C26   C     C_R   0.679991 0.228621 0.764172 0.246717
C27   C     C_R   0.320435 0.770953 0.236078 0.246708
C28   C     C_R   0.771302 0.679905 0.764127 0.246801
C29   C     C_R   0.226579 0.317986 0.234710 0.246742
C30   C     C_R   0.320009 0.771379 0.764178 0.246638
C31   C     C_R   0.677368 0.231240 0.237465 0.247203
C32   C     C_R   0.228689 0.320063 0.764142 0.247008
C33   C     C_R   0.773851 0.682471 0.234498 0.246734
C34   C     C_R   0.682429 0.773839 0.234518 0.246619
C35   C     C_R   0.000840 0.498816 0.118933 0.165073
C36   C     C_R   0.320072 0.228670 0.764140 0.246730
C37   C     C_R   0.768759 0.322626 0.237463 0.247339
C38   C     C_R   0.228624 0.679993 0.764178 0.246742
C39   C     C_R   0.317870 0.226489 0.234652 0.246797
C40   C     C_R   0.679910 0.771289 0.764127 0.246652
C41   C     C_R   0.229051 0.679566 0.236078 0.246949
C42   C     C_R   0.771377 0.320008 0.764173 0.246855
C43   C     C_R   0.179564 0.729048 0.263921 0.246628
C44   C     C_R   0.820007 0.271381 0.735827 0.246639
C45   C     C_R   0.273381 0.181977 0.265264 0.246679
C46   C     C_R   0.001974 0.500760 0.881066 0.164297
C47   C     C_R   0.728698 0.820095 0.735873 0.246753
C48   C     C_R   0.822591 0.268800 0.262561 0.247171
C49   C     C_R   0.179989 0.728623 0.735823 0.246443
C50   C     C_R   0.726066 0.817450 0.265550 0.246979
C51   C     C_R   0.271312 0.179937 0.735857 0.246871
C52   C     C_R   0.179927 0.271328 0.735860 0.246944
C53   C     C_R   0.817488 0.726074 0.265532 0.246677
C54   C     C_R   0.271375 0.820009 0.735822 0.246714
C55   C     C_R   0.731200 0.177416 0.262564 0.247284
C56   C     C_R   0.820088 0.728709 0.735872 0.246875
C57   C     C_R   0.498869 0.002187 0.118950 0.164117
C58   C     C_R   0.182089 0.273465 0.265320 0.246791
C59   C     C_R   0.728622 0.179994 0.735827 0.246979
C60   C     C_R   0.270950 0.820434 0.263923 0.246747
C61   C     C_R   0.641504 0.188286 0.763673 -0.136326
C62   C     C_R   0.358921 0.811289 0.236577 -0.136146
C63   C     C_R   0.811632 0.641415 0.763624 -0.136322
C64   C     C_R   0.186208 0.356444 0.235209 -0.136271
C65   C     C_R   0.358498 0.811711 0.763677 -0.136557
C66   C     C_R   0.638922 0.190853 0.237947 -0.135915
C67   C     C_R   0.188360 0.358556 0.763639 -0.136173
C68   C     C_R   0.500639 0.002477 0.881049 0.164277
C69   C     C_R   0.814184 0.643968 0.235015 -0.136730
C70   C     C_R   0.643951 0.814193 0.235023 -0.136462
C71   C     C_R   0.358562 0.188341 0.763638 -0.136134
C72   C     C_R   0.809158 0.361060 0.237937 -0.135855
C73   C     C_R   0.188293 0.641503 0.763675 -0.136266
C74   C     C_R   0.356378 0.186161 0.235171 -0.136468
C75   C     C_R   0.641417 0.811618 0.763626 -0.136412
C76   C     C_R   0.188717 0.641078 0.236579 -0.136019
C77   C     C_R   0.811714 0.358492 0.763673 -0.136299
C78   C     C_R   0.141078 0.688713 0.263422 -0.136415
C79   C     C_R   0.514197 0.999477 0.547128 -0.098817
C80   C     C_R   0.858496 0.311714 0.736328 -0.137245
C81   C     C_R   0.313755 0.143525 0.264770 -0.136292
C82   C     C_R   0.688371 0.858587 0.736378 -0.136388
C83   C     C_R   0.861047 0.309177 0.262073 -0.135924
C84   C     C_R   0.141502 0.688288 0.736322 -0.137716
C85   C     C_R   0.685765 0.855988 0.265014 -0.135661
C86   C     C_R   0.311642 0.141447 0.736359 -0.136536
C87   C     C_R   0.141438 0.311659 0.736362 -0.134727
C88   C     C_R   0.856004 0.685754 0.265006 -0.136308
C89   C     C_R   0.311710 0.858495 0.736323 -0.136397
C90   C     C_R   0.514545 0.999759 0.452920 -0.099866
C91   C     C_R   0.690828 0.138955 0.262071 -0.135917
C92   C     C_R   0.858582 0.688381 0.736374 -0.135100
C93   C     C_R   0.143614 0.313824 0.264819 -0.136297
C94   C     C_R   0.688289 0.141506 0.736328 -0.136040
C95   C     C_R   0.311285 0.858920 0.263422 -0.137266
C96   C     C_R   0.645443 0.145442 0.750001 -0.030025
C97   C     C_R   0.354557 0.854558 0.249999 -0.030371
C98   C     C_R   0.854561 0.645445 0.749999 -0.029686
C99   C     C_R   0.145458 0.354575 0.250012 -0.030000
C100  C     C_R   0.354557 0.854556 0.750000 -0.030142
C101  C     C_R   0.000564 0.486364 0.547140 -0.098246
C102  C     C_R   0.645434 0.145455 0.250006 -0.029762
C103  C     C_R   0.145446 0.354561 0.750000 -0.029622
C104  C     C_R   0.854545 0.645421 0.250007 -0.029997
C105  C     C_R   0.645423 0.854546 0.250013 -0.029858
C106  C     C_R   0.354556 0.145440 0.749998 -0.030057
C107  C     C_R   0.854550 0.354560 0.250003 -0.029770
C108  C     C_R   0.145445 0.645442 0.749999 -0.030341
C109  C     C_R   0.354526 0.145408 0.249977 -0.030017
C110  C     C_R   0.645440 0.854556 0.750002 -0.030090
C111  C     C_R   0.145444 0.645442 0.250001 -0.030091
C112  C     C_R   0.500030 0.999994 0.190210 0.510165
C113  C     C_R   0.000197 0.485994 0.452922 -0.099985
C114  C     C_R   0.854559 0.354556 0.750001 -0.030299
C115  C     C_R   0.727354 0.227354 0.749999 0.119028
C116  C     C_R   0.272645 0.772647 0.250001 0.119005
C117  C     C_R   0.772647 0.727354 0.750000 0.119188
C118  C     C_R   0.227352 0.272651 0.249999 0.118418
C119  C     C_R   0.272645 0.772647 0.750000 0.119023
C120  C     C_R   0.727333 0.227366 0.250011 0.118039
C121  C     C_R   0.227355 0.272648 0.750001 0.119182
C122  C     C_R   0.772622 0.727320 0.250016 0.118434
C123  C     C_R   0.727317 0.772619 0.250023 0.118393
C124  C     C_R   0.015614 0.499490 0.047132 -0.098889
C125  C     C_R   0.272645 0.227352 0.749998 0.119251
C126  C     C_R   0.772635 0.272665 0.250009 0.118047
C127  C     C_R   0.227354 0.727354 0.750001 0.119071
C128  C     C_R   0.272622 0.227323 0.249981 0.118440
C129  C     C_R   0.727353 0.772645 0.750000 0.119229
C130  C     C_R   0.227355 0.727353 0.249999 0.118954
C131  C     C_R   0.772645 0.272647 0.750001 0.119080
C132  C     C_R   0.511525 0.046343 0.582363 0.416732
C133  C     C_R   0.511206 0.953013 0.417688 0.420216
C134  C     C_R   0.953714 0.489302 0.582389 0.413709
C135  C     C_R   0.015995 0.499756 0.952922 -0.099761
C136  C     C_R   0.046944 0.489130 0.417696 0.420370
C137  C     C_R   0.505733 0.951927 0.582023 0.420097
C138  C     C_R   0.507375 0.047455 0.418008 0.420698
C139  C     C_R   0.048167 0.494596 0.582049 0.420463
C140  C     C_R   0.952499 0.493165 0.418004 0.420684
C141  C     C_R   0.012446 0.546307 0.082370 0.417476
C142  C     C_R   0.012015 0.453051 0.917682 0.419876
C143  C     C_R   0.451883 0.007598 0.082013 0.420604
C144  C     C_R   0.547437 0.008302 0.918014 0.420625
C145  C     C_R   0.006406 0.451914 0.081993 0.420308
C146  C     C_R   0.499439 0.016016 0.047119 -0.098369
C147  C     C_R   0.008295 0.547497 0.918038 0.420995
C148  C     C_R   0.546322 0.013151 0.082358 0.411474
C149  C     C_R   0.452994 0.012327 0.917682 0.420439
C150  C     C_R   0.500880 0.951107 0.632041 -0.054410
C151  C     C_R   0.502435 0.048519 0.368004 -0.053840
C152  C     C_R   0.049068 0.499544 0.632153 -0.055556
C153  C     C_R   0.951449 0.497874 0.367988 -0.054289
C154  C     C_R   0.496194 0.046760 0.631766 -0.047522
C155  C     C_R   0.496797 0.952878 0.368178 -0.053800
C156  C     C_R   0.953307 0.504750 0.631860 -0.049311
C157  C     C_R   0.499737 0.015906 0.952909 -0.099998
C158  C     C_R   0.047112 0.503225 0.368170 -0.050129
C159  C     C_R   0.000483 0.451039 0.132023 -0.054615
C160  C     C_R   0.002380 0.548605 0.868018 -0.054718
C161  C     C_R   0.546769 0.997293 0.131774 -0.048187
C162  C     C_R   0.452841 0.997444 0.868185 -0.050121
C163  C     C_R   0.996175 0.546704 0.131736 -0.047595
C164  C     C_R   0.996672 0.452984 0.868221 -0.049473
C165  C     C_R   0.451100 0.002006 0.132038 -0.053367
C166  C     C_R   0.548499 0.002779 0.868012 -0.054338
C167  C     C_R   0.498995 0.951202 0.655039 0.068525
C168  C     C_R   0.513802 0.048408 0.558974 0.029714
C169  C     C_R   0.499785 0.048595 0.345012 0.067752
C170  C     C_R   0.049204 0.500163 0.655158 0.052065
C171  C     C_R   0.951394 0.500368 0.344995 0.068473
C172  C     C_R   0.498466 0.047571 0.654751 0.071414
C173  C     C_R   0.498683 0.952221 0.345203 0.065232
C174  C     C_R   0.952214 0.502677 0.654871 0.057787
C175  C     C_R   0.047775 0.501284 0.345185 0.069866
C176  C     C_R   0.998666 0.451162 0.155029 0.068652
C177  C     C_R   0.999827 0.548638 0.845016 0.068576
C178  C     C_R   0.547686 0.998137 0.154832 0.067777
C179  C     C_R   0.513454 0.950880 0.441071 0.031275
C180  C     C_R   0.452202 0.998970 0.845192 0.069978
C181  C     C_R   0.998488 0.547539 0.154725 0.071417
C182  C     C_R   0.998500 0.452265 0.845227 0.070115
C183  C     C_R   0.451200 0.999592 0.155028 0.069375
C184  C     C_R   0.548575 0.999868 0.845024 0.068464
C185  C     C_R   0.951640 0.486970 0.558999 0.028719
C186  C     C_R   0.049072 0.486908 0.441069 0.031748
C187  C     C_R   0.512845 0.950416 0.558844 0.033622
C188  C     C_R   0.999994 0.499992 0.809791 0.511322
C189  C     C_R   0.514280 0.048816 0.441203 0.033969
C190  C     C_R   0.049647 0.487503 0.558855 0.033495
C191  C     C_R   0.951125 0.486361 0.441210 0.033657
C192  C     C_R   0.015263 0.548414 0.058986 0.030289
C193  C     C_R   0.014773 0.450879 0.941067 0.030855
C194  C     C_R   0.450375 0.014794 0.058832 0.033877
C195  C     C_R   0.548801 0.015450 0.941201 0.033731
C196  C     C_R   0.014065 0.450428 0.058842 0.033671
C197  C     C_R   0.015691 0.548818 0.941211 0.034215
C198  C     C_R   0.548365 0.015431 0.058962 0.028352
C199  C     C_R   0.999977 0.499995 0.190207 0.511266
C200  C     C_R   0.450862 0.014841 0.941052 0.031690
C201  C     C_R   0.517159 0.097424 0.546488 0.274428
C202  C     C_R   0.516109 0.901735 0.453459 0.270698
C203  C     C_R   0.902609 0.483835 0.546500 0.275206
C204  C     C_R   0.098246 0.484108 0.453431 0.270014
C205  C     C_R   0.516729 0.901531 0.546391 0.273025
C206  C     C_R   0.519212 0.097609 0.453642 0.272259
C207  C     C_R   0.098515 0.483466 0.546377 0.273335
C208  C     C_R   0.902324 0.481596 0.453659 0.272337
C209  C     C_R   0.019091 0.597439 0.046498 0.272870
C210  C     C_R   0.000000 0.500004 0.309782 0.511467
C211  C     C_R   0.017791 0.401736 0.953460 0.271060
C212  C     C_R   0.401497 0.018833 0.046363 0.273425
C213  C     C_R   0.597592 0.020473 0.953640 0.272124
C214  C     C_R   0.018318 0.401554 0.046406 0.272975
C215  C     C_R   0.021086 0.597589 0.953637 0.271853
C216  C     C_R   0.597400 0.018597 0.046526 0.276415
C217  C     C_R   0.401694 0.017806 0.953407 0.270048
C218  C     C_R   0.499793 0.999600 0.666330 0.107362
C219  C     C_R   0.499895 0.000273 0.333668 0.108305
C220  C     C_R   0.000460 0.500299 0.666434 0.103697
C221  C     C_R   1.000000 0.500035 0.690219 0.515407
C222  C     C_R   0.999731 0.500080 0.333657 0.108173
C223  C     C_R   0.999766 0.499574 0.166318 0.107268
C224  C     C_R   0.999926 0.500287 0.833682 0.107856
C225  C     C_R   0.499610 0.999907 0.166354 0.106250
C226  C     C_R   0.500251 0.999956 0.833669 0.108146
C227  C     C_R   0.019758 0.548095 0.988332 -0.019325
C228  C     C_R   0.018375 0.451082 0.011717 -0.019201
C229  C     C_R   0.451121 0.018572 0.988229 -0.018854
C230  C     C_R   0.547985 0.019503 0.011769 -0.020392
C231  C     C_R   0.018498 0.451155 0.988259 -0.019183
C232  C     C_R   0.499997 0.999996 0.309788 0.516428
C233  C     C_R   0.019609 0.548015 0.011779 -0.019976
C234  C     C_R   0.548070 0.019524 0.988321 -0.019395
C235  C     C_R   0.451049 0.018566 0.011692 -0.019296
C236  C     C_R   0.517956 0.048093 0.488328 -0.019433
C237  C     C_R   0.516692 0.951082 0.511712 -0.019257
C238  C     C_R   0.951880 0.482781 0.488338 -0.019695
C239  C     C_R   0.048918 0.483741 0.511710 -0.019280
C240  C     C_R   0.516794 0.951155 0.488255 -0.019081
C241  C     C_R   0.517812 0.048010 0.511774 -0.020213
C242  C     C_R   0.048831 0.483638 0.488248 -0.018832
C243  C     C_R   0.499980 0.999997 0.690212 0.511374
C244  C     C_R   0.951982 0.482942 0.511787 -0.020776
C245  C     C_R   0.017899 0.499661 0.976480 0.021304
C246  C     C_R   0.017710 0.499542 0.023563 0.020936
C247  C     C_R   0.499635 0.017816 0.976465 0.021359
C248  C     C_R   0.499501 0.017883 0.023547 0.020712
C249  C     C_R   0.516260 0.999662 0.476477 0.021335
C250  C     C_R   0.516091 0.999533 0.523559 0.020847
C251  C     C_R   0.000309 0.484319 0.476481 0.021465
C252  C     C_R   0.000477 0.484492 0.523566 0.020753
C253  C     C_R   0.022679 0.595621 0.976243 -0.066267
C254  C     C_R   0.500820 0.998878 0.618956 0.165227
C255  C     C_R   0.019695 0.403500 0.023797 -0.064770
C256  C     C_R   0.403583 0.019271 0.976059 -0.068016
C257  C     C_R   0.595464 0.020988 0.023907 -0.064853
C258  C     C_R   0.019218 0.403639 0.976109 -0.066677
C259  C     C_R   0.021158 0.595476 0.023909 -0.063445
C260  C     C_R   0.595609 0.022131 0.976243 -0.066008
C261  C     C_R   0.403469 0.019943 0.023758 -0.064367
C262  C     C_R   0.520668 0.095629 0.476245 -0.065889
C263  C     C_R   0.517928 0.903499 0.523786 -0.064936
C264  C     C_R   0.904326 0.480175 0.476264 -0.065885
H1    H     H_    0.607161 0.190556 0.774426 0.143203
H2    H     H_    0.392966 0.190664 0.774361 0.143393
H3    H     H_    0.504346 0.866641 0.343039 0.256862
H4    H     H_    0.900868 0.493855 0.682101 0.238225
H5    H     H_    0.868463 0.494632 0.657534 0.245555
H6    H     H_    0.099395 0.504765 0.316740 0.251882
H7    H     H_    0.133371 0.498627 0.343002 0.258412
H8    H     H_    0.494376 0.900517 0.683761 0.252356
H9    H     H_    0.498762 0.865587 0.657695 0.255831
H10   H     H_    0.499841 0.099562 0.316335 0.251742
H11   H     H_    0.494020 0.134099 0.342463 0.256886
H12   H     H_    0.099251 0.509873 0.682440 0.238887
H13   H     H_    0.804777 0.397529 0.228535 0.142778
H14   H     H_    0.132675 0.505988 0.658181 0.241646
H15   H     H_    0.900419 0.500380 0.316313 0.251977
H16   H     H_    0.865895 0.506913 0.342432 0.256651
H17   H     H_    0.000635 0.599428 0.183106 0.251612
H18   H     H_    0.995234 0.633116 0.156769 0.257256
H19   H     H_    0.994584 0.400628 0.816797 0.251892
H20   H     H_    0.001181 0.366691 0.843048 0.258662
H21   H     H_    0.400530 0.993693 0.183723 0.252556
H22   H     H_    0.365595 0.999960 0.157707 0.255894
H23   H     H_    0.599569 0.999420 0.816355 0.251964
H24   H     H_    0.190570 0.607156 0.774429 0.143202
H25   H     H_    0.634077 0.993469 0.842502 0.256629
H26   H     H_    0.993749 0.400528 0.183763 0.252480
H27   H     H_    0.997947 0.365549 0.157702 0.256087
H28   H     H_    0.999650 0.599570 0.816325 0.251956
H29   H     H_    0.993951 0.634159 0.842448 0.256481
H30   H     H_    0.599084 0.986631 0.183013 0.250108
H31   H     H_    0.632131 0.005229 0.157549 0.260109
H32   H     H_    0.400584 0.995257 0.816754 0.251974
H33   H     H_    0.366588 0.001488 0.843007 0.258440
H34   H     H_    0.522349 0.154259 0.569853 0.395716
H35   H     H_    0.388976 0.186671 0.223488 0.142847
H36   H     H_    0.529520 0.845626 0.430762 0.394018
H37   H     H_    0.845975 0.486670 0.569863 0.398570
H38   H     H_    0.154164 0.469103 0.430898 0.392667
H39   H     H_    0.509345 0.843739 0.568938 0.396139
H40   H     H_    0.511045 0.155729 0.431392 0.395531
H41   H     H_    0.156308 0.489968 0.568999 0.396585
H42   H     H_    0.844247 0.489639 0.431369 0.395676
H43   H     H_    0.024655 0.654146 0.069698 0.398532
H44   H     H_    0.030886 0.345750 0.930663 0.394404
H45   H     H_    0.343733 0.012208 0.068978 0.396533
H46   H     H_    0.606999 0.809265 0.774337 0.143230
H47   H     H_    0.655672 0.012334 0.931371 0.395529
H48   H     H_    0.010605 0.343746 0.068878 0.395955
H49   H     H_    0.012947 0.655762 0.931443 0.395047
H50   H     H_    0.653649 0.004176 0.069520 0.391386
H51   H     H_    0.345803 0.032616 0.930836 0.392662
H52   H     H_    0.191361 0.606367 0.226045 0.143536
H53   H     H_    0.809444 0.392830 0.774427 0.143176
H54   H     H_    0.106366 0.691353 0.273960 0.143257
H55   H     H_    0.892841 0.309442 0.725575 0.142680
H56   H     H_    0.313358 0.111051 0.276516 0.143219
H57   H     H_    0.393632 0.808650 0.226039 0.143496
H58   H     H_    0.690720 0.893014 0.725670 0.143244
H59   H     H_    0.897547 0.304768 0.271456 0.142729
H60   H     H_    0.107156 0.690561 0.725566 0.142146
H61   H     H_    0.685920 0.888237 0.276859 0.143444
H62   H     H_    0.309313 0.107056 0.725636 0.142996
H63   H     H_    0.107034 0.309336 0.725638 0.144310
H64   H     H_    0.888224 0.685865 0.276873 0.143090
H65   H     H_    0.309436 0.892838 0.725567 0.143185
H66   H     H_    0.695249 0.102450 0.271446 0.142755
H67   H     H_    0.893001 0.690734 0.725664 0.143879
H68   H     H_    0.809285 0.606992 0.774333 0.143207
H69   H     H_    0.111072 0.313360 0.276530 0.143069
H70   H     H_    0.690562 0.107165 0.725577 0.143471
H71   H     H_    0.308644 0.893629 0.273958 0.142504
H72   H     H_    0.487881 0.085574 0.625370 0.202202
H73   H     H_    0.488560 0.913983 0.374448 0.204549
H74   H     H_    0.914611 0.513742 0.625398 0.205133
H75   H     H_    0.086004 0.511558 0.374444 0.206320
H76   H     H_    0.504436 0.911353 0.626089 0.207751
H77   H     H_    0.507050 0.088181 0.373957 0.208498
H78   H     H_    0.088737 0.494808 0.626149 0.209635
H79   H     H_    0.186607 0.388933 0.223469 0.143275
H80   H     H_    0.911762 0.493456 0.373943 0.208584
H81   H     H_    0.987777 0.585476 0.125313 0.202325
H82   H     H_    0.987997 0.414191 0.874527 0.206180
H83   H     H_    0.411348 0.005837 0.126093 0.207706
H84   H     H_    0.588169 0.007355 0.873967 0.208500
H85   H     H_    0.003535 0.411255 0.126065 0.208061
H86   H     H_    0.006644 0.588298 0.873975 0.208566
H87   H     H_    0.585611 0.988992 0.125340 0.203786
H88   H     H_    0.413926 0.989341 0.874478 0.206231
H89   H     H_    0.027171 0.634020 0.983806 0.155838
H90   H     H_    0.392846 0.809437 0.774433 0.143066
H91   H     H_    0.022614 0.364976 0.016227 0.156596
H92   H     H_    0.365037 0.020755 0.983633 0.155276
H93   H     H_    0.634032 0.022103 0.016303 0.156788
H94   H     H_    0.020645 0.365086 0.983692 0.156082
H95   H     H_    0.022764 0.634038 0.016297 0.157427
H96   H     H_    0.634031 0.026403 0.983811 0.156413
H97   H     H_    0.364939 0.022666 0.016170 0.156979
H98   H     H_    0.524869 0.134049 0.483812 0.156315
H99   H     H_    0.520636 0.864970 0.516209 0.156517
H100  H     H_    0.865899 0.476073 0.483838 0.156518
H101  H     H_    0.602433 0.195248 0.228556 0.142744
H102  H     H_    0.135029 0.479609 0.516185 0.156863
H103  H     H_    0.518552 0.865070 0.483684 0.155639
H104  H     H_    0.520512 0.134048 0.516290 0.158388
H105  H     H_    0.134925 0.481577 0.483657 0.155177
H106  H     H_    0.865929 0.480632 0.516313 0.158822
H107  H     H_    0.635130 0.263139 0.787033 0.329106
H108  H     H_    0.365824 0.735912 0.213526 0.329194
H109  H     H_    0.736714 0.634961 0.786949 0.329043
H110  H     H_    0.258994 0.360712 0.210648 0.329072
H111  H     H_    0.364841 0.736892 0.787068 0.329008
H112  H     H_    0.190692 0.392949 0.774360 0.143212
H113  H     H_    0.628725 0.269509 0.216969 0.329074
H114  H     H_    0.263279 0.364970 0.786974 0.329142
H115  H     H_    0.742597 0.640932 0.209826 0.328673
H116  H     H_    0.640480 0.742194 0.210057 0.328930
H117  H     H_    0.364989 0.263225 0.786980 0.329195
H118  H     H_    0.730411 0.371338 0.217020 0.328957
H119  H     H_    0.263114 0.635165 0.787068 0.329060
H120  H     H_    0.359536 0.257823 0.210025 0.329099
H121  H     H_    0.634967 0.736670 0.786941 0.329032
H122  H     H_    0.264085 0.634191 0.213520 0.329280
H123  H     H_    0.814070 0.611772 0.223144 0.142575
H124  H     H_    0.736849 0.364872 0.787030 0.328999
H125  H     H_    0.134166 0.764099 0.286467 0.328978
H126  H     H_    0.864846 0.236885 0.712953 0.329151
H127  H     H_    0.240782 0.139103 0.289237 0.328878
H128  H     H_    0.763275 0.865027 0.713044 0.329091
H129  H     H_    0.871071 0.230687 0.283169 0.328960
H130  H     H_    0.135132 0.763136 0.712947 0.328611
H131  H     H_    0.756871 0.858577 0.290439 0.329241
H132  H     H_    0.236712 0.135020 0.713031 0.328952
H133  H     H_    0.134995 0.236759 0.713029 0.329612
H134  H     H_    0.611789 0.814125 0.223130 0.143018
H135  H     H_    0.858985 0.757216 0.290240 0.329106
H136  H     H_    0.236864 0.864856 0.712944 0.328966
H137  H     H_    0.769269 0.128992 0.283207 0.328990
H138  H     H_    0.865015 0.763312 0.713048 0.329253
H139  H     H_    0.140033 0.241713 0.289741 0.329068
H140  H     H_    0.763131 0.135148 0.712958 0.329347
H141  H     H_    0.235914 0.865811 0.286479 0.328658
H142  H     H_    0.500570 0.099427 0.683142 0.251729
H143  H     H_    0.495051 0.133146 0.656818 0.257392
H144  H     H_    0.481953 0.900564 0.317330 0.251390
N1    N     N_R   0.505568 0.999019 0.594109 -0.366323
N2    N     N_3   0.498797 0.901755 0.333370 -0.636603
N3    N     N_3   0.901452 0.509969 0.666219 -0.615612
N4    N     N_3   0.098260 0.501858 0.333841 -0.645304
N5    N     N_3   0.496834 0.901090 0.666644 -0.644872
N6    N     N_3   0.497629 0.098790 0.333461 -0.645397
N7    N     N_3   0.099157 0.492132 0.666938 -0.613403
N8    N     N_3   0.901213 0.502769 0.333438 -0.645028
N9    N     N_3   0.998532 0.598114 0.165984 -0.643897
N10   N     N_3   0.997287 0.401761 0.833908 -0.645096
N11   N     N_3   0.401088 0.997103 0.166627 -0.644772
N12   N     N_R   0.506473 0.000402 0.405922 -0.367276
N13   N     N_3   0.598767 0.997356 0.833487 -0.645103
N14   N     N_3   0.996226 0.401072 0.166645 -0.644549
N15   N     N_3   0.997531 0.598810 0.833455 -0.645051
N16   N     N_3   0.598488 0.991697 0.165715 -0.643916
N17   N     N_3   0.401727 0.998625 0.833839 -0.644855
N18   N     N_R   0.001067 0.495118 0.594154 -0.365954
N19   N     N_R   0.999562 0.493899 0.405916 -0.367579
N20   N     N_R   0.006069 0.498984 0.094096 -0.366425
N21   N     N_R   0.007046 0.500465 0.905940 -0.367251
N22   N     N_R   0.498992 0.007201 0.094108 -0.367201
N23   N     N_R   0.500377 0.007378 0.905919 -0.367557
N24   N     N_3   0.498441 0.098131 0.666021 -0.643521
O1    O     O_3   0.500000 0.000000 0.750000 -0.462892
O2    O     O_R   0.500000 0.045340 0.200340 -0.535545
O3    O     O_3   0.230859 0.831813 0.278406 -0.605896
O4    O     O_3   0.514467 0.149673 0.554082 -0.670473
O5    O     O_3   0.514072 0.849756 0.445332 -0.667258
O6    O     O_3   0.850374 0.483058 0.554136 -0.675458
O7    O     O_3   0.150162 0.486040 0.445216 -0.664966
O8    O     O_3   0.524162 0.850047 0.554406 -0.673289
O9    O     O_3   0.527772 0.148813 0.445521 -0.670944
O10   O     O_3   0.150056 0.475991 0.554334 -0.673192
O11   O     O_3   0.851047 0.473259 0.445570 -0.671232
O12   O     O_3   0.016596 0.649669 0.054275 -0.675407
O13   O     O_R   0.045340 0.500000 0.799660 -0.536985
O14   O     O_3   0.016137 0.349716 0.945356 -0.666972
O15   O     O_3   0.349992 0.026360 0.054338 -0.672907
O16   O     O_3   0.648827 0.028889 0.945530 -0.671770
O17   O     O_3   0.026157 0.350189 0.054474 -0.671801
O18   O     O_3   0.030112 0.648671 0.945478 -0.671261
O19   O     O_3   0.649619 0.016386 0.054443 -0.669126
O20   O     O_3   0.349782 0.015797 0.945185 -0.664417
O21   O     O_R   0.954660 0.500000 0.200340 -0.537862
O22   O     O_R   1.000000 0.545340 0.299660 -0.537843
O23   O     O_R   1.000000 0.454660 0.700340 -0.533725
O24   O     O_R   0.454660 0.000000 0.299660 -0.543847
O25   O     O_R   0.545340 0.000000 0.700340 -0.536120
O26   O     O_R   1.000000 0.454660 0.299660 -0.536530
O27   O     O_R   1.000000 0.545340 0.700340 -0.537174
O28   O     O_R   0.545340 0.000000 0.299660 -0.530745
O29   O     O_3   0.500000 0.000000 0.250000 -0.462791
O30   O     O_R   0.454660 0.000000 0.700340 -0.537961
O31   O     O_R   0.564050 0.890410 0.762820 -0.545032
O32   O     O_R   0.435950 0.109590 0.237180 -0.545189
O33   O     O_R   0.109590 0.564050 0.762820 -0.545117
O34   O     O_R   0.890410 0.435950 0.237180 -0.545058
O35   O     O_R   0.435950 0.109590 0.762820 -0.544673
O36   O     O_R   0.564050 0.890410 0.237180 -0.545535
O37   O     O_R   0.890410 0.435950 0.762820 -0.545405
O38   O     O_R   0.109590 0.564050 0.237180 -0.544984
O39   O     O_R   0.564050 0.109590 0.237180 -0.544755
O40   O     O_3   1.000000 0.500000 0.750000 -0.463176
O41   O     O_R   0.435950 0.890410 0.762820 -0.545601
O42   O     O_R   0.109590 0.435950 0.237180 -0.544882
O43   O     O_R   0.890410 0.564050 0.762820 -0.545149
O44   O     O_R   0.435950 0.890410 0.237180 -0.544542
O45   O     O_R   0.564050 0.109590 0.762820 -0.545456
O46   O     O_R   0.890410 0.564050 0.237180 -0.545411
O47   O     O_R   0.109590 0.435950 0.762820 -0.545115
O48   O     O_R   0.064050 0.390410 0.262820 -0.545043
O49   O     O_R   0.935950 0.609590 0.737180 -0.542873
O50   O     O_R   0.609590 0.064050 0.262820 -0.545655
O51   O     O_3   1.000000 0.500000 0.250000 -0.462952
O52   O     O_R   0.390410 0.935950 0.737180 -0.545450
O53   O     O_R   0.935950 0.609590 0.262820 -0.544716
O54   O     O_R   0.064050 0.390410 0.737180 -0.542388
O55   O     O_R   0.390410 0.935950 0.262820 -0.546853
O56   O     O_R   0.609590 0.064050 0.737180 -0.545252
O57   O     O_R   0.064050 0.609590 0.737180 -0.547725
O58   O     O_R   0.935950 0.390410 0.262820 -0.545004
O59   O     O_R   0.609590 0.935950 0.737180 -0.545000
O60   O     O_R   0.390410 0.064050 0.262820 -0.544732
O61   O     O_R   0.935950 0.390410 0.737180 -0.547381
O62   O     O_R   0.500000 0.045340 0.799660 -0.536262
O63   O     O_R   0.064050 0.609590 0.262820 -0.545321
O64   O     O_R   0.390410 0.064050 0.737180 -0.545243
O65   O     O_R   0.609590 0.935950 0.262820 -0.543704
O66   O     O_2   0.520173 0.091855 0.593083 -0.542332
O67   O     O_2   0.517222 0.907153 0.407068 -0.539243
O68   O     O_2   0.908133 0.480590 0.593113 -0.541141
O69   O     O_2   0.092863 0.483186 0.407104 -0.537683
O70   O     O_2   0.493987 0.905972 0.591812 -0.544864
O71   O     O_2   0.496681 0.093648 0.408230 -0.543920
O72   O     O_2   0.094193 0.506025 0.591858 -0.545451
O73   O     O_R   0.500000 0.954660 0.200340 -0.539638
O74   O     O_2   0.906329 0.503914 0.408212 -0.544031
O75   O     O_2   0.020437 0.591814 0.093133 -0.541607
O76   O     O_2   0.017670 0.407201 0.907018 -0.539151
O77   O     O_2   0.405885 0.995995 0.091794 -0.544975
O78   O     O_2   0.593615 0.997416 0.908261 -0.544218
O79   O     O_2   0.994367 0.405957 0.091721 -0.544171
O80   O     O_2   0.997531 0.593734 0.908310 -0.543921
O81   O     O_2   0.591944 0.022196 0.093015 -0.531851
O82   O     O_2   0.407082 0.018159 0.907069 -0.537361
O83   O     O_3   0.669078 0.268244 0.778924 -0.605542
O84   O     O_R   0.954660 0.500000 0.799660 -0.537560
O85   O     O_3   0.331812 0.730867 0.221598 -0.605461
O86   O     O_3   0.731594 0.668900 0.778836 -0.605587
O87   O     O_3   0.263918 0.326665 0.218725 -0.605154
O88   O     O_3   0.330927 0.731751 0.778936 -0.605655
O89   O     O_3   0.663707 0.273585 0.224435 -0.605135
O90   O     O_3   0.268378 0.331026 0.778870 -0.605371
O91   O     O_3   0.736921 0.674251 0.218309 -0.605774
O92   O     O_3   0.674214 0.736955 0.218322 -0.605608
O93   O     O_3   0.331049 0.268346 0.778862 -0.605432
O94   O     O_3   0.726411 0.336283 0.224429 -0.605139
O95   O     O_R   0.045340 0.500000 0.200340 -0.536291
O96   O     O_3   0.268251 0.669079 0.778940 -0.605614
O97   O     O_3   0.326592 0.263925 0.218708 -0.605402
O98   O     O_3   0.668917 0.731572 0.778834 -0.605638
O99   O     O_3   0.269140 0.668188 0.221593 -0.605353
O100  O     O_3   0.731750 0.330922 0.778929 -0.605557
O101  O     O_3   0.168187 0.769134 0.278402 -0.605788
O102  O     O_3   0.830919 0.231759 0.721075 -0.605443
O103  O     O_3   0.236062 0.173315 0.281256 -0.605302
O104  O     O_3   0.768403 0.831098 0.721162 -0.605517
O105  O     O_3   0.836262 0.226445 0.275584 -0.605252
O106  O     O_R   0.500000 0.954660 0.799660 -0.537848
O107  O     O_3   0.169070 0.768252 0.721066 -0.606044
O108  O     O_3   0.763018 0.825691 0.281729 -0.605260
O109  O     O_3   0.231620 0.168972 0.721131 -0.605440
O110  O     O_3   0.168950 0.231652 0.721138 -0.605126
O111  O     O_3   0.825724 0.762988 0.281716 -0.605347
O112  O     O_3   0.231746 0.830924 0.721061 -0.605798
O113  O     O_3   0.773557 0.163747 0.275591 -0.605217
O114  O     O_3   0.831081 0.768426 0.721165 -0.605379
O115  O     O_3   0.173388 0.236050 0.281274 -0.605445
O116  O     O_3   0.768247 0.169081 0.721070 -0.605236
Zn1   Zn    Zn3+2 0.565040 0.000000 0.731020 0.943109
Zn2   Zn    Zn3+2 0.934960 0.500000 0.768980 0.942428
Zn3   Zn    Zn3+2 0.500000 0.065040 0.231020 0.943220
Zn4   Zn    Zn3+2 0.500000 0.934960 0.768980 0.941733
Zn5   Zn    Zn3+2 0.934960 0.500000 0.231020 0.941683
Zn6   Zn    Zn3+2 0.065040 0.500000 0.768980 0.943393
Zn7   Zn    Zn3+2 0.500000 0.934960 0.231020 0.941566
Zn8   Zn    Zn3+2 0.500000 0.065040 0.768980 0.943065
Zn9   Zn    Zn3+2 0.434960 0.000000 0.268980 0.939255
Zn10  Zn    Zn3+2 1.000000 0.565040 0.731020 0.944014
Zn11  Zn    Zn3+2 1.000000 0.434960 0.268980 0.942816
Zn12  Zn    Zn3+2 0.434960 0.000000 0.731020 0.941778
Zn13  Zn    Zn3+2 0.565040 0.000000 0.268980 0.946588
Zn14  Zn    Zn3+2 1.000000 0.434960 0.731020 0.946247
Zn15  Zn    Zn3+2 1.000000 0.565040 0.268980 0.941848
Zn16  Zn    Zn3+2 0.065040 0.500000 0.231020 0.943188

loop_
_geom_bond_atom_site_label_1
_geom_bond_atom_site_label_2
_ccdc_geom_bond_type
C184  N13   S    
H142  N24   S    
H135  O111  S    
C176  C223  A    
C204  O7    S    
C184  C226  A    
C219  C232  S    
C256  H92   S    
C198  C216  A    
O35   Zn8   S    
C188  O84   A    
C233  C259  A    
C19   O42   A    
C86   C106  A    
C234  C260  A    
C134  O68   S    
C23   O53   A    
C18   O52   A    
C84   H60   S    
C58   O115  S    
H128  O104  S    
C4    H103  S    
C199  O21   A    
C63   C98   A    
C20   O43   A    
C253  H89   S    
C150  C254  A    
C237  C263  A    
C37   O94   S    
C133  N12   A    
H27   N14   S    
O40   Zn10  S    
C151  H77   S    
C39   C74   A    
H5    N3    S    
C7    C203  A    
H108  O85   S    
C161  H87   S    
O56   Zn1   S    
C217  O20   S    
C12   O35   A    
H12   N7    S    
C147  N21   A    
C5    H104  S    
C146  C194  A    
O32   Zn3   S    
C36   C71   A    
C33   C69   A    
O1    Zn1   S    
C29   C64   A    
C240  C249  A    
C206  O9    S    
C182  N10   S    
C49   C127  A    
C231  C258  A    
C162  H88   S    
C30   O88   S    
C227  C233  A    
C45   C81   A    
C165  C183  A    
C56   O114  S    
C166  C184  A    
C65   C100  A    
C227  C253  A    
C143  O77   S    
C144  C195  A    
C19   C99   S    
C73   C108  A    
O13   Zn6   S    
C38   O96   S    
H116  O92   S    
H28   N15   S    
C35   C163  A    
C12   C106  S    
C215  O18   S    
H117  O93   S    
C180  N17   S    
O59   Zn1   S    
H10   N6    S    
C234  C247  A    
C31   O89   S    
C152  C170  A    
H111  O88   S    
C179  C202  A    
C189  C206  A    
C46   C160  A    
H15   N8    S    
H44   O14   S    
C94   C96   A    
H45   O15   S    
H7    N4    S    
H137  O113  S    
C87   C103  A    
C7    H106  S    
C34   O92   S    
O73   Zn7   S    
C208  O11   S    
O84   Zn2   S    
C65   H90   S    
O57   Zn10  S    
C82   H58   S    
C101  C252  A    
C174  C220  A    
C242  C251  A    
H4    N3    S    
C54   O112  S    
C27   O85   S    
C254  N1    S    
C147  O80   S    
C172  C218  A    
C139  N18   A    
C243  O30   A    
C136  C186  A    
H8    N5    S    
C157  C195  A    
C22   C96   S    
C32   C121  A    
C26   C61   A    
C153  H80   S    
C154  H72   S    
C70   C105  A    
C135  C197  A    
C36   O93   S    
C95   C97   A    
O40   Zn14  S    
H51   O20   S    
C50   C85   A    
C6    H105  S    
C3    C207  A    
C11   O58   A    
O34   Zn5   S    
H107  O83   S    
C213  O16   S    
C255  H91   S    
C174  N3    S    
C143  C194  A    
C39   O97   S    
C232  O28   A    
C57   C161  A    
C230  C234  A    
C177  C224  A    
C124  C246  A    
C31   C120  A    
C70   H134  S    
C142  O76   S    
C175  N4    S    
C194  C212  A    
H48   O17   S    
C60   C95   A    
H115  O91   S    
C205  O8    S    
C116  C130  S    
O25   Zn1   S    
C71   C106  A    
C164  H82   S    
O2    Zn3   S    
O44   Zn7   S    
H26   N14   S    
C201  O4    S    
C49   O107  S    
C228  C231  A    
C16   C111  S    
C188  O13   A    
C41   C76   A    
O62   Zn8   S    
C1    C226  S    
C40   C129  A    
C236  C249  A    
C210  C222  S    
C163  C181  A    
C56   C117  A    
H21   N11   S    
C10   O33   A    
C10   C108  S    
H141  O3    S    
O36   Zn7   S    
C183  C225  A    
O38   Zn16  S    
C132  N1    A    
C61   C96   A    
H20   N10   S    
O21   Zn5   S    
H131  O108  S    
C47   C129  A    
C49   C84   A    
C53   C122  A    
C5    C201  A    
C209  C259  A    
C228  C246  A    
H14   N7    S    
H140  O116  S    
H125  O101  S    
C47   O104  S    
C55   O113  S    
C171  N8    S    
C145  C196  A    
C64   C99   A    
O39   Zn3   S    
H41   O10   S    
C10   O57   A    
H130  O107  S    
O29   Zn9   S    
C42   C131  A    
O51   Zn5   S    
H132  O109  S    
C117  C129  S    
C162  C180  A    
H3    N2    S    
C14   O36   A    
C93   H69   S    
C54   C119  A    
C133  O67   S    
C75   H46   S    
C187  C205  A    
C231  C245  A    
C141  C192  A    
C216  C257  A    
C86   H62   S    
C101  C185  A    
H42   O11   S    
C264  H100  S    
H32   N17   S    
C88   C104  A    
C25   O47   A    
C66   H101  S    
C160  C177  A    
C133  C179  A    
C212  C261  A    
O40   Zn6   S    
C19   O48   A    
C186  C204  A    
C57   N22   S    
C158  H75   S    
C145  O79   S    
C138  N12   A    
C143  N22   A    
C17   O39   A    
C18   O41   A    
H33   N17   S    
C9    O32   A    
C217  C256  A    
C236  C241  A    
C146  C198  A    
C17   C102  S    
C28   C63   A    
C13   C156  A    
C121  C125  S    
C27   C62   A    
C8    C110  S    
C62   C97   A    
C196  C214  A    
C230  C257  A    
C148  O81   S    
C124  C196  A    
C262  H98   S    
C183  N11   S    
O33   Zn6   S    
C181  N9    S    
C211  C258  A    
C32   C67   A    
C71   H2    S    
C149  O82   S    
C213  C260  A    
C33   C122  A    
C79   C250  A    
C237  C250  A    
C60   C116  A    
C138  C189  A    
C21   O55   A    
C243  O25   A    
C235  C248  A    
C176  N14   S    
H114  O90   S    
C37   C126  A    
C24   N19   S    
C34   C70   A    
C75   C110  A    
O49   Zn10  S    
C167  C218  A    
H6    N4    S    
C239  C252  A    
C16   O63   A    
H16   N8    S    
C29   C118  A    
C182  C224  A    
C170  N7    S    
C41   O99   S    
C48   C83   A    
C159  C176  A    
C157  C200  A    
H122  O99   S    
O63   Zn15  S    
C35   N20   S    
C73   H24   S    
C76   C111  A    
C260  H96   S    
C180  C226  A    
C177  N15   S    
C44   O102  S    
C141  N20   A    
C214  O17   S    
C68   N23   S    
C80   H55   S    
C25   O54   A    
C30   C65   A    
C48   C126  A    
C229  C247  A    
C190  C207  A    
O26   Zn11  S    
C20   C98   S    
C42   C77   A    
C237  C240  A    
C50   O108  S    
C140  C191  A    
C6    C242  A    
C57   C165  A    
C148  N22   A    
C20   O49   A    
C68   C166  A    
C149  N23   A    
C119  C127  S    
C113  C186  A    
O45   Zn8   S    
C236  C262  A    
C200  C217  A    
O48   Zn11  S    
H136  O112  S    
C14   O65   A    
C135  C245  A    
C238  C264  A    
C40   O98   S    
O29   Zn7   S    
O60   Zn9   S    
C88   H64   S    
C220  C221  S    
C167  N5    S    
C43   C78   A    
C232  O24   A    
C156  C174  A    
C34   C123  A    
H127  O103  S    
C132  O66   S    
C13   N18   S    
C58   C93   A    
H19   N10   S    
C41   C130  A    
C141  O75   S    
C120  C126  S    
C181  C223  A    
C45   C128  A    
C146  C248  A    
H50   O19   S    
C215  C253  A    
C51   C86   A    
C199  O95   A    
C17   O50   A    
C26   C115  A    
C178  C225  A    
C55   C91   A    
C62   H57   S    
C152  H78   S    
O61   Zn14  S    
C51   O109  S    
H110  O87   S    
H23   N13   S    
H34   O4    S    
C7    C244  A    
C136  O69   S    
C89   H65   S    
C48   O105  S    
C136  N19   A    
C39   C128  A    
C59   C94   A    
O31   Zn4   S    
C93   C99   A    
C139  C190  A    
H129  O105  S    
O51   Zn16  S    
C235  C261  A    
O27   Zn10  S    
C137  O70   S    
H11   N6    S    
H121  O98   S    
C28   O86   S    
C144  N23   A    
C29   O87   S    
H37   O6    S    
C55   C120  A    
C43   C130  A    
C9    C109  S    
H143  N24   S    
C90   C249  A    
C46   N21   S    
C26   O83   S    
C89   C100  A    
C67   C103  A    
C8    O59   A    
C44   C80   A    
C22   O56   A    
C101  C190  A    
H113  O89   S    
H139  O115  S    
C205  C263  A    
O50   Zn13  S    
H126  O102  S    
C229  C235  A    
H30   N16   S    
C6    C204  A    
O53   Zn15  S    
C227  C245  A    
C228  C255  A    
C52   C121  A    
C4    C202  A    
C23   C104  S    
C76   H52   S    
C77   H53   S    
C4    C240  A    
O95   Zn16  S    
C60   O3    S    
C157  C247  A    
C33   O91   S    
O37   Zn2   S    
O64   Zn12  S    
C81   C109  A    
C142  N21   A    
O40   Zn2   S    
O46   Zn5   S    
C52   O110  S    
C1    O106  A    
C221  O27   A    
C263  H99   S    
O22   Zn15  S    
C147  C197  A    
C199  C223  S    
C63   H68   S    
C165  H83   S    
C3    H102  S    
C77   C114  A    
C257  H93   S    
H133  O110  S    
O55   Zn9   S    
C229  C256  A    
C24   C153  A    
C155  H73   S    
C154  C254  A    
C259  H95   S    
C2    C151  A    
C173  N2    S    
C64   H79   S    
C241  C250  A    
C13   C152  A    
C45   O103  S    
C21   O44   A    
C94   H70   S    
C81   H56   S    
C207  O10   S    
H18   N9    S    
C208  C264  A    
C40   C75   A    
H49   O18   S    
C185  C203  A    
H40   O9    S    
C202  O5    S    
O30   Zn12  S    
C92   H67   S    
C150  C167  A    
C84   C108  A    
C142  C193  A    
C210  O22   A    
O1    Zn12  S    
C22   O45   A    
O42   Zn16  S    
C192  C209  A    
C195  C213  A    
C164  C182  A    
C92   C98   A    
C149  C200  A    
C140  O74   S    
O1    Zn4   S    
C112  C225  S    
C37   C72   A    
C161  C178  A    
H36   O5    S    
O29   Zn13  S    
C3    C239  A    
C137  C187  A    
H38   O7    S    
C31   C66   A    
O65   Zn13  S    
C2    C155  A    
C238  C251  A    
C68   C162  A    
C66   C102  A    
C209  O12   S    
C36   C125  A    
C43   O101  S    
C23   O46   A    
C113  C251  A    
C69   H123  S    
O106  Zn4   S    
C74   C109  A    
C151  C169  A    
C38   C127  A    
C137  N1    A    
H29   N15   S    
C115  C131  S    
C44   C131  A    
C16   O38   A    
C206  C262  A    
C216  O19   S    
C8    O31   A    
C79   C187  A    
C82   C110  A    
O23   Zn14  S    
C140  N19   A    
C28   C117  A    
C134  N18   A    
C95   H71   S    
O54   Zn14  S    
C24   C158  A    
C233  C246  A    
C30   C119  A    
C258  H94   S    
H124  O100  S    
C238  C244  A    
O51   Zn15  S    
C58   C118  A    
C21   C97   S    
C168  C201  A    
C112  O2    A    
C72   H13   S    
C47   C82   A    
H31   N16   S    
C210  O26   A    
H43   O12   S    
C218  C243  S    
C118  C128  S    
H17   N9    S    
O52   Zn12  S    
O1    Zn8   S    
C160  H86   S    
O58   Zn11  S    
C79   C168  A    
C53   C88   A    
H9    N5    S    
C15   O61   A    
C197  C215  A    
C27   C116  A    
C155  C173  A    
C124  C192  A    
C46   C164  A    
C134  C185  A    
C74   H35   S    
C18   C100  S    
H22   N11   S    
C85   C105  A    
C85   H61   S    
C170  C220  A    
C14   C105  S    
C178  N16   S    
C113  C191  A    
O47   Zn6   S    
C51   C125  A    
C166  H84   S    
C12   O64   A    
O51   Zn11  S    
C54   C89   A    
O28   Zn13  S    
C25   C103  S    
C172  N24   S    
C9    O60   A    
O41   Zn4   S    
C135  C193  A    
C158  C175  A    
O43   Zn2   S    
C72   C107  A    
C15   O37   A    
C153  C171  A    
C15   C114  S    
C154  C172  A    
C112  O73   A    
O24   Zn9   S    
C61   H1    S    
C78   C111  A    
H109  O86   S    
C188  C224  S    
C80   C114  A    
C67   H112  S    
C11   O34   A    
C11   C107  S    
C1    O62   A    
C91   H66   S    
O29   Zn3   S    
C91   C102  A    
C2    N12   S    
C169  N6    S    
C171  C222  A    
C230  C248  A    
C69   C104  A    
C90   C179  A    
C138  O71   S    
C244  C252  A    
C169  C219  A    
C214  C255  A    
C159  H85   S    
C203  O6    S    
H118  O94   S    
C52   C87   A    
H25   N13   S    
C50   C123  A    
C132  C168  A    
H144  N2    S    
H39   O8    S    
C150  H76   S    
C32   O90   S    
C87   H63   S    
C211  O14   S    
C78   H54   S    
H119  O96   S    
C42   O100  S    
H47   O16   S    
C145  N20   A    
C83   H59   S    
H138  O114  S    
C148  C198  A    
C144  O78   S    
C139  O72   S    
C163  H81   S    
C221  O23   A    
C175  C222  A    
C83   C107  A    
C239  C242  A    
C191  C208  A    
C173  C219  A    
C35   C159  A    
H120  O97   S    
C193  C211  A    
C53   O111  S    
C56   C92   A    
C212  O15   S    
C59   C115  A    
C261  H97   S    
C59   O116  S    
C5    C241  A    
C122  C123  S    
C156  H74   S    
C38   C73   A    
C90   C189  A    
