data_mof_unit_8984.cif
_audit_creation_date              2012-10-26T18:51:45-0400
_audit_creation_method            fapswitch 2.2
_symmetry_space_group_name_H-M    P1
_symmetry_Int_Tables_number       1
_space_group_crystal_system       triclinic
_cell_length_a                    11.704363
_cell_length_b                    14.698883
_cell_length_c                    14.634653
_cell_angle_alpha                 64.56476
_cell_angle_beta                  103.794103
_cell_angle_gamma                 103.070954
_cell_volume                      2186.04803199

loop_
_atom_site_label
_atom_site_type_symbol
_atom_type_description
_atom_site_fract_x
_atom_site_fract_y
_atom_site_fract_z
_atom_type_partial_charge
C1    C     C_R   0.489764 0.119538 0.311482 0.535287
C2    C     C_R   0.621275 0.609360 0.106389 -0.094017
C3    C     C_R   0.719538 0.298943 0.644659 -0.125115
C4    C     C_R   0.300446 0.720680 0.327217 -0.111527
C5    C     C_R   0.677996 0.209046 0.627982 0.409378
C6    C     C_R   0.330134 0.798946 0.362551 0.416377
C7    C     C_R   0.508749 0.281741 0.517068 0.030592
C8    C     C_R   0.485307 0.714486 0.485886 0.035317
C9    C     C_R   0.551954 0.378323 0.523100 -0.019954
C10   C     C_R   0.464907 0.636968 0.447437 -0.005341
C11   C     C_R   0.657926 0.383926 0.593222 -0.008404
C12   C     C_R   0.518336 0.879840 0.688836 0.520264
C13   C     C_R   0.366888 0.639204 0.368792 -0.011125
C14   C     C_R   0.493590 0.468005 0.464064 0.003350
C15   C     C_R   0.536663 0.556719 0.486779 0.017798
C16   C     C_R   0.284016 0.000055 0.499887 0.545102
C17   C     C_R   0.716004 0.999821 0.500284 0.543159
C18   C     C_R   0.652273 0.564148 0.544806 -0.018132
C19   C     C_R   0.399157 0.476078 0.378983 -0.017374
C20   C     C_R   0.706268 0.476093 0.605547 -0.004669
C21   C     C_R   0.337262 0.561217 0.331883 0.002631
C22   C     C_1   0.162336 0.999931 0.500012 -0.037468
C23   C     C_R   0.528905 0.324289 0.999775 0.027376
C24   C     C_1   0.837668 0.999724 0.500357 -0.003673
C25   C     C_1   0.059863 0.999783 0.500142 -0.048778
C26   C     C_1   0.940107 0.999689 0.500300 -0.032477
C27   C     C_R   0.503651 0.185771 0.202506 -0.092637
C28   C     C_R   0.537692 0.811489 0.799130 -0.093008
C29   C     C_R   0.488261 0.220044 0.021018 0.267647
C30   C     C_R   0.581722 0.778283 0.981345 0.285664
C31   C     C_R   0.480428 0.149577 0.122961 -0.010892
C32   C     C_R   0.543656 0.843495 0.879007 -0.003433
C33   C     C_R   0.545816 0.288920 0.179400 -0.142307
C34   C     C_R   0.595187 0.677020 0.004441 0.029558
C35   C     C_R   0.555252 0.712027 0.823496 -0.158779
C36   C     C_R   0.556728 0.360121 0.079192 -0.007510
C37   C     C_R   0.578763 0.641925 0.925222 -0.010197
C38   C     C_2   0.726424 0.664725 0.530816 0.179613
C39   C     C_2   0.376924 0.408393 0.323545 0.207815
C40   C     C_2   0.501926 0.940640 0.856861 0.280052
C41   C     C_2   0.457179 0.038981 0.144930 0.323973
C42   C     C_3   0.345388 0.197670 0.893248 0.022415
C43   C     C_3   0.315335 0.153815 0.811894 -0.334805
C44   C     C_3   0.708429 0.851310 0.083164 0.004990
C45   C     C_R   0.586837 0.466928 0.054928 0.047577
C46   C     C_3   0.715688 0.892405 0.163953 -0.318804
C47   C     C_2   0.815845 0.482558 0.680377 0.178160
C48   C     C_2   0.243765 0.569333 0.240442 0.209477
C49   C     C_3   0.148758 0.863098 0.300891 -0.012134
C50   C     C_3   0.098031 0.901836 0.186929 -0.370627
C51   C     C_3   0.801767 0.108945 0.770623 -0.024073
C52   C     C_3   0.841980 0.004583 0.817377 -0.359041
C53   C     C_R   0.578552 0.536448 0.950504 0.043141
C54   C     C_R   0.565747 0.497156 0.875239 -0.126738
C55   C     C_R   0.619758 0.506993 0.131042 -0.104492
C56   C     C_R   0.542909 0.393219 0.899891 -0.099194
Cu1   Cu    Cu3+1 0.469550 0.918260 0.475690 1.002977
Cu2   Cu    Cu3+1 0.530450 0.081740 0.524310 1.007540
H1    H     H_    0.531861 0.367496 0.838746 0.163199
H2    H     H_    0.226260 0.725364 0.266182 0.148593
H3    H     H_    0.785010 0.677155 0.595283 0.101114
H4    H     H_    0.287264 0.375200 0.302600 0.091282
H5    H     H_    0.437789 0.972950 0.789056 0.106169
H6    H     H_    0.508553 0.986489 0.210352 0.127571
H7    H     H_    0.333517 0.279435 0.854778 0.101061
H8    H     H_    0.281208 0.157175 0.948268 0.162170
H9    H     H_    0.320278 0.070888 0.848511 0.204887
H10   H     H_    0.223813 0.165858 0.770098 0.080693
H11   H     H_    0.378765 0.191894 0.756325 0.154484
H12   H     H_    0.639105 0.634236 0.168793 0.166796
H13   H     H_    0.739150 0.915467 0.014191 0.148436
H14   H     H_    0.769385 0.792974 0.113854 0.098565
H15   H     H_    0.683530 0.830659 0.233347 0.209050
H16   H     H_    0.808949 0.923355 0.185390 0.088757
H17   H     H_    0.660046 0.954335 0.133150 0.187419
H18   H     H_    0.891614 0.539661 0.655715 0.103982
H19   H     H_    0.171692 0.507331 0.244127 0.082158
H20   H     H_    0.115349 0.904600 0.334850 0.163929
H21   H     H_    0.113384 0.781233 0.340209 0.093028
H22   H     H_    0.132556 0.865440 0.148491 0.184035
H23   H     H_    0.546882 0.690139 0.760732 0.132635
H24   H     H_    0.999695 0.883957 0.176495 0.085538
H25   H     H_    0.123284 0.985568 0.150245 0.172099
H26   H     H_    0.742322 0.110213 0.819165 0.166664
H27   H     H_    0.883286 0.165017 0.770675 0.121675
H28   H     H_    0.902416 0.001792 0.770788 0.161730
H29   H     H_    0.890212 0.989150 0.896550 0.086456
H30   H     H_    0.764205 0.944881 0.819761 0.159656
H31   H     H_    0.570110 0.312134 0.242161 0.195675
H32   H     H_    0.571951 0.544456 0.795944 0.101651
H33   H     H_    0.643843 0.461029 0.211117 0.148734
H34   H     H_    0.549865 0.711680 0.552963 0.127368
H35   H     H_    0.421416 0.265453 0.478499 0.143140
H36   H     H_    0.804275 0.304692 0.692136 0.137689
N1    N     N_R   0.576230 0.204580 0.560790 -0.224367
N2    N     N_R   0.423770 0.795420 0.439210 -0.230693
O1    O     O_R   0.459870 0.022090 0.338120 -0.470393
O2    O     O_2   0.458997 0.392302 0.297559 -0.533890
O3    O     O_2   0.536450 0.985134 0.914337 -0.454834
O4    O     O_2   0.382171 0.005236 0.089272 -0.453901
O5    O     O_3   0.463812 0.185448 0.942977 -0.508792
O6    O     O_3   0.589779 0.808759 0.060286 -0.494801
O7    O     O_2   0.820218 0.425947 0.770944 -0.509995
O8    O     O_2   0.250125 0.643307 0.159431 -0.468618
O9    O     O_3   0.274439 0.885589 0.314013 -0.504320
O10   O     O_3   0.742770 0.127733 0.669325 -0.516645
O11   O     O_R   0.540130 0.977910 0.661880 -0.480345
O12   O     O_R   0.511290 0.160150 0.379180 -0.480686
O13   O     O_R   0.488710 0.839850 0.620820 -0.514273
O14   O     O_R   0.311490 0.930960 0.479480 -0.460730
O15   O     O_R   0.688510 0.069040 0.520520 -0.441506
O16   O     O_R   0.362910 0.069020 0.520540 -0.519709
O17   O     O_R   0.637090 0.930980 0.479460 -0.492101
O18   O     O_2   0.724546 0.734054 0.445951 -0.517992

loop_
_geom_bond_atom_site_label_1
_geom_bond_atom_site_label_2
_ccdc_geom_bond_type
C15   C18   A    
C34   C37   A    
C8    N2    A    
Cu2   N1    S    
C51   H27   S    
C40   O3    D    
C35   H23   S    
C16   O14   A    
C23   C56   A    
C53   C54   A    
C27   C33   A    
C50   H24   S    
C40   H5    S    
C12   C28   S    
Cu2   O16   S    
C23   C29   A    
C35   C37   A    
C24   C26   T    
C47   H18   S    
C54   H32   S    
C2    C55   A    
C38   O18   D    
C48   O8    D    
C33   C36   A    
C49   H20   S    
C44   H13   S    
Cu2   O11   S    
C4    C13   A    
C46   H17   S    
C55   H33   S    
Cu1   O13   S    
C28   C35   A    
C43   H10   S    
Cu1   N2    S    
C42   H7    S    
C8    H34   S    
Cu2   O12   S    
C21   C48   S    
C37   C53   A    
C2    C34   A    
C45   C53   A    
C43   H11   S    
C4    H2    S    
C17   O15   A    
C12   O13   A    
C5    N1    A    
C44   C46   S    
C50   H25   S    
C5    O10   S    
C7    H35   S    
C54   C56   A    
C11   C20   A    
C17   C24   S    
C47   O7    D    
C30   C34   A    
C17   O17   A    
Cu2   O15   S    
C28   C32   A    
C4    C6    A    
C1    O1    A    
C44   O6    S    
C39   O2    D    
Cu1   O17   S    
C25   C26   S    
C27   C31   A    
C22   C25   T    
C51   C52   S    
C48   H19   S    
C9    C14   A    
C33   H31   S    
Cu1   O14   S    
C52   H30   S    
Cu1   O1    S    
C30   O6    S    
C41   O4    D    
C29   O5    S    
C36   C45   A    
C9    C11   A    
C19   C39   S    
C8    C10   A    
C23   C36   A    
C6    N2    A    
C42   C43   S    
C42   O5    S    
C46   H16   S    
C16   O16   A    
C42   H8    S    
C7    C9    A    
C39   H4    S    
C16   C22   S    
C31   C41   S    
C19   C21   A    
C14   C19   A    
C52   H29   S    
C3    C5    A    
C10   C13   A    
C50   H22   S    
C12   O11   A    
C49   O9    S    
C7    N1    A    
C56   H1    S    
C10   C15   A    
C38   H3    S    
C52   H28   S    
C18   C38   S    
C29   C31   A    
C13   C21   A    
C30   C32   A    
Cu1   Cu2   S    
C51   O10   S    
C6    O9    S    
C44   H14   S    
C3    H36   S    
C18   C20   A    
C32   C40   S    
C20   C47   S    
C3    C11   A    
C1    O12   A    
C49   H21   S    
C45   C55   A    
C43   H9    S    
C49   C50   S    
C1    C27   S    
C14   C15   A    
C41   H6    S    
C2    H12   S    
C51   H26   S    
C46   H15   S    
