data_mof_unit_56707.cif
_audit_creation_date              2012-12-10T17:47:40-0500
_audit_creation_method            fapswitch 2.2
_symmetry_space_group_name_H-M    P1
_symmetry_Int_Tables_number       1
_space_group_crystal_system       triclinic
_cell_length_a                    10.728301
_cell_length_b                    10.667533
_cell_length_c                    9.933446
_cell_angle_alpha                 89.149856
_cell_angle_beta                  89.436048
_cell_angle_gamma                 89.668206
_cell_volume                      1136.62999271

loop_
_atom_site_label
_atom_site_type_symbol
_atom_type_description
_atom_site_fract_x
_atom_site_fract_y
_atom_site_fract_z
_atom_type_partial_charge
C1    C     C_R   0.517964 0.261197 0.502008 0.857394
C2    C     C_3   0.878626 0.499313 0.496097 0.021168
C3    C     C_3   0.930368 0.496033 0.349041 -0.381333
C4    C     C_3   0.929403 0.381774 0.574656 -0.201106
C5    C     C_R   0.563750 0.109560 0.761847 0.038391
C6    C     C_R   0.517025 0.055952 0.879801 -0.197073
C7    C     C_R   0.441267 0.952919 0.875222 -0.203398
C8    C     C_R   0.419810 0.893972 0.753527 0.040995
C9    C     C_R   0.475129 0.941283 0.630232 0.043859
C10   C     C_R   0.529414 0.061195 0.633957 0.030418
C11   C     C_R   0.544256 0.127405 0.509550 -0.153354
C12   C     C_R   0.258089 0.501585 0.499481 0.868533
C13   C     C_R   0.557171 0.062033 0.389253 -0.001384
C14   C     C_R   0.527061 0.937355 0.387719 -0.249199
C15   C     C_R   0.485836 0.875858 0.505286 -0.145004
C16   C     C_R   0.342386 0.335713 0.144068 -0.175406
C17   C     C_R   0.266944 0.252464 0.077179 -0.264285
C18   C     C_R   0.266981 0.251052 0.937919 0.033818
C19   C     C_R   0.342382 0.334546 0.864910 -0.203737
C20   C     C_R   0.422577 0.418489 0.929938 0.131621
C21   C     C_R   0.422587 0.418790 0.074274 0.157188
C22   C     C_R   0.573475 0.578692 0.069847 -0.030605
C23   C     C_R   0.489639 0.740498 0.500762 0.867130
C24   C     C_R   0.572926 0.579239 0.926281 -0.022823
C25   C     C_R   0.741908 0.497797 0.498872 0.872387
C26   C     C_3   0.069431 0.621788 0.566823 -0.029853
C27   C     C_3   0.924068 0.621135 0.565931 -0.028172
C28   C     C_3   0.072430 0.500408 0.349016 -0.373937
C29   C     C_3   0.074540 0.381168 0.573033 -0.076979
C30   C     C_3   0.121488 0.501385 0.496541 0.092522
H1    H     H_    0.109775 0.419134 0.292613 0.183522
H2    H     H_    0.899775 0.409215 0.298384 0.192199
H3    H     H_    0.537523 0.095335 0.976486 0.171659
H4    H     H_    0.401527 0.916910 0.968892 0.148025
H5    H     H_    0.540253 0.887473 0.294394 0.182183
H6    H     H_    0.095396 0.613683 0.674171 0.160456
H7    H     H_    0.334256 0.331713 0.250472 0.217859
H8    H     H_    0.208001 0.188842 0.134930 0.156260
H9    H     H_    0.336149 0.330897 0.758320 0.210175
H10   H     H_    0.892979 0.615236 0.673141 0.156504
H11   H     H_    0.104240 0.584819 0.291826 0.188989
H12   H     H_    0.894293 0.575997 0.288009 0.202216
H13   H     H_    0.104770 0.387483 0.679781 0.153204
H14   H     H_    0.900130 0.390239 0.681456 0.140034
N1    N     N_R   0.498810 0.498800 0.142780 -0.141622
N2    N     N_R   0.498760 0.498720 0.857170 -0.135359
O1    O     O_R   0.500000 0.316780 0.614690 -0.645651
O2    O     O_R   0.499990 0.316750 0.385360 -0.630987
O3    O     O_R   0.314800 0.499990 0.614670 -0.639902
O4    O     O_R   0.314790 0.499970 0.385330 -0.647896
O5    O     O_R   0.500010 0.683250 0.614640 -0.609871
O6    O     O_R   0.500000 0.683220 0.385310 -0.613013
O7    O     O_R   0.685210 0.500030 0.614670 -0.622348
O8    O     O_R   0.685200 0.500010 0.385330 -0.613078
Zn1   Zn    Zn3+2 0.500010 0.500020 0.653130 0.952613
Zn2   Zn    Zn3+2 0.499990 0.499980 0.346870 0.946675
C31   C     C_3   0.128675 0.745242 0.511826 -0.841033
H15   H     H_    0.100689 0.766755 0.406935 0.243786
H16   H     H_    0.101941 0.825024 0.576694 0.251642
H17   H     H_    0.231568 0.740396 0.512545 0.216495
C32   C     C_1   0.875060 0.263548 0.525330 0.209144
N3    N     N_1   0.834049 0.170811 0.486860 -0.221148
C33   C     C_1   0.613754 0.118438 0.270416 0.219563
N4    N     N_1   0.660837 0.164658 0.177047 -0.217184
C34   C     C_1   0.657014 0.204116 0.780518 0.227356
N5    N     N_1   0.730704 0.279832 0.800812 -0.217544
C35   C     C_1   0.334111 0.791616 0.766543 0.187638
N6    N     N_1   0.266807 0.709093 0.785299 -0.212218
C36   C     C_1   0.653010 0.664054 0.139770 0.229251
N7    N     N_1   0.717305 0.733287 0.194181 -0.242065
C37   C     C_1   0.190758 0.161046 0.870864 0.156068
N8    N     N_1   0.129572 0.087489 0.818828 -0.218879
C38   C     C_1   0.649041 0.668330 0.852901 0.249984
N9    N     N_1   0.709928 0.741404 0.796116 -0.217671
C39   C     C_3   0.862374 0.742939 0.509439 -0.786006
H18   H     H_    0.888983 0.824685 0.570430 0.249973
H19   H     H_    0.888636 0.761162 0.402883 0.249796
H20   H     H_    0.759370 0.738108 0.515722 0.238697
C40   C     C_3   0.135089 0.258157 0.520008 -0.866846
H21   H     H_    0.101199 0.176399 0.579410 0.265392
H22   H     H_    0.112206 0.241840 0.413155 0.242005
H23   H     H_    0.237901 0.259226 0.530413 0.223180

loop_
_geom_bond_atom_site_label_1
_geom_bond_atom_site_label_2
_ccdc_geom_bond_type
C3    H12   S    
C16   C21   A    
C38   N9    T    
C19   C20   A    
C1    C11   S    
C12   O3    A    
C31   H15   S    
C7    C8    A    
C26   C27   S    
C3    C28   S    
C25   O7    A    
C36   N7    T    
C5    C6    A    
C24   C38   S    
C31   H16   S    
C28   H11   S    
C18   C19   A    
N1    Zn2   S    
C8    C9    A    
C13   C33   S    
N2    Zn1   S    
C2    C27   S    
C9    C10   A    
C22   C36   S    
C4    C29   S    
C16   H7    S    
C15   C23   S    
C13   C14   A    
C29   H13   S    
C32   N3    T    
C27   C39   S    
C39   H20   S    
C21   N1    A    
O7    Zn1   S    
O8    Zn2   S    
C35   N6    T    
C25   O8    A    
C5    C34   S    
C14   H5    S    
C40   H22   S    
C1    O1    A    
C31   H17   S    
C4    H14   S    
O3    Zn1   S    
C4    C32   S    
O4    Zn2   S    
C40   H21   S    
C2    C4    S    
C39   H18   S    
C29   C30   S    
C23   O5    A    
C29   C40   S    
C27   H10   S    
C17   C18   A    
C39   H19   S    
C19   H9    S    
C26   H6    S    
C26   C30   S    
C7    H4    S    
C22   C24   A    
O1    Zn1   S    
C18   C37   S    
O2    Zn2   S    
C12   C30   S    
C28   H1    S    
C40   H23   S    
C12   O4    A    
C1    O2    A    
C6    C7    A    
C6    H3    S    
C24   N2    A    
C28   C30   S    
C2    C3    S    
C9    C15   A    
C5    C10   A    
C11   C13   A    
C23   O6    A    
C16   C17   A    
C2    C25   S    
O5    Zn1   S    
C17   H8    S    
C3    H2    S    
C26   C31   S    
C10   C11   A    
C33   N4    T    
C37   N8    T    
C22   N1    A    
C20   C21   A    
C8    C35   S    
C34   N5    T    
C14   C15   A    
C20   N2    A    
O6    Zn2   S    
