data_mof_unit_34596.cif
_audit_creation_date              2012-12-10T18:05:10-0500
_audit_creation_method            fapswitch 2.2
_symmetry_space_group_name_H-M    P1
_symmetry_Int_Tables_number       1
_space_group_crystal_system       triclinic
_cell_length_a                    9.524467
_cell_length_b                    10.819954
_cell_length_c                    17.120789
_cell_angle_alpha                 88.639392
_cell_angle_beta                  93.225625
_cell_angle_gamma                 90.277603
_cell_volume                      1761.06798507

loop_
_atom_site_label
_atom_site_type_symbol
_atom_type_description
_atom_site_fract_x
_atom_site_fract_y
_atom_site_fract_z
_atom_type_partial_charge
C1    C     C_R   0.499748 0.262167 0.500662 0.968283
C2    C     C_R   0.500214 0.737787 0.500108 0.928178
C3    C     C_R   0.385181 0.936867 0.465685 0.486898
C4    C     C_R   0.613569 0.062987 0.537075 0.490909
C5    C     C_R   0.500058 0.871548 0.500694 -0.497243
C6    C     C_R   0.499232 0.128305 0.501437 -0.487619
C7    C     C_R   0.077663 0.410910 0.540700 0.763876
C8    C     C_R   0.922830 0.591758 0.461908 0.697959
C9    C     C_R   0.928943 0.410540 0.540134 -0.164644
C10   C     C_R   0.071217 0.590359 0.460780 -0.209674
C11   C     C_R   0.516661 0.499955 0.650586 0.833720
C12   C     C_R   0.483420 0.500961 0.348826 0.852689
C13   C     C_R   0.524893 0.503757 0.735925 -0.219778
C14   C     C_R   0.474475 0.500488 0.262396 -0.208171
C15   C     C_R   0.422179 0.566430 0.776339 0.438255
C16   C     C_R   0.593413 0.477007 0.218994 0.418336
C17   C     C_R   0.425334 0.556989 0.857817 -0.291354
C18   C     C_R   0.577456 0.469979 0.137910 -0.314031
C19   C     C_R   0.533964 0.491320 0.899575 0.195574
C20   C     C_R   0.448060 0.497618 0.097583 0.218934
C21   C     C_R   0.640345 0.437288 0.859102 0.635592
C22   C     C_R   0.331458 0.522964 0.140395 0.618393
C23   C     C_R   0.635500 0.442653 0.777832 -0.328697
C24   C     C_R   0.343909 0.522643 0.221977 -0.341720
C25   C     C_R   0.384717 0.064744 0.466118 0.529751
C26   C     C_R   0.613995 0.935002 0.536675 0.517691
Cu1   Cu    Cu3+1 0.640660 0.500020 0.500000 1.071594
Cu2   Cu    Cu3+1 0.359340 0.499980 0.500000 1.069349
H1    H     H_    0.668603 0.445264 0.106703 0.222117
H2    H     H_    0.344164 0.602744 0.888113 0.216741
H3    H     H_    0.716341 0.396264 0.747564 0.221695
H4    H     H_    0.251196 0.540942 0.253512 0.202118
H5    H     H_    0.875716 0.339263 0.572626 0.232136
H6    H     H_    0.124422 0.662215 0.428779 0.232812
N1    N     N_2   0.543701 0.481300 0.982208 -0.178036
N2    N     N_2   0.433019 0.504472 0.014523 -0.161371
N3    N     N_R   0.852070 0.500030 0.499980 -0.256062
N4    N     N_R   0.147930 0.499970 0.500020 -0.259360
O1    O     O_R   0.618740 0.319660 0.500000 -0.554905
O2    O     O_R   0.381260 0.680340 0.500000 -0.575182
O3    O     O_R   0.381170 0.319630 0.500010 -0.488536
O4    O     O_R   0.618830 0.680370 0.499990 -0.477362
O5    O     O_R   0.631780 0.498870 0.613920 -0.587245
O6    O     O_R   0.368220 0.501130 0.386080 -0.588194
O7    O     O_R   0.394210 0.498840 0.613930 -0.529082
O8    O     O_R   0.605790 0.501160 0.386070 -0.550701
O9    O     O_3   0.724049 0.450569 0.254663 -0.573046
C27   C     C_3   0.803347 0.561041 0.263157 0.115212
H7    H     H_    0.884756 0.542749 0.310649 0.189487
H8    H     H_    0.738916 0.640240 0.281271 0.175527
C28   C     C_3   0.880358 0.596320 0.189470 -0.411954
H9    H     H_    0.942967 0.516343 0.171686 0.284608
H10   H     H_    0.803604 0.622371 0.140804 0.224303
C29   C     C_3   0.977890 0.706741 0.204336 -0.719914
H11   H     H_    0.916108 0.788586 0.219781 0.262639
H12   H     H_    0.033790 0.729855 0.150699 0.294026
H13   H     H_    0.056858 0.685189 0.252866 0.248172
O10   O     O_3   0.312977 0.630967 0.737366 -0.566504
C30   C     C_3   0.363341 0.742931 0.704235 0.078815
H14   H     H_    0.300856 0.761160 0.648419 0.194755
H15   H     H_    0.475738 0.739853 0.689146 0.114676
C31   C     C_3   0.341871 0.850343 0.758782 -0.359916
H16   H     H_    0.229061 0.855603 0.771799 0.258539
H17   H     H_    0.404880 0.834298 0.814690 0.224170
C32   C     C_3   0.386861 0.972941 0.721608 -0.802713
H18   H     H_    0.500268 0.970603 0.709685 0.264323
H19   H     H_    0.369486 0.049280 0.762145 0.278141
H20   H     H_    0.324288 0.991664 0.665870 0.263750
F1    F     F_    0.747303 0.376285 0.898782 -0.611176
F2    F     F_    0.205208 0.547726 0.102779 -0.649775
F3    F     F_    0.274352 0.126209 0.429878 -0.563273
F4    F     F_    0.723963 0.873325 0.573147 -0.569039
F5    F     F_    0.275281 0.877362 0.428927 -0.597537
F6    F     F_    0.723206 0.122668 0.573948 -0.594706
F7    F     F_    0.150434 0.322427 0.582863 -0.606750
F8    F     F_    0.851064 0.685355 0.424289 -0.639474

loop_
_geom_bond_atom_site_label_1
_geom_bond_atom_site_label_2
_ccdc_geom_bond_type
C26   F4    S    
N1    N2    D    
C19   C21   A    
Cu1   N3    S    
C6    C25   A    
Cu2   O2    S    
Cu2   O3    S    
C8    F8    S    
C13   C23   A    
C18   C20   A    
C15   C17   A    
C14   C24   A    
C31   H17   S    
C27   C28   S    
Cu1   O1    S    
C32   H19   S    
C11   O5    A    
C25   F3    S    
C4    F6    S    
C27   H8    S    
C30   H14   S    
C9    H5    S    
C17   H2    S    
C16   O9    S    
C29   H12   S    
Cu2   O7    S    
C30   H15   S    
C28   H9    S    
C3    C25   A    
C4    C6    A    
C7    F7    S    
O10   C30   S    
Cu2   O6    S    
C1    C6    S    
C21   F1    S    
C28   H10   S    
C12   O8    A    
C23   H3    S    
C24   H4    S    
C31   H16   S    
Cu1   O5    S    
O9    C27   S    
Cu2   N4    S    
C32   H20   S    
C9    N3    A    
C10   H6    S    
C18   H1    S    
Cu1   O8    S    
C1    O3    A    
C27   H7    S    
C12   C14   S    
C13   C15   A    
C15   O10   S    
C14   C16   A    
C11   O7    A    
C2    C5    S    
C8    N3    A    
C7    C9    A    
C29   H11   S    
C30   C31   S    
C31   C32   S    
C16   C18   A    
C20   C22   A    
C3    C5    A    
C4    C26   A    
C10   N4    A    
C28   C29   S    
C21   C23   A    
C12   O6    A    
C19   N1    S    
C11   C13   S    
Cu1   O4    S    
C2    O4    A    
C17   C19   A    
C7    N4    A    
C22   C24   A    
C3    F5    S    
C1    O1    A    
C5    C26   A    
C20   N2    S    
C2    O2    A    
C8    C10   A    
C32   H18   S    
Cu1   Cu2   S    
C22   F2    S    
C29   H13   S    
