data_mof_unit_61740.cif
_audit_creation_date              2012-12-10T19:50:18-0500
_audit_creation_method            fapswitch 2.2
_symmetry_space_group_name_H-M    P1
_symmetry_Int_Tables_number       1
_space_group_crystal_system       triclinic
_cell_length_a                    36.729397
_cell_length_b                    18.271159
_cell_length_c                    18.273034
_cell_angle_alpha                 90.000624
_cell_angle_beta                  119.651363
_cell_angle_gamma                 90.000526
_cell_volume                      10657.0306096

loop_
_atom_site_label
_atom_site_type_symbol
_atom_type_description
_atom_site_fract_x
_atom_site_fract_y
_atom_site_fract_z
_atom_type_partial_charge
C1    C     C_R   0.499952 1.000000 0.358729 0.934572
C2    C     C_1   0.336944 0.999752 0.332464 -0.040125
C3    C     C_3   0.810854 0.340101 0.122100 -0.824581
C4    C     C_3   0.803954 0.587696 0.118618 0.186126
C5    C     C_3   0.808980 0.668464 0.105614 -0.900818
C6    C     C_3   0.200039 0.385020 0.821286 0.038848
C7    C     C_3   0.189135 0.340057 0.877843 -0.824552
C8    C     C_3   0.791379 0.088100 0.910891 -0.850346
C9    C     C_3   0.205413 0.954336 0.062614 -0.867556
C10   C     C_3   0.208624 0.087321 0.088552 -0.850337
C11   C     C_3   0.794587 0.955265 0.937685 -0.867555
C12   C     C_3   0.291380 0.588217 0.910816 -0.850323
C13   C     C_1   0.163053 0.499783 0.667555 -0.040110
C14   C     C_3   0.705410 0.455443 0.062251 -0.867552
C15   C     C_3   0.708624 0.588248 0.089219 -0.850345
C16   C     C_3   0.294589 0.455404 0.937735 -0.867535
C17   C     C_1   0.836946 0.499776 0.332448 -0.040107
C18   C     C_1   0.625607 0.999952 0.627628 -0.183744
C19   C     C_1   0.374392 0.999944 0.372377 -0.183755
C20   C     C_1   0.125606 0.499954 0.627633 -0.183735
C21   C     C_1   0.874393 0.499950 0.372368 -0.183735
C22   C     C_1   0.499861 0.999999 0.282226 -0.193979
C23   C     C_1   0.500139 0.000001 0.717774 -0.193985
C24   C     C_1   0.999861 0.499999 0.282226 -0.193978
C25   C     C_R   0.500048 0.000000 0.641271 0.934557
C26   C     C_1   0.000139 0.500001 0.717774 -0.193976
C27   C     C_1   0.499839 1.000000 0.217462 -0.191787
C28   C     C_1   0.500161 0.000001 0.782538 -0.191793
C29   C     C_1   0.999839 0.500000 0.217462 -0.191790
C30   C     C_1   0.000161 0.500001 0.782538 -0.191788
C31   C     C_R   1.000000 0.141042 0.000000 0.933652
C32   C     C_R   0.000000 0.858958 1.000000 0.934243
C33   C     C_R   0.500000 0.641042 0.000000 0.933650
C34   C     C_R   0.500000 0.358958 1.000000 0.934244
C35   C     C_R   0.918806 0.000016 0.918945 0.910016
C36   C     C_R   0.999952 0.500000 0.358729 0.934559
C37   C     C_R   0.081194 0.000017 0.081055 0.910021
C38   C     C_R   0.418806 0.500017 0.918945 0.910013
C39   C     C_R   0.581194 0.500016 0.081055 0.910014
C40   C     C_R   0.500000 0.858718 1.000000 0.934311
C41   C     C_R   0.500000 0.141282 0.000000 0.934435
C42   C     C_R   1.000000 0.358718 1.000000 0.934308
C43   C     C_R   0.000000 0.641282 0.000000 0.934430
C44   C     C_R   0.499942 0.000000 0.141150 0.934688
C45   C     C_R   0.500058 0.000000 0.858850 0.934683
C46   C     C_R   0.999942 0.500000 0.141150 0.934680
C47   C     C_R   0.000048 0.500000 0.641270 0.934563
C48   C     C_R   0.000058 0.500000 0.858850 0.934681
C49   C     C_1   0.999999 0.217495 0.000000 -0.194375
C50   C     C_1   0.000001 0.782505 1.000000 -0.194156
C51   C     C_1   0.499999 0.717495 0.000000 -0.194378
C52   C     C_1   0.500001 0.282505 1.000000 -0.194152
C53   C     C_R   0.581198 0.999996 0.581216 0.906051
C54   C     C_R   0.418802 0.999995 0.418784 0.906057
C55   C     C_R   0.081198 0.499997 0.581216 0.906058
C56   C     C_R   0.918802 0.499995 0.418784 0.906054
C57   C     C_1   0.499999 0.782263 1.000000 -0.190876
C58   C     C_1   0.836931 0.000765 0.840578 -0.060996
C59   C     C_1   0.500001 0.217737 0.000000 -0.191009
C60   C     C_1   0.999999 0.282263 1.000000 -0.190875
C61   C     C_1   0.000001 0.717737 0.000000 -0.191012
C62   C     C_3   0.725543 0.065975 0.688303 -0.428951
C63   C     C_3   0.273449 0.931272 0.305906 -0.517691
C64   C     C_3   0.274455 0.066217 0.311278 -0.428928
C65   C     C_3   0.726549 0.931062 0.694546 -0.517670
C66   C     C_3   0.225540 0.565947 0.688248 -0.428959
C67   C     C_3   0.773450 0.431022 0.305365 -0.517666
C68   C     C_3   0.774460 0.565928 0.311776 -0.428963
C69   C     C_1   0.163069 0.000735 0.159420 -0.060999
C70   C     C_3   0.226547 0.431038 0.694614 -0.517669
C71   C     C_3   0.774484 0.928004 0.750845 -0.458805
C72   C     C_3   0.226048 0.063528 0.267365 -0.452718
C73   C     C_3   0.225514 0.928157 0.249625 -0.458788
C74   C     C_3   0.773951 0.063261 0.732232 -0.452697
C75   C     C_3   0.274481 0.427988 0.750915 -0.458810
C76   C     C_3   0.726053 0.563209 0.267846 -0.452693
C77   C     C_3   0.725516 0.427974 0.249061 -0.458815
C78   C     C_3   0.273947 0.563229 0.732177 -0.452693
C79   C     C_1   0.874386 0.000362 0.875410 -0.197862
C80   C     C_1   0.336930 0.500773 0.840578 -0.060991
C81   C     C_1   0.125614 0.000351 0.124589 -0.197863
C82   C     C_1   0.374385 0.500367 0.875410 -0.197862
C83   C     C_1   0.625615 0.500365 0.124590 -0.197863
C84   C     C_3   0.708744 0.999616 0.716905 0.172101
C85   C     C_3   0.291255 0.999565 0.283107 0.172100
C86   C     C_3   0.208742 0.499629 0.716914 0.172113
C87   C     C_3   0.791257 0.499623 0.283089 0.172106
C88   C     C_3   0.791153 0.001252 0.799544 0.270405
C89   C     C_3   0.208846 0.001194 0.200454 0.270402
C90   C     C_3   0.291151 0.501265 0.799547 0.270409
C91   C     C_1   0.663070 0.500770 0.159422 -0.060991
C92   C     C_3   0.708848 0.501262 0.200455 0.270407
C93   C     C_3   0.774952 0.012800 0.865203 0.273769
C94   C     C_3   0.225049 0.012214 0.134724 0.273783
C95   C     C_3   0.274952 0.512889 0.865199 0.273727
C96   C     C_3   0.725048 0.512910 0.134808 0.273756
C97   C     C_3   0.724399 0.009512 0.815134 0.876028
C98   C     C_3   0.275601 0.008926 0.184817 0.876025
C99   C     C_3   0.224399 0.509601 0.815135 0.876023
C100  C     C_3   0.775601 0.509618 0.184872 0.876022
C101  C     C_3   0.696042 0.087477 0.881473 0.186114
C102  C     C_1   0.663055 0.999776 0.667546 -0.040116
C103  C     C_3   0.691013 0.168222 0.894570 -0.900823
C104  C     C_3   0.299959 0.884128 0.179581 0.038872
C105  C     C_3   0.310858 0.838673 0.123346 -0.824618
C106  C     C_3   0.303972 0.086272 0.117999 0.186077
C107  C     C_3   0.309018 0.166896 0.104403 -0.900798
C108  C     C_3   0.700038 0.884907 0.821170 0.038844
C109  C     C_3   0.689132 0.839889 0.877688 -0.824583
C110  C     C_3   0.196056 0.587657 0.881427 0.186133
C111  C     C_3   0.191042 0.668422 0.894470 -0.900803
C112  C     C_3   0.799955 0.385045 0.178678 0.038850
H1    H     H_    0.783433 0.052601 0.683971 0.191136
H2    H     H_    0.280776 0.936151 0.372622 0.208299
H3    H     H_    0.287454 0.065431 0.380778 0.179855
H4    H     H_    0.719221 0.935554 0.627798 0.208302
H5    H     H_    0.212540 0.564742 0.618755 0.179848
H6    H     H_    0.780779 0.435445 0.372118 0.208302
H7    H     H_    0.787460 0.564708 0.381269 0.179851
H8    H     H_    0.219217 0.435477 0.627862 0.208298
H9    H     H_    0.711737 0.878516 0.694681 0.162232
H10   H     H_    0.284586 0.119246 0.297365 0.222058
H11   H     H_    0.288261 0.878632 0.306111 0.162229
H12   H     H_    0.211339 0.918578 0.290421 0.193811
H13   H     H_    0.715413 0.119158 0.701873 0.222058
H14   H     H_    0.211733 0.378507 0.694796 0.162232
H15   H     H_    0.784591 0.619139 0.298269 0.222058
H16   H     H_    0.788262 0.378494 0.305168 0.162233
H17   H     H_    0.215410 0.619150 0.701770 0.222056
H18   H     H_    0.783627 0.880304 0.793711 0.175100
H19   H     H_    0.212497 0.117611 0.239496 0.182239
H20   H     H_    0.216371 0.880239 0.207067 0.175095
H21   H     H_    0.787502 0.117436 0.759751 0.182242
H22   H     H_    0.283624 0.380319 0.793825 0.175108
H23   H     H_    0.216565 0.053241 0.315692 0.191131
H24   H     H_    0.712503 0.617402 0.240397 0.182243
H25   H     H_    0.716372 0.380317 0.206135 0.175100
H26   H     H_    0.287498 0.617417 0.759645 0.182242
H27   H     H_    0.719545 0.063765 0.943051 0.157266
H28   H     H_    0.665311 0.060002 0.859268 0.180758
H29   H     H_    0.667164 0.193287 0.834373 0.269605
H30   H     H_    0.680749 0.174542 0.942083 0.215939
H31   H     H_    0.721342 0.197077 0.917271 0.256823
H32   H     H_    0.272556 0.857646 0.177912 0.150056
H33   H     H_    0.327800 0.883074 0.243461 0.165940
H34   H     H_    0.788658 0.918069 0.710111 0.193804
H35   H     H_    0.338496 0.862460 0.122550 0.260475
H36   H     H_    0.318319 0.781695 0.147455 0.208320
H37   H     H_    0.283907 0.837621 0.058080 0.255303
H38   H     H_    0.280470 0.062325 0.056565 0.157287
H39   H     H_    0.334700 0.058731 0.140392 0.180760
H40   H     H_    0.332865 0.192184 0.164447 0.269603
H41   H     H_    0.319290 0.172840 0.056863 0.215946
H42   H     H_    0.278692 0.195811 0.081508 0.256829
H43   H     H_    0.727440 0.858257 0.823014 0.150063
H44   H     H_    0.672198 0.883620 0.757295 0.165913
H45   H     H_    0.283427 0.552516 0.683923 0.191133
H46   H     H_    0.661493 0.863860 0.878323 0.260473
H47   H     H_    0.681669 0.782803 0.853944 0.208330
H48   H     H_    0.716080 0.839084 0.942963 0.255319
H49   H     H_    0.219562 0.563969 0.943017 0.157253
H50   H     H_    0.165323 0.560203 0.859261 0.180751
H51   H     H_    0.167192 0.693467 0.834262 0.269603
H52   H     H_    0.180786 0.674797 0.941991 0.215949
H53   H     H_    0.221374 0.697259 0.917137 0.256796
H54   H     H_    0.772551 0.358371 0.176804 0.150063
H55   H     H_    0.827796 0.383711 0.242550 0.165907
H56   H     H_    0.711341 0.417971 0.289782 0.193804
H57   H     H_    0.838495 0.364095 0.121493 0.260474
H58   H     H_    0.818311 0.282994 0.145771 0.208331
H59   H     H_    0.783905 0.339347 0.056825 0.255324
H60   H     H_    0.780448 0.564027 0.057015 0.157255
H61   H     H_    0.834684 0.560234 0.140780 0.180756
H62   H     H_    0.832832 0.693489 0.165836 0.269604
H63   H     H_    0.819240 0.674853 0.058101 0.215937
H64   H     H_    0.778651 0.697308 0.082955 0.256815
H65   H     H_    0.227442 0.358350 0.823153 0.150066
H66   H     H_    0.172199 0.383697 0.757412 0.165906
H67   H     H_    0.716573 0.552478 0.316096 0.191137
H68   H     H_    0.161493 0.364046 0.878452 0.260467
H69   H     H_    0.181676 0.282956 0.854152 0.208335
H70   H     H_    0.216082 0.339291 0.943120 0.255336
H71   H     H_    0.784703 0.094504 0.963489 0.237104
H72   H     H_    0.825877 0.092883 0.939064 0.232467
H73   H     H_    0.777069 0.135482 0.868204 0.251357
H74   H     H_    0.211091 0.897262 0.084843 0.219739
H75   H     H_    0.170866 0.961002 0.024864 0.243193
H76   H     H_    0.217901 0.961182 0.018673 0.256603
H77   H     H_    0.215305 0.093342 0.035920 0.237104
H78   H     H_    0.288655 0.418001 0.710189 0.193800
H79   H     H_    0.174126 0.092143 0.060341 0.232491
H80   H     H_    0.222933 0.134886 0.130935 0.251351
H81   H     H_    0.788907 0.898084 0.915824 0.219752
H82   H     H_    0.829135 0.961951 0.975389 0.243208
H83   H     H_    0.782102 0.962478 0.981584 0.256577
H84   H     H_    0.284710 0.594675 0.963415 0.237113
H85   H     H_    0.325878 0.592995 0.938977 0.232466
H86   H     H_    0.277068 0.635572 0.868086 0.251356
H87   H     H_    0.711087 0.398241 0.084038 0.219761
H88   H     H_    0.670862 0.462137 0.024557 0.243213
H89   H     H_    0.712545 0.064822 0.618809 0.179853
H90   H     H_    0.717895 0.462724 0.018360 0.256567
H91   H     H_    0.715297 0.594724 0.036626 0.237105
H92   H     H_    0.674126 0.593027 0.061057 0.232462
H93   H     H_    0.722937 0.635593 0.131967 0.251358
H94   H     H_    0.288909 0.398208 0.915928 0.219775
H95   H     H_    0.329137 0.462094 0.975430 0.243216
H96   H     H_    0.282105 0.462670 0.981630 0.256558
O1    O     O_R   0.500010 0.060620 0.392670 -0.619600
O2    O     O_R   0.438570 0.939380 0.438570 -0.623191
O3    O     O_R   0.438570 0.060620 0.438570 -0.613967
O4    O     O_R   0.561430 0.939380 0.561430 -0.623197
O5    O     O_R   0.061430 0.560620 0.561430 -0.613946
O6    O     O_R   0.938570 0.439380 0.438570 -0.623200
O7    O     O_R   0.938570 0.560620 0.438570 -0.613943
O8    O     O_R   0.061430 0.439380 0.561430 -0.623201
O9    O     O_R   1.000000 0.107140 0.939380 -0.619917
O10   O     O_R   1.000000 0.892860 0.060620 -0.619588
O11   O     O_R   1.000000 0.107140 0.060620 -0.619919
O12   O     O_R   0.499990 0.939380 0.607330 -0.620407
O13   O     O_R   1.000000 0.892860 0.939380 -0.619590
O14   O     O_R   0.500000 0.607140 0.939380 -0.619919
O15   O     O_R   0.500000 0.392860 0.060620 -0.619584
O16   O     O_R   0.500000 0.607140 0.060620 -0.619917
O17   O     O_R   0.500000 0.392860 0.939380 -0.619591
O18   O     O_R   0.938580 1.000000 0.877970 -0.617881
O19   O     O_R   0.061420 1.000000 0.122030 -0.617881
O20   O     O_R   0.438580 0.500000 0.877970 -0.617885
O21   O     O_R   0.561420 0.500000 0.122030 -0.617881
O22   O     O_R   0.938570 0.000000 0.999140 -0.620370
O23   O     O_R   0.499990 0.060620 0.607330 -0.619611
O24   O     O_R   0.061430 0.000000 0.000860 -0.620375
O25   O     O_R   0.438570 0.500000 0.999140 -0.620363
O26   O     O_R   0.561430 0.500000 0.000860 -0.620367
O27   O     O_R   0.534690 0.892630 0.034650 -0.621781
O28   O     O_R   0.465310 0.107370 0.965350 -0.622212
O29   O     O_R   0.465310 0.892630 0.965350 -0.621785
O30   O     O_R   0.534690 0.107370 0.034650 -0.622210
O31   O     O_R   0.034690 0.392630 0.034650 -0.621783
O32   O     O_R   0.965310 0.607370 0.965350 -0.622210
O33   O     O_R   0.965310 0.392630 0.965350 -0.621783
O34   O     O_R   0.500010 0.939380 0.392670 -0.620401
O35   O     O_R   0.034690 0.607370 0.034650 -0.622211
O36   O     O_R   0.534680 0.000000 0.141990 -0.621686
O37   O     O_R   0.465320 0.000000 0.858010 -0.621690
O38   O     O_R   0.034680 0.500000 0.141990 -0.621688
O39   O     O_R   0.965320 0.500000 0.858010 -0.621686
O40   O     O_R   0.465320 1.000000 0.072630 -0.622713
O41   O     O_R   0.534680 1.000000 0.927370 -0.622706
O42   O     O_R   0.965320 0.500000 0.072630 -0.622705
O43   O     O_R   0.034680 0.500000 0.927370 -0.622706
O44   O     O_3   0.708521 0.080324 0.819785 -0.660986
O45   O     O_R   0.000010 0.560620 0.392670 -0.619609
O46   O     O_3   0.290935 0.955969 0.147598 -0.668785
O47   O     O_3   0.291480 0.079604 0.179712 -0.661005
O48   O     O_3   0.709064 0.956896 0.852692 -0.668779
O49   O     O_3   0.208521 0.580431 0.819724 -0.660975
O50   O     O_3   0.790934 0.457062 0.147248 -0.668772
O51   O     O_3   0.791482 0.580453 0.180308 -0.660979
O52   O     O_3   0.209063 0.457030 0.852741 -0.668767
O53   O     O_R   0.999990 0.439380 0.607330 -0.620405
O54   O     O_R   0.999990 0.560620 0.607330 -0.619609
O55   O     O_R   0.000010 0.439380 0.392670 -0.620405
O56   O     O_R   0.561430 0.060620 0.561430 -0.613946
Zn1   Zn    Zn3+2 0.500000 0.080950 0.500000 0.968086
Zn2   Zn    Zn3+2 0.453690 1.000000 0.953700 0.957770
Zn3   Zn    Zn3+2 0.046310 0.500000 0.046300 0.957795
Zn4   Zn    Zn3+2 0.953690 0.500000 0.953700 0.957803
Zn5   Zn    Zn3+2 0.500000 0.919050 0.500000 0.957770
Zn6   Zn    Zn3+2 0.000000 0.580950 0.500000 0.968096
Zn7   Zn    Zn3+2 1.000000 0.419050 0.500000 0.957769
Zn8   Zn    Zn3+2 0.000010 1.000000 0.919080 0.960867
Zn9   Zn    Zn3+2 0.999990 0.000000 0.080920 0.960868
Zn10  Zn    Zn3+2 0.500010 0.500000 0.919080 0.960865
Zn11  Zn    Zn3+2 0.499990 0.500000 0.080920 0.960878
Zn12  Zn    Zn3+2 0.546310 1.000000 0.046300 0.957799

loop_
_geom_bond_atom_site_label_1
_geom_bond_atom_site_label_2
_ccdc_geom_bond_type
C37   O24   A    
C77   C92   S    
C5    H63   S    
C106  H38   S    
O43   Zn3   S    
C9    H75   S    
C35   O18   A    
C84   C102  S    
O17   Zn10  S    
O32   Zn4   S    
O37   Zn2   S    
C67   C77   S    
C11   H82   S    
C92   C96   S    
C76   H67   S    
C38   O25   A    
C32   O13   A    
C101  H27   S    
C75   H22   S    
C90   C95   S    
C78   C90   S    
C77   H56   S    
O1    Zn1   S    
C63   C85   S    
C43   C61   S    
C24   C36   S    
C49   C60   T    
C84   C97   S    
C99   O52   S    
C30   C48   S    
C77   H25   S    
C39   O21   A    
C48   O39   A    
C16   H94   S    
O2    Zn5   S    
C68   H7    S    
C72   C89   S    
C95   C99   S    
O40   Zn2   S    
C106  C107  S    
C94   C98   S    
O25   Zn11  S    
C74   H21   S    
C103  H29   S    
O11   Zn9   S    
C104  O46   S    
C108  C109  S    
C2    C85   S    
C6    O52   S    
C18   C102  T    
C89   C94   S    
C99   O49   S    
C110  C111  S    
C46   O42   A    
C56   O7    A    
C85   C98   S    
C75   C90   S    
O18   Zn8   S    
C24   C29   T    
C63   H2    S    
C40   C57   S    
C27   C44   S    
C110  H49   S    
C25   O23   A    
O20   Zn10  S    
O56   Zn1   S    
C66   H5    S    
C13   C86   S    
O6    Zn7   S    
C5    H62   S    
C12   H85   S    
C104  H32   S    
C12   C95   S    
C111  H53   S    
C65   H9    S    
C3    C112  S    
O8    Zn7   S    
C56   O6    A    
C18   C53   S    
C66   H17   S    
C45   O41   A    
C33   O14   A    
C70   H14   S    
O55   Zn7   S    
C73   H20   S    
C1    C22   S    
C101  C103  S    
C64   H3    S    
C108  O48   S    
O28   Zn2   S    
O27   Zn12  S    
C12   H84   S    
C37   C81   S    
C31   C49   S    
C20   C55   S    
C69   C89   S    
C109  H46   S    
C78   H26   S    
C14   C96   S    
C104  C105  S    
C101  H28   S    
C15   H92   S    
C97   O44   S    
C31   O11   A    
C41   O30   A    
C47   O54   A    
C110  H50   S    
C66   C78   S    
C100  O50   S    
C28   C45   S    
O41   Zn12  S    
C10   H77   S    
C7    H69   S    
O3    Zn1   S    
C1    O1    A    
O34   Zn5   S    
C34   O17   A    
C111  H51   S    
C41   C59   S    
C110  O49   S    
C80   C82   T    
C9    H74   S    
C43   O32   A    
C70   H8    S    
C55   O8    A    
C3    H57   S    
C72   H23   S    
C63   C73   S    
C62   H13   S    
C43   O35   A    
C11   C93   S    
C65   C71   S    
C112  H55   S    
C14   H88   S    
C10   H80   S    
C103  H31   S    
O29   Zn2   S    
C83   C91   T    
C105  H35   S    
O14   Zn10  S    
C17   C21   T    
C36   O55   A    
C62   H89   S    
C55   O5    A    
C40   O29   A    
O12   Zn5   S    
C52   C59   T    
O54   Zn6   S    
C14   H90   S    
C78   H45   S    
C63   H11   S    
C108  H44   S    
C54   O2    A    
O45   Zn6   S    
C104  H33   S    
C73   H12   S    
C112  H54   S    
C75   H78   S    
O24   Zn8   S    
O33   Zn4   S    
O31   Zn3   S    
C15   H93   S    
C23   C28   T    
C86   C99   S    
C53   O56   A    
C68   H15   S    
C46   O38   A    
C107  H41   S    
O13   Zn8   S    
C26   C47   S    
C76   C92   S    
C97   O48   S    
C51   C57   T    
C107  H40   S    
C58   C79   T    
C19   C54   S    
C54   O3    A    
C26   C30   T    
C4    O51   S    
C4    H61   S    
O23   Zn1   S    
C6    H65   S    
C74   H1    S    
C5    H64   S    
C101  O44   S    
C68   C76   S    
O35   Zn3   S    
O39   Zn4   S    
C45   O37   A    
O38   Zn3   S    
C109  H47   S    
C103  H30   S    
C93   C97   S    
C64   C85   S    
C15   C96   S    
C36   O45   A    
C112  O50   S    
C34   O15   A    
C44   O36   A    
C72   H19   S    
C38   O20   A    
C87   C100  S    
C98   O47   S    
C68   C87   S    
O16   Zn11  S    
C62   C84   S    
C88   C93   S    
O21   Zn11  S    
C16   C95   S    
C12   H86   S    
C106  H39   S    
C4    H60   S    
C7    H70   S    
C2    C19   T    
C17   C87   S    
C34   C52   S    
C106  O47   S    
C13   C20   T    
C111  H52   S    
C11   H81   S    
C11   H83   S    
C4    C5    S    
C16   H96   S    
C58   C88   S    
C66   C86   S    
C21   C56   S    
C15   H91   S    
C42   O31   A    
C3    H58   S    
C6    C7    S    
C42   C60   S    
C41   O28   A    
C8    H73   S    
C33   C51   S    
O9    Zn8   S    
C105  H37   S    
C14   H87   S    
C42   O33   A    
C67   C87   S    
C10   H79   S    
O26   Zn10  S    
C8    H71   S    
C29   C46   S    
C22   C27   T    
C35   O22   A    
O10   Zn9   S    
C48   O43   A    
O19   Zn9   S    
O42   Zn4   S    
C73   C89   S    
O22   Zn9   S    
C16   H95   S    
C67   H16   S    
C65   C84   S    
O5    Zn6   S    
C47   O53   A    
C105  H36   S    
C39   O26   A    
C3    H59   S    
C108  H43   S    
C31   O9    A    
O4    Zn5   S    
C53   O4    A    
C64   H10   S    
C96   C100  S    
C35   C79   S    
C65   H4    S    
C7    H68   S    
C32   C50   S    
C23   C25   S    
O7    Zn6   S    
C80   C90   S    
C67   H6    S    
C38   C82   S    
O53   Zn7   S    
C107  H42   S    
C69   C81   T    
C1    O34   A    
C44   O40   A    
C39   C83   S    
C71   C88   S    
C76   H24   S    
C33   O16   A    
C100  O51   S    
C40   O27   A    
C37   O19   A    
C71   H34   S    
O15   Zn11  S    
C8    C93   S    
C70   C75   S    
O36   Zn12  S    
C50   C61   T    
C10   C94   S    
C62   C74   S    
C25   O12   A    
O30   Zn12  S    
C98   O46   S    
C74   C88   S    
C8    H72   S    
C9    H76   S    
C9    C94   S    
C109  H48   S    
C32   O10   A    
C91   C92   S    
C6    H66   S    
C64   C72   S    
C71   H18   S    
C70   C86   S    
