data_mof_unit_51046.cif
_audit_creation_date              2012-12-10T21:07:38-0500
_audit_creation_method            fapswitch 2.2
_symmetry_space_group_name_H-M    P1
_symmetry_Int_Tables_number       1
_space_group_crystal_system       triclinic
_cell_length_a                    8.56038
_cell_length_b                    17.531581
_cell_length_c                    16.772549
_cell_angle_alpha                 89.64857
_cell_angle_beta                  98.874866
_cell_angle_gamma                 89.822209
_cell_volume                      2486.9695723

loop_
_atom_site_label
_atom_site_type_symbol
_atom_type_description
_atom_site_fract_x
_atom_site_fract_y
_atom_site_fract_z
_atom_type_partial_charge
C1    C     C_R   0.501545 0.353408 0.500434 0.943420
C2    C     C_R   0.360981 0.492410 0.241214 -0.078505
C3    C     C_R   0.619973 0.536659 0.841240 0.267147
C4    C     C_R   0.357065 0.492460 0.156782 0.286185
C5    C     C_R   0.498231 0.500785 0.875239 -0.068160
C6    C     C_R   0.498192 0.500832 0.124052 -0.108899
C7    C     C_1   0.497965 0.500560 0.963119 0.160141
C8    C     C_1   0.498059 0.500561 0.036134 0.135820
C9    C     C_R   0.200635 0.499723 0.478967 0.956501
C10   C     C_R   0.799436 0.499406 0.521070 0.961016
C11   C     C_2   0.035710 0.500777 0.467612 -0.398468
C12   C     C_R   0.496175 0.646689 0.499432 0.939646
C13   C     C_2   0.964470 0.497123 0.532528 -0.404766
C14   C     C_R   0.366336 0.845137 0.543011 0.368076
C15   C     C_R   0.583772 0.150047 0.452398 0.362309
C16   C     C_R   0.384129 0.765932 0.547647 0.396002
C17   C     C_R   0.593300 0.229505 0.453301 0.397078
C18   C     C_R   0.476118 0.728826 0.496496 -0.291449
C19   C     C_R   0.503324 0.271005 0.501865 -0.285181
C20   C     C_R   0.543412 0.770132 0.438953 -0.378846
C21   C     C_R   0.411677 0.233591 0.552015 -0.395331
C22   C     C_R   0.526219 0.848817 0.433965 0.453030
C23   C     C_1   0.450570 0.966422 0.491504 0.061550
C24   C     C_R   0.403491 0.154309 0.552387 0.460469
C25   C     C_R   0.442877 0.886103 0.487937 -0.204067
C26   C     C_R   0.484304 0.113465 0.499962 -0.182422
C27   C     C_3   0.143809 0.914661 0.556809 0.088023
C28   C     C_3   0.016511 0.910810 0.610821 -0.778713
C29   C     C_3   0.797172 0.072868 0.443430 0.111572
C30   C     C_3   0.925426 0.067945 0.390147 -0.757947
C31   C     C_3   0.165553 0.701389 0.571042 0.138416
C32   C     C_3   0.085374 0.665092 0.636625 -0.758744
C33   C     C_3   0.831165 0.285077 0.447025 0.107351
C34   C     C_1   0.464039 0.033691 0.494970 0.081495
C35   C     C_3   0.935257 0.318375 0.389910 -0.724400
C36   C     C_3   0.512741 0.889279 0.304445 0.100354
C37   C     C_3   0.589174 0.940875 0.248442 -0.779058
C38   C     C_3   0.358827 0.127671 0.680662 0.103342
C39   C     C_3   0.279813 0.069926 0.729229 -0.793537
C40   C     C_3   0.105721 0.461277 0.824200 0.162879
C41   C     C_3   0.998410 0.400940 0.779895 -0.834561
C42   C     C_3   0.816995 0.592487 0.135987 0.206364
C43   C     C_3   0.921336 0.626324 0.209128 -0.897190
C44   C     C_R   0.374912 0.465985 0.822553 0.380618
C45   C     C_R   0.640316 0.509576 0.178255 0.391250
C46   C     C_R   0.381059 0.464863 0.738533 -0.143279
C47   C     C_R   0.638080 0.507511 0.262270 -0.098773
C48   C     C_R   0.617627 0.535938 0.757029 -0.062807
Cl1   Cl    Cl    0.776164 0.583322 0.902098 -0.659714
Cl2   Cl    Cl    0.174013 0.481504 0.093925 -0.567553
H1    H     H_    0.973631 0.505221 0.406168 0.173465
H2    H     H_    0.165177 0.975632 0.544241 0.192540
H3    H     H_    0.056509 0.940486 0.668561 0.259423
H4    H     H_    0.906597 0.938660 0.580175 0.197338
H5    H     H_    0.990169 0.850497 0.623989 0.255999
H6    H     H_    0.765550 0.013985 0.459421 0.184575
H7    H     H_    0.847819 0.102827 0.500073 0.101264
H8    H     H_    0.959684 0.126133 0.373078 0.258544
H9    H     H_    0.031267 0.038554 0.423074 0.190638
H10   H     H_    0.881872 0.035459 0.334587 0.257656
H11   H     H_    0.172817 0.658380 0.523292 0.118220
H12   H     H_    0.026812 0.492526 0.594028 0.174885
H13   H     H_    0.090535 0.749834 0.544277 0.122720
H14   H     H_    0.077322 0.706934 0.685284 0.263323
H15   H     H_    0.964091 0.646822 0.610840 0.195087
H16   H     H_    0.154290 0.614635 0.662680 0.251902
H17   H     H_    0.892422 0.234020 0.476926 0.127654
H18   H     H_    0.818047 0.328435 0.493719 0.115212
H19   H     H_    0.878703 0.370241 0.359734 0.258890
H20   H     H_    0.052329 0.333805 0.424177 0.192675
H21   H     H_    0.952893 0.275828 0.343304 0.258251
H22   H     H_    0.390657 0.910979 0.306142 0.139146
H23   H     H_    0.613417 0.741623 0.399343 0.192624
H24   H     H_    0.506509 0.830534 0.279247 0.140019
H25   H     H_    0.711555 0.921111 0.245526 0.246392
H26   H     H_    0.519570 0.939639 0.186855 0.209236
H27   H     H_    0.592772 0.000403 0.270881 0.289272
H28   H     H_    0.326394 0.185795 0.698860 0.149577
H29   H     H_    0.489395 0.119499 0.696031 0.140493
H30   H     H_    0.313482 0.011197 0.713922 0.284110
H31   H     H_    0.318368 0.079243 0.794724 0.215677
H32   H     H_    0.149272 0.076341 0.715598 0.247379
H33   H     H_    0.108907 0.511983 0.783801 0.107790
H34   H     H_    0.341415 0.266175 0.588335 0.183249
H35   H     H_    0.051735 0.480921 0.876594 0.240551
H36   H     H_    0.986037 0.352121 0.820929 0.277154
H37   H     H_    0.879614 0.425719 0.758860 0.224284
H38   H     H_    0.048190 0.380052 0.726721 0.228403
H39   H     H_    0.709485 0.628744 0.118524 0.108421
H40   H     H_    0.883815 0.594798 0.084343 0.246568
H41   H     H_    0.025659 0.589012 0.228166 0.280589
H42   H     H_    0.963035 0.683584 0.193392 0.227017
H43   H     H_    0.853664 0.632633 0.260055 0.227811
H44   H     H_    0.290105 0.435846 0.698155 0.152446
H45   H     H_    0.748120 0.512269 0.302902 0.157571
H46   H     H_    0.710858 0.563952 0.731280 0.170539
H47   H     H_    0.251872 0.485863 0.265441 0.177938
H48   H     H_    0.096797 0.886031 0.498751 0.104568
N1    N     N_R   0.500040 0.500030 0.707230 -0.126574
N2    N     N_R   0.499960 0.499970 0.292770 -0.131159
O1    O     O_R   0.500000 0.389130 0.566570 -0.630034
O2    O     O_3   0.662811 0.109774 0.399913 -0.569822
O3    O     O_3   0.318061 0.725848 0.605362 -0.549606
O4    O     O_3   0.682710 0.265977 0.402560 -0.549757
O5    O     O_3   0.604521 0.890096 0.381893 -0.606361
O6    O     O_3   0.305241 0.116300 0.597640 -0.614879
O7    O     O_3   0.255339 0.428772 0.854136 -0.593873
O8    O     O_3   0.783403 0.514975 0.150048 -0.573380
O9    O     O_R   0.500000 0.610870 0.433430 -0.629244
O10   O     O_R   0.499990 0.389100 0.433480 -0.560029
O11   O     O_R   0.500010 0.610900 0.566520 -0.565076
O12   O     O_R   0.271750 0.500010 0.550980 -0.620660
O13   O     O_R   0.728250 0.499990 0.449020 -0.623058
O14   O     O_R   0.271740 0.499980 0.417890 -0.637288
O15   O     O_R   0.728260 0.500020 0.582110 -0.638064
O16   O     O_3   0.285000 0.881275 0.597587 -0.567996
Zn1   Zn    Zn3+2 0.500010 0.500020 0.588860 0.945902
Zn2   Zn    Zn3+2 0.499990 0.499980 0.411140 0.954187

loop_
_geom_bond_atom_site_label_1
_geom_bond_atom_site_label_2
_ccdc_geom_bond_type
C46   N1    A    
C27   H48   S    
C6    C45   A    
C33   O4    S    
C31   H11   S    
O10   Zn2   S    
C3    Cl1   S    
C7    C8    T    
C41   H36   S    
C9    O14   A    
C36   C37   S    
C19   C21   A    
C17   O4    S    
C24   C26   A    
C38   C39   S    
C38   H29   S    
C3    C48   A    
C48   N1    A    
C33   C35   S    
C26   C34   S    
C13   H12   S    
C2    H47   S    
O15   Zn1   S    
C22   C25   A    
C30   H10   S    
C29   O2    S    
C45   O8    S    
C27   O16   S    
C9    O12   A    
C37   H25   S    
C2    N2    A    
C14   C25   A    
C40   H33   S    
C12   O9    A    
C28   H5    S    
C44   C46   A    
O9    Zn2   S    
C45   C47   A    
C41   H37   S    
C1    C19   S    
C31   H13   S    
C32   H14   S    
C4    C6    A    
C5    C7    S    
C28   H4    S    
C17   C19   A    
C15   C26   A    
C6    C8    S    
C38   H28   S    
C37   H27   S    
C43   H41   S    
C47   N2    A    
C4    Cl2   S    
C42   H40   S    
C31   O3    S    
C40   H35   S    
C38   O6    S    
C2    C4    A    
C29   C30   S    
C1    O10   A    
N1    Zn1   S    
C16   O3    S    
C31   C32   S    
C46   H44   S    
C21   H34   S    
C23   C34   T    
C30   H9    S    
C9    C11   S    
C39   H31   S    
O14   Zn2   S    
C10   O13   A    
C36   H24   S    
C40   O7    S    
C40   C41   S    
C37   H26   S    
C20   C22   A    
C35   H20   S    
C14   C16   A    
N2    Zn2   S    
C42   C43   S    
C1    O1    A    
C27   H2    S    
C33   H17   S    
C32   H16   S    
C44   O7    S    
C15   C17   A    
C41   H38   S    
C48   H46   S    
C36   O5    S    
C5    C44   A    
C39   H32   S    
C29   H7    S    
C3    C5    A    
C10   C13   S    
C28   H3    S    
C29   H6    S    
C22   O5    S    
C43   H42   S    
O11   Zn1   S    
C42   H39   S    
O1    Zn1   S    
C39   H30   S    
C11   C13   D    
O12   Zn1   S    
C14   O16   S    
C30   H8    S    
C43   H43   S    
C20   H23   S    
C18   C20   A    
C23   C25   S    
C15   O2    S    
C11   H1    S    
C35   H21   S    
O13   Zn2   S    
C24   O6    S    
C35   H19   S    
C16   C18   A    
C21   C24   A    
C12   C18   S    
C27   C28   S    
C47   H45   S    
C42   O8    S    
C12   O11   A    
C10   O15   A    
C36   H22   S    
C33   H18   S    
C32   H15   S    
