data_mof_unit_44295.cif
_audit_creation_date              2012-12-10T21:00:52-0500
_audit_creation_method            fapswitch 2.2
_symmetry_space_group_name_H-M    P1
_symmetry_Int_Tables_number       1
_space_group_crystal_system       triclinic
_cell_length_a                    18.156639
_cell_length_b                    18.199976
_cell_length_c                    18.314294
_cell_angle_alpha                 119.825148
_cell_angle_beta                  90.085861
_cell_angle_gamma                 120.043338
_cell_volume                      4284.66491857

loop_
_atom_site_label
_atom_site_type_symbol
_atom_type_description
_atom_site_fract_x
_atom_site_fract_y
_atom_site_fract_z
_atom_type_partial_charge
C1    C     C_R   0.110214 0.220044 0.609895 0.799709
C2    C     C_3   0.450928 0.897114 0.946862 0.001823
C3    C     C_1   0.859427 0.239002 0.956667 0.140644
C4    C     C_1   0.886962 0.430543 0.768710 0.136011
C5    C     C_1   0.113035 0.569454 0.231289 0.136012
C6    C     C_1   0.874530 0.546457 0.983367 0.202923
C7    C     C_1   0.125469 0.453541 0.016632 0.202928
C8    C     C_1   0.852375 0.296532 0.372562 0.170378
C9    C     C_1   0.147625 0.703468 0.627438 0.170379
C10   C     C_1   0.391622 0.061103 0.078681 0.169659
C11   C     C_1   0.608377 0.938897 0.921317 0.169657
C12   C     C_3   0.448738 0.029666 0.036802 0.074325
C13   C     C_3   0.551262 0.970334 0.963196 0.074323
C14   C     C_3   0.412892 0.431001 0.447961 -0.123484
C15   C     C_3   0.587108 0.568999 0.552039 -0.123482
C16   C     C_3   0.481862 0.404791 0.447799 -0.172690
C17   C     C_3   0.518138 0.595209 0.552201 -0.172690
C18   C     C_3   0.550819 0.500174 0.449492 0.046872
C19   C     C_3   0.449181 0.499826 0.550508 0.046873
C20   C     C_3   0.482780 0.526457 0.448871 -0.178361
C21   C     C_R   0.889786 0.779956 0.390105 0.799712
C22   C     C_3   0.517220 0.473543 0.551129 -0.178361
C23   C     C_R   0.121437 0.133434 0.823537 -0.173832
C24   C     C_R   0.878582 0.866587 0.176467 -0.173831
C25   C     C_R   0.393011 0.781009 0.887983 0.779102
C26   C     C_R   0.606989 0.218991 0.112016 0.779103
C27   C     C_R   0.104387 0.095529 0.733404 -0.175435
C28   C     C_R   0.895630 0.904490 0.266598 -0.175453
C29   C     C_R   0.041802 0.097294 0.690430 0.098544
C30   C     C_R   0.958202 0.902706 0.309569 0.098539
C31   C     C_R   0.996269 0.138230 0.739398 0.052404
C32   C     C_3   0.930106 0.403321 0.439761 0.056128
C33   C     C_R   0.003725 0.861755 0.260598 0.052419
C34   C     C_R   0.014225 0.176685 0.830042 -0.184432
C35   C     C_R   0.985770 0.823300 0.169955 -0.184424
C36   C     C_R   0.076021 0.173402 0.871897 0.070724
C37   C     C_R   0.923987 0.826601 0.128103 0.070715
C38   C     C_R   0.969470 0.943506 0.536909 -0.243854
C39   C     C_R   0.030533 0.056494 0.463091 -0.243858
C40   C     C_R   0.947013 0.892253 0.444438 -0.049545
C41   C     C_R   0.052989 0.107747 0.555562 -0.049545
C42   C     C_R   0.978317 0.949491 0.406763 0.001674
C43   C     C_3   0.069894 0.596679 0.560239 0.056128
C44   C     C_R   0.021686 0.050509 0.593237 0.001670
C45   C     C_R   0.696990 0.841089 0.024594 0.050409
C46   C     C_R   0.303015 0.158909 0.975403 0.050409
C47   C     C_R   0.655063 0.740581 0.002749 -0.197755
C48   C     C_R   0.344942 0.259419 0.997252 -0.197755
C49   C     C_R   0.112202 0.501977 0.890864 0.810972
C50   C     C_R   0.887798 0.498023 0.109136 0.810974
C51   C     C_R   0.575504 0.694836 0.021355 0.135743
C52   C     C_R   0.424498 0.305164 0.978643 0.135744
C53   C     C_R   0.538091 0.750274 0.061438 -0.130299
C54   C     C_3   0.430659 0.964317 0.935387 -0.222285
C55   C     C_R   0.461910 0.249724 0.938554 -0.130311
C56   C     C_R   0.580618 0.850925 0.084048 -0.147797
C57   C     C_R   0.419383 0.149072 0.915941 -0.147802
C58   C     C_R   0.660274 0.896579 0.066350 -0.122474
C59   C     C_R   0.339729 0.103419 0.933641 -0.122476
C60   C     C_R   0.586678 0.587688 0.057688 -0.242437
C61   C     C_R   0.413322 0.412312 0.942312 -0.242436
C62   C     C_R   0.550971 0.496130 0.051878 -0.041360
C63   C     C_R   0.449030 0.503870 0.948122 -0.041359
C64   C     C_R   0.463663 0.406906 0.993380 -0.003133
C65   C     C_3   0.569341 0.035683 0.064612 -0.222288
C66   C     C_R   0.536337 0.593094 0.006620 -0.003134
C67   C     C_R   0.086112 0.756088 0.917683 -0.191081
C68   C     C_R   0.913886 0.243908 0.082313 -0.191087
C69   C     C_R   0.078481 0.703197 0.955573 0.031522
C70   C     C_R   0.921517 0.296800 0.044424 0.031521
C71   C     C_R   0.011967 0.594989 0.907544 0.062813
C72   C     C_R   0.988031 0.405008 0.092454 0.062814
C73   C     C_R   0.392380 0.499998 0.607681 0.777656
C74   C     C_R   0.607620 0.500002 0.392319 0.777655
C75   C     C_R   0.954345 0.541260 0.820900 0.023708
C76   C     C_3   0.532466 0.038453 0.951891 -0.235300
C77   C     C_R   0.045652 0.458737 0.179098 0.023708
C78   C     C_R   0.962413 0.595573 0.784225 -0.200889
C79   C     C_R   0.037584 0.404423 0.215773 -0.200887
C80   C     C_R   0.027969 0.702684 0.832503 0.076588
C81   C     C_R   0.972028 0.297312 0.167494 0.076588
C82   C     C_R   0.941776 0.528961 0.996557 -0.065679
C83   C     C_R   0.058223 0.471037 0.003442 -0.065676
C84   C     C_R   0.942144 0.494379 0.050354 -0.104868
C85   C     C_R   0.057855 0.505619 0.949645 -0.104868
C86   C     C_R   0.997467 0.460350 0.050263 -0.041512
C87   C     C_3   0.467534 0.961547 0.048108 -0.235305
C88   C     C_R   0.002532 0.539648 0.949736 -0.041512
C89   C     C_R   0.393782 0.501962 0.890615 0.797342
C90   C     C_R   0.606218 0.498038 0.109385 0.797346
C91   C     C_R   0.109143 0.500166 0.607719 0.796254
C92   C     C_R   0.890857 0.499834 0.392280 0.796253
C93   C     C_3   0.029417 0.443306 0.448704 -0.187477
C94   C     C_3   0.970583 0.556694 0.551296 -0.187476
C95   C     C_3   0.048058 0.541512 0.458480 -0.244717
C96   C     C_3   0.951942 0.458488 0.541520 -0.244718
C97   C     C_3   0.948443 0.499909 0.449284 -0.004038
C98   C     C_3   0.549072 0.102886 0.053136 0.001825
C99   C     C_3   0.051557 0.500091 0.550716 -0.004038
C100  C     C_1   0.091812 0.209646 0.964161 0.167922
C101  C     C_1   0.908196 0.790355 0.035838 0.167923
C102  C     C_1   0.931038 0.141139 0.697903 0.155930
C103  C     C_1   0.068943 0.858827 0.302090 0.155933
C104  C     C_1   0.778652 0.888282 0.005862 0.153859
C105  C     C_1   0.221354 0.111714 0.994135 0.153868
C106  C     C_1   0.035321 0.758422 0.795082 0.160370
C107  C     C_1   0.964676 0.241574 0.204915 0.160369
C108  C     C_1   0.140572 0.760996 0.043330 0.140646
H1    H     H_    0.087009 0.576925 0.424926 0.146818
H2    H     H_    0.946120 0.603407 0.592576 0.164419
H3    H     H_    0.552572 0.894131 0.116646 0.135612
H4    H     H_    0.447428 0.105865 0.883339 0.135614
H5    H     H_    0.653252 0.656719 0.104462 0.171188
H6    H     H_    0.346747 0.343281 0.895538 0.171186
H7    H     H_    0.917351 0.554597 0.718270 0.131325
H8    H     H_    0.082644 0.445398 0.281728 0.131325
H9    H     H_    0.467944 0.326721 0.403960 0.145541
H10   H     H_    0.532056 0.673279 0.596040 0.145541
H11   H     H_    0.169368 0.130533 0.855118 0.145284
H12   H     H_    0.912991 0.423075 0.575074 0.146817
H13   H     H_    0.830662 0.869502 0.144888 0.145291
H14   H     H_    0.979646 0.208407 0.867810 0.142671
H15   H     H_    0.020340 0.791565 0.132185 0.142668
H16   H     H_    0.945606 0.900215 0.566243 0.181064
H17   H     H_    0.054398 0.099786 0.433757 0.181065
H18   H     H_    0.693621 0.975194 0.085389 0.132404
H19   H     H_    0.306382 0.024802 0.914599 0.132404
H20   H     H_    0.137185 0.839064 0.954715 0.148839
H21   H     H_    0.862813 0.160932 0.045281 0.148838
H22   H     H_    0.560138 0.070642 0.912777 0.142210
H23   H     H_    0.139407 0.063762 0.696667 0.149204
H24   H     H_    0.439862 0.929358 0.087221 0.142210
H25   H     H_    0.373298 0.933090 0.881409 0.149774
H26   H     H_    0.626702 0.066908 0.118589 0.149775
H27   H     H_    0.340533 0.374291 0.405956 0.156864
H28   H     H_    0.659467 0.625709 0.594043 0.156864
H29   H     H_    0.469617 0.548089 0.405926 0.142039
H30   H     H_    0.530383 0.451911 0.594074 0.142038
H31   H     H_    0.860619 0.936270 0.303338 0.149211
H32   H     H_    0.684751 0.698503 0.972538 0.146127
H33   H     H_    0.315256 0.301498 0.027469 0.146126
H34   H     H_    0.477476 0.716580 0.077264 0.115279
H35   H     H_    0.522523 0.283419 0.922725 0.115285
H36   H     H_    0.053880 0.396592 0.407423 0.164418
N1    N     N_1   0.104469 0.238807 0.038326 -0.183444
N2    N     N_1   0.809662 0.192782 0.886386 -0.196776
N3    N     N_1   0.833019 0.341757 0.726922 -0.184592
N4    N     N_1   0.166978 0.658240 0.273078 -0.184589
N5    N     N_1   0.820405 0.559341 0.972300 -0.190369
N6    N     N_1   0.179594 0.440657 0.027699 -0.190369
N7    N     N_1   0.791066 0.212360 0.319462 -0.215597
N8    N     N_1   0.208934 0.787640 0.680537 -0.215599
N9    N     N_1   0.346604 0.085848 0.111906 -0.193922
N10   N     N_1   0.653395 0.914152 0.888091 -0.193923
N11   N     N_1   0.895541 0.761194 0.961673 -0.183443
N12   N     N_1   0.878842 0.143630 0.664682 -0.187842
N13   N     N_1   0.121127 0.856322 0.335308 -0.187850
N14   N     N_1   0.844298 0.926451 0.990913 -0.168648
N15   N     N_1   0.155708 0.073542 0.009083 -0.168648
N16   N     N_1   0.041328 0.803524 0.765293 -0.199068
N17   N     N_1   0.958667 0.196470 0.234703 -0.199071
N18   N     N_1   0.190337 0.807216 0.113610 -0.196778
O1    O     O_3   0.251620 0.500000 0.748430 -0.489519
O2    O     O_R   0.570330 0.268390 0.136490 -0.630645
O3    O     O_R   0.134680 0.268390 0.572240 -0.645949
O4    O     O_R   0.865320 0.731610 0.427760 -0.645948
O5    O     O_R   0.306670 0.731630 0.863510 -0.637264
O6    O     O_R   0.693330 0.268370 0.136490 -0.637264
O7    O     O_R   0.135450 0.439270 0.865360 -0.635713
O8    O     O_R   0.864550 0.560730 0.134640 -0.635715
O9    O     O_R   0.429670 0.560710 0.692610 -0.634845
O10   O     O_R   0.570330 0.439290 0.307390 -0.634846
O11   O     O_R   0.308540 0.439240 0.865360 -0.643444
O12   O     O_3   0.748380 0.500000 0.251570 -0.489519
O13   O     O_R   0.691460 0.560760 0.134640 -0.643444
O14   O     O_R   0.133580 0.439310 0.571150 -0.642057
O15   O     O_R   0.866420 0.560690 0.428850 -0.642057
O16   O     O_R   0.430770 0.560690 0.864590 -0.634917
O17   O     O_R   0.569230 0.439310 0.135410 -0.634917
O18   O     O_R   0.133580 0.560760 0.692610 -0.637131
O19   O     O_R   0.866420 0.439240 0.307390 -0.637131
O20   O     O_R   0.134680 0.560740 0.864590 -0.642059
O21   O     O_R   0.865320 0.439260 0.135410 -0.642059
O22   O     O_R   0.306670 0.439270 0.571150 -0.647788
O23   O     O_R   0.693330 0.560730 0.428850 -0.647788
O24   O     O_R   0.135450 0.268370 0.694460 -0.642003
O25   O     O_R   0.864550 0.731630 0.305540 -0.642006
O26   O     O_R   0.429670 0.731610 0.863510 -0.630645
Zn1   Zn    Zn3+2 0.207400 0.586780 0.791530 0.980448
Zn2   Zn    Zn3+2 0.792600 0.413220 0.208470 0.980449
Zn3   Zn    Zn3+2 0.208510 0.413230 0.792630 0.982598
Zn4   Zn    Zn3+2 0.791490 0.586770 0.207370 0.982598
Zn5   Zn    Zn3+2 0.383150 0.586740 0.791530 0.985459
Zn6   Zn    Zn3+2 0.616850 0.413260 0.208470 0.985459
Zn7   Zn    Zn3+2 0.207400 0.413250 0.618010 0.971160
Zn8   Zn    Zn3+2 0.792600 0.586750 0.381990 0.971162

loop_
_geom_bond_atom_site_label_1
_geom_bond_atom_site_label_2
_ccdc_geom_bond_type
C20   H29   S    
C15   C18   S    
C7    C83   S    
C81   C107  S    
C9    N8    T    
O12   Zn8   S    
C39   H17   S    
O15   Zn8   S    
C80   C106  S    
C46   C59   A    
C27   C29   A    
C27   H23   S    
O10   Zn6   S    
C50   O21   A    
C89   O11   A    
O9    Zn5   S    
C43   C94   S    
C50   C84   S    
C39   C41   A    
C13   C65   S    
C1    O24   A    
C25   O5    A    
C26   O6    A    
C6    C82   S    
C68   C81   A    
O4    Zn8   S    
C25   O26   A    
C43   C99   S    
C65   C98   S    
O18   Zn1   S    
C23   H11   S    
C78   C80   A    
C57   C59   A    
C57   H4    S    
C14   H27   S    
O1    Zn5   S    
C76   C98   S    
C96   C99   S    
O8    Zn4   S    
C11   C13   S    
C17   C20   S    
O6    Zn2   S    
C46   C105  S    
C14   C20   S    
C60   C62   A    
C53   H34   S    
C26   O2    A    
O24   Zn3   S    
C69   C71   A    
C2    C13   S    
C4    C75   S    
C62   C64   A    
C11   N10   T    
C17   C19   S    
C6    N5    T    
C76   H22   S    
C15   C22   S    
C78   H7    S    
C56   C58   A    
C47   H32   S    
C91   O14   A    
C43   C95   S    
O1    Zn1   S    
C21   O25   A    
C19   C22   S    
O20   Zn1   S    
C1    O3    A    
C73   O9    A    
C93   C99   S    
C56   H3    S    
C12   C98   S    
C65   H26   S    
C30   C33   A    
C52   C55   A    
C74   O23   A    
C53   C56   A    
C40   C42   A    
C32   C93   S    
C63   C66   A    
C60   C66   A    
C93   C95   S    
C5    N4    T    
C71   C75   A    
C79   H8    S    
C60   H5    S    
C68   H21   S    
C28   H31   S    
O3    Zn7   S    
C10   N9    T    
C49   O7    A    
C69   C108  S    
C92   C97   S    
C65   C87   S    
C39   C42   A    
C45   C47   A    
O5    Zn1   S    
O16   Zn5   S    
C46   C48   A    
C45   C58   A    
C9    C43   S    
C55   H35   S    
C8    C32   S    
C31   C102  S    
C107  N17   T    
C19   C73   S    
C8    N7    T    
C36   C100  S    
C52   C64   S    
C104  N14   T    
O13   Zn4   S    
C79   C81   A    
C73   O22   A    
C103  N13   T    
C47   C51   A    
C15   H28   S    
C94   C97   S    
C54   H25   S    
C108  N18   T    
C90   O13   A    
C94   H2    S    
C21   O4    A    
C71   C88   S    
C67   C69   A    
C51   C66   S    
C87   H24   S    
C61   C64   A    
C38   C44   A    
C72   C77   A    
C45   C104  S    
C49   C85   S    
C7    N6    T    
O19   Zn2   S    
C18   C74   S    
C13   C76   S    
O1    Zn7   S    
C100  N1    T    
C91   O18   A    
C63   C89   S    
C61   C63   A    
C24   C37   A    
C77   C79   A    
C2    C87   S    
C50   O8    A    
C89   O16   A    
C94   C96   S    
O25   Zn4   S    
C93   H36   S    
C10   C12   S    
C17   H10   S    
O12   Zn2   S    
C54   C76   S    
C16   C18   S    
C32   C96   S    
C26   C98   S    
O26   Zn5   S    
O12   Zn6   S    
C23   C27   A    
C95   H1    S    
C55   C57   A    
C29   C44   S    
C2    C54   S    
C41   C44   A    
C14   C16   S    
O7    Zn3   S    
O23   Zn8   S    
C5    C77   S    
O21   Zn2   S    
C102  N12   T    
C31   C34   A    
C85   C88   A    
C1    C41   S    
C15   C17   S    
C90   O17   A    
C16   C22   S    
C12   C87   S    
C35   C37   A    
C33   C103  S    
C74   O10   A    
C14   C19   S    
C96   H12   S    
C67   C80   A    
C24   C28   A    
C84   C86   A    
C18   C20   S    
C72   C86   S    
C95   C97   S    
C58   H18   S    
O22   Zn7   S    
C22   H30   S    
C82   C84   A    
C3    C70   S    
C92   O19   A    
C91   C99   S    
C35   H15   S    
C29   C31   A    
C67   H20   S    
C37   C101  S    
C4    N3    T    
C105  N15   T    
C21   C40   S    
C38   C40   A    
C82   C88   A    
C62   C90   S    
C28   C30   A    
C24   H13   S    
C33   C35   A    
O11   Zn3   S    
C48   H33   S    
C2    C25   S    
C34   C36   A    
O14   Zn7   S    
C83   C85   A    
C75   C78   A    
C12   C54   S    
C92   O15   A    
C49   O20   A    
C48   C52   A    
C83   C86   A    
C70   C72   A    
C32   C97   S    
C3    N2    T    
C34   H14   S    
C23   C36   A    
O2    Zn6   S    
O12   Zn4   S    
C61   H6    S    
C68   C70   A    
C101  N11   T    
C30   C42   S    
O1    Zn3   S    
C51   C53   A    
C16   H9    S    
C59   H19   S    
C38   H16   S    
C106  N16   T    
O17   Zn6   S    
