data_mof_unit_49564.cif
_audit_creation_date              2012-10-26T20:21:15-0400
_audit_creation_method            fapswitch 2.2
_symmetry_space_group_name_H-M    P1
_symmetry_Int_Tables_number       1
_space_group_crystal_system       triclinic
_cell_length_a                    9.558357
_cell_length_b                    10.846331
_cell_length_c                    15.543204
_cell_angle_alpha                 90.215942
_cell_angle_beta                  74.029563
_cell_angle_gamma                 90.461344
_cell_volume                      1549.16555352

loop_
_atom_site_label
_atom_site_type_symbol
_atom_type_description
_atom_site_fract_x
_atom_site_fract_y
_atom_site_fract_z
_atom_type_partial_charge
C1    C     C_R   0.997876 0.262368 0.503444 0.539538
C2    C     C_R   0.125645 0.066762 0.501327 -0.173483
C3    C     C_R   0.999152 0.871900 0.509783 -0.033154
C4    C     C_R   0.994455 0.128688 0.510873 -0.043535
C5    C     C_R   0.540046 0.467350 0.574622 0.007654
C6    C     C_R   0.459769 0.534065 0.425509 0.007248
C7    C     C_R   0.392208 0.466628 0.574335 -0.008523
C8    C     C_R   0.608005 0.534121 0.425577 -0.008075
C9    C     C_R   0.917747 0.494833 0.671932 0.528866
C10   C     C_R   0.081928 0.496007 0.328161 0.562561
C11   C     C_R   0.871537 0.485218 0.770101 -0.011383
C12   C     C_R   0.999720 0.737856 0.502835 0.560044
C13   C     C_R   0.127458 0.477441 0.230915 0.008891
C14   C     C_R   0.925799 0.490057 0.912891 -0.113844
C15   C     C_R   0.088048 0.396142 0.094130 -0.137928
C16   C     C_R   0.970918 0.466439 0.821137 0.269516
C17   C     C_R   0.035315 0.420255 0.185687 0.242014
C18   C     C_R   0.723154 0.494392 0.814460 -0.195019
C19   C     C_R   0.271820 0.504850 0.184875 -0.180286
C20   C     C_R   0.673804 0.489526 0.908151 0.013013
C21   C     C_R   0.328717 0.474040 0.094314 0.019891
C22   C     C_R   0.777701 0.500241 0.957096 -0.007869
C23   C     C_R   0.585157 0.511340 0.094879 -0.128433
C24   C     C_R   0.232489 0.424597 0.048083 -0.001939
C25   C     C_R   0.524894 0.473383 0.954221 0.042480
C26   C     C_R   0.478705 0.489173 0.048692 0.042365
C27   C     C_3   0.879207 0.264295 0.246992 0.010563
C28   C     C_3   0.729417 0.237042 0.310898 -0.241737
C29   C     C_3   0.705957 0.099041 0.328441 -0.452911
C30   C     C_3   0.105635 0.297720 0.755017 -0.003272
C31   C     C_3   0.025333 0.206914 0.828603 -0.288386
C32   C     C_3   0.042260 0.074317 0.794185 -0.487831
C33   C     C_3   0.689806 0.155750 0.641681 0.037281
C34   C     C_R   0.423694 0.430847 0.909547 -0.127634
C35   C     C_3   0.586851 0.060937 0.699351 -0.289388
C36   C     C_3   0.534620 0.102859 0.796678 -0.486730
C37   C     C_3   0.271650 0.870108 0.588466 0.023286
C38   C     C_3   0.419008 0.813568 0.584813 -0.247524
C39   C     C_3   0.424491 0.767185 0.676478 -0.487877
C40   C     C_R   0.732388 0.513882 0.049747 -0.133821
C41   C     C_R   0.281766 0.402866 0.956476 -0.135804
C42   C     C_R   0.862446 0.061616 0.529507 0.231806
C43   C     C_R   0.128113 0.939301 0.505072 0.230873
C44   C     C_R   0.866779 0.933967 0.524030 -0.170902
Cu1   Cu    Cu3+1 0.140660 0.500020 0.500000 0.945238
Cu2   Cu    Cu3+1 0.859340 0.499980 0.500000 0.937909
H1    H     H_    0.811195 0.524236 0.087827 0.145168
H2    H     H_    0.227439 0.116703 0.491698 0.157654
H3    H     H_    0.566350 0.443112 0.635491 0.097142
H4    H     H_    0.432514 0.563046 0.365763 0.119958
H5    H     H_    0.310462 0.440911 0.634281 0.152239
H6    H     H_    0.690063 0.562294 0.365863 0.145887
H7    H     H_    0.963584 0.231879 0.278949 0.133246
H8    H     H_    0.889902 0.212827 0.183405 0.125299
H9    H     H_    0.719608 0.285066 0.375505 0.217580
H10   H     H_    0.643404 0.272288 0.281866 0.161882
H11   H     H_    0.708092 0.049607 0.265389 0.137944
H12   H     H_    0.210335 0.364077 0.920508 0.143451
H13   H     H_    0.598506 0.082874 0.377456 0.178866
H14   H     H_    0.792030 0.061444 0.356268 0.172291
H15   H     H_    0.220045 0.266440 0.729506 0.134043
H16   H     H_    0.057924 0.291526 0.697604 0.146011
H17   H     H_    0.068953 0.213974 0.887542 0.155173
H18   H     H_    0.907315 0.228449 0.850329 0.153351
H19   H     H_    0.000422 0.064482 0.734469 0.137484
H20   H     H_    0.979541 0.011199 0.847193 0.152853
H21   H     H_    0.158589 0.047295 0.776290 0.139025
H22   H     H_    0.631258 0.244197 0.646801 0.151911
H23   H     H_    0.337674 0.552170 0.221007 0.117412
H24   H     H_    0.784734 0.173382 0.669077 0.106472
H25   H     H_    0.490767 0.048297 0.673056 0.163549
H26   H     H_    0.643589 0.971346 0.696220 0.161108
H27   H     H_    0.628724 0.119241 0.824345 0.153098
H28   H     H_    0.463604 0.030413 0.837095 0.150235
H29   H     H_    0.470710 0.188897 0.801686 0.142098
H30   H     H_    0.183375 0.809167 0.628675 0.153080
H31   H     H_    0.265360 0.961581 0.622219 0.104011
H32   H     H_    0.440309 0.735304 0.537216 0.203320
H33   H     H_    0.505800 0.883686 0.559863 0.162241
H34   H     H_    0.646919 0.507117 0.775391 0.123223
H35   H     H_    0.396102 0.841968 0.727087 0.138999
H36   H     H_    0.535835 0.734195 0.672412 0.154381
H37   H     H_    0.346684 0.689358 0.698322 0.168981
H38   H     H_    0.005478 0.492221 0.950225 0.119251
H39   H     H_    0.016126 0.353254 0.059590 0.099443
H40   H     H_    0.559032 0.517907 0.166779 0.106530
H41   H     H_    0.454009 0.409912 0.838931 0.099775
H42   H     H_    0.765612 0.883573 0.533068 0.145254
N1    N     N_R   0.352080 0.500030 0.499980 -0.229016
N2    N     N_R   0.647920 0.499970 0.500020 -0.230753
O1    O     O_R   0.118740 0.319660 0.500000 -0.524633
O2    O     O_3   0.110149 0.421759 0.784980 -0.593614
O3    O     O_3   0.728560 0.119063 0.550533 -0.560458
O4    O     O_3   0.258885 0.882431 0.500382 -0.546098
O5    O     O_R   0.881260 0.680340 0.500000 -0.517562
O6    O     O_R   0.881170 0.319630 0.500010 -0.461628
O7    O     O_R   0.118830 0.680370 0.499990 -0.448402
O8    O     O_R   0.055570 0.500030 0.629830 -0.485704
O9    O     O_R   0.944430 0.499970 0.370170 -0.463583
O10   O     O_R   0.818000 0.500000 0.629840 -0.534432
O11   O     O_R   0.182000 0.500000 0.370160 -0.523302
O12   O     O_3   0.892209 0.392334 0.230090 -0.575483

loop_
_geom_bond_atom_site_label_1
_geom_bond_atom_site_label_2
_ccdc_geom_bond_type
C40   H1    S    
C21   C26   A    
C11   C18   A    
C9    O8    A    
C42   O3    S    
C35   C36   S    
C14   H38   S    
Cu2   O9    S    
C28   H10   S    
C27   H8    S    
Cu1   Cu2   S    
C3    C43   A    
C28   C29   S    
C19   C21   A    
C41   H12   S    
Cu1   O8    S    
C38   C39   S    
C20   C25   A    
C23   C40   A    
C7    N1    A    
C43   O4    S    
C23   C26   A    
C3    C12   S    
Cu2   O5    S    
C29   H13   S    
C23   H40   S    
C12   O5    A    
Cu1   N1    S    
C8    H6    S    
C5    N2    A    
C25   C34   A    
C15   H39   S    
C35   H25   S    
C1    O1    A    
C24   C41   A    
C5    H3    S    
C34   C41   A    
C42   C44   A    
C28   H9    S    
C3    C44   A    
C13   C19   A    
C31   H17   S    
C39   H35   S    
C30   O2    S    
C5    C7    A    
Cu1   O11   S    
C6    C8    A    
C38   H32   S    
C2    H2    S    
C25   C26   A    
C37   H31   S    
C2    C4    A    
C17   O12   S    
C37   C38   S    
C36   H29   S    
C11   C16   A    
C31   C32   S    
C29   H14   S    
C2    C43   A    
C22   C40   A    
C6    H4    S    
C9    C11   S    
C12   O7    A    
C36   H28   S    
C33   H24   S    
C32   H21   S    
C15   C24   A    
C37   H30   S    
C20   C22   A    
C35   H26   S    
C16   O2    S    
C9    O10   A    
C30   H16   S    
C14   C16   A    
C19   H23   S    
C8    N2    A    
C21   C24   A    
C32   H20   S    
C15   C17   A    
Cu2   O10   S    
C31   H18   S    
C10   O11   A    
C39   H36   S    
C29   H11   S    
C10   C13   S    
C33   O3    S    
C27   H7    S    
Cu2   N2    S    
C6    N1    A    
C27   O12   S    
C13   C17   A    
C1    C4    S    
C14   C22   A    
C7    H5    S    
Cu1   O7    S    
C30   C31   S    
C4    C42   A    
C1    O6    A    
C33   C35   S    
C37   O4    S    
C18   C20   A    
C34   H41   S    
C10   O9    A    
Cu1   O1    S    
C36   H27   S    
C39   H37   S    
Cu2   O6    S    
C18   H34   S    
C38   H33   S    
C30   H15   S    
C27   C28   S    
C44   H42   S    
C33   H22   S    
C32   H19   S    
