data_mof_unit_34451.cif
_audit_creation_date              2012-12-11T14:28:13-0500
_audit_creation_method            fapswitch 2.2
_symmetry_space_group_name_H-M    P1
_symmetry_Int_Tables_number       1
_space_group_crystal_system       triclinic
_cell_length_a                    11.170707
_cell_length_b                    20.073611
_cell_length_c                    18.668674
_cell_angle_alpha                 89.442509
_cell_angle_beta                  90.343874
_cell_angle_gamma                 89.40233
_cell_volume                      4185.69287647

loop_
_atom_site_label
_atom_site_type_symbol
_atom_type_description
_atom_site_fract_x
_atom_site_fract_y
_atom_site_fract_z
_atom_type_partial_charge
C1    C     C_R   0.316450 0.937802 0.637879 0.508878
C2    C     C_R   0.317688 0.943786 0.861757 0.521627
C3    C     C_R   0.316708 0.060703 0.362464 0.517094
C4    C     C_R   0.319563 0.040138 0.143129 0.588534
C5    C     C_R   0.816389 0.437833 0.637906 0.515116
C6    C     C_R   0.817682 0.444078 0.861726 0.522092
C7    C     C_R   0.816474 0.560689 0.362480 0.515024
C8    C     C_R   0.819540 0.540292 0.143053 0.576950
C9    C     C_3   0.183291 0.700546 0.467143 0.150231
C10   C     C_3   0.107365 0.677414 0.016396 0.143647
C11   C     C_3   0.210757 0.249409 0.552512 0.144098
C12   C     C_3   0.134051 0.308073 0.984880 0.150649
C13   C     C_3   0.673326 0.197282 0.470897 0.153214
C14   C     C_3   0.607700 0.177639 0.016544 0.142831
C15   C     C_3   0.713252 0.747832 0.552873 0.144852
C16   C     C_3   0.633274 0.808468 0.985119 0.151468
C17   C     C_3   0.089030 0.741370 0.424972 0.027215
C18   C     C_3   0.026298 0.724096 0.060063 0.013655
C19   C     C_3   0.081155 0.252350 0.575976 0.022849
C20   C     C_3   0.037022 0.274541 0.939014 0.014632
C21   C     C_3   0.584697 0.239943 0.426418 0.036709
C22   C     C_3   0.526160 0.224184 0.060072 0.017354
C23   C     C_3   0.583241 0.752120 0.575857 0.024005
C24   C     C_3   0.536312 0.774871 0.939207 0.019054
C25   C     C_R   0.324201 0.037270 0.437214 -0.020264
C26   C     C_R   0.326892 0.019022 0.070326 0.036705
C27   C     C_R   0.324198 0.958841 0.562476 -0.016050
C28   C     C_R   0.325262 0.969849 0.932922 0.029539
C29   C     C_R   0.823060 0.537215 0.437250 -0.022415
C30   C     C_R   0.826832 0.519374 0.070179 0.034056
C31   C     C_R   0.823745 0.459122 0.562662 -0.011622
C32   C     C_R   0.825103 0.470408 0.932728 0.030971
C33   C     C_R   0.547967 0.037708 0.442807 -0.049925
C34   C     C_R   0.550206 0.997314 0.073614 -0.010146
C35   C     C_R   0.546061 0.955346 0.559867 -0.063075
C36   C     C_R   0.546911 0.994277 0.927031 -0.018152
C37   C     C_R   0.046372 0.540429 0.444218 -0.051002
C38   C     C_R   0.050308 0.497947 0.073165 -0.007519
C39   C     C_R   0.045686 0.456034 0.559725 -0.061151
C40   C     C_R   0.046602 0.494904 0.926616 -0.018925
C41   C     C_R   0.653878 0.014025 0.472598 -0.017011
C42   C     C_R   0.654385 0.983475 0.036393 -0.051572
C43   C     C_R   0.653082 0.976808 0.534028 -0.027748
C44   C     C_R   0.654117 0.994946 0.963583 -0.057406
C45   C     C_R   0.152859 0.517919 0.474414 -0.017309
C46   C     C_R   0.154306 0.483824 0.035836 -0.047197
C47   C     C_R   0.152458 0.479176 0.534879 -0.034789
C48   C     C_R   0.153930 0.495247 0.963023 -0.056138
C49   C     C_R   0.434675 0.976868 0.531175 0.044316
C50   C     C_R   0.436303 0.988828 0.964169 0.030602
C51   C     C_R   0.435173 0.017877 0.469439 0.051999
C52   C     C_R   0.437762 0.002395 0.037468 0.030877
C53   C     C_R   0.934057 0.477712 0.531495 0.048346
C54   C     C_R   0.936110 0.489478 0.963876 0.032165
C55   C     C_R   0.934053 0.519070 0.470113 0.049768
C56   C     C_R   0.937718 0.502985 0.037173 0.032368
C57   C     C_R   0.216773 0.972128 0.525336 0.092622
C58   C     C_R   0.216946 0.976642 0.971462 0.098126
C59   C     C_R   0.215212 0.019302 0.470229 0.057413
C60   C     C_R   0.217938 0.015477 0.031491 0.098823
C61   C     C_R   0.715923 0.471979 0.525603 0.096651
C62   C     C_R   0.716761 0.477166 0.971265 0.100504
C63   C     C_R   0.713889 0.518572 0.469938 0.055204
C64   C     C_R   0.717801 0.515845 0.031401 0.099646
C65   C     C_R   0.108202 0.941436 0.543627 -0.038421
C66   C     C_R   0.106102 0.948589 0.951520 -0.020701
C67   C     C_R   0.102079 0.042426 0.445016 0.006089
C68   C     C_R   0.108599 0.048105 0.049855 0.000759
C69   C     C_R   0.607816 0.440535 0.543790 -0.039068
C70   C     C_R   0.605887 0.449067 0.951342 -0.017135
C71   C     C_R   0.600322 0.540651 0.444191 0.009553
C72   C     C_R   0.608463 0.548429 0.049855 0.000413
C73   C     C_R   0.002477 0.957595 0.508514 -0.023522
C74   C     C_R   0.999016 0.972013 0.979241 -0.053216
C75   C     C_R   0.001969 0.004247 0.454194 0.051459
C76   C     C_R   0.000133 0.023940 0.026562 -0.045051
C77   C     C_R   0.501828 0.456068 0.508552 -0.035144
C78   C     C_R   0.498808 0.472518 0.979010 -0.049371
C79   C     C_R   0.500891 0.501813 0.453442 0.052067
C80   C     C_R   0.499980 0.524384 0.026413 -0.043727
C81   C     C_R   0.171348 0.767957 0.635988 0.559154
C82   C     C_R   0.141411 0.759829 0.857560 0.582759
C83   C     C_R   0.178315 0.229536 0.364303 0.526970
C84   C     C_R   0.132939 0.241231 0.145240 0.581112
C85   C     C_R   0.648146 0.262059 0.639457 0.601194
C86   C     C_R   0.641435 0.259825 0.857562 0.580334
C87   C     C_R   0.680093 0.729130 0.364096 0.529760
C88   C     C_R   0.632880 0.741254 0.145283 0.575023
C89   C     C_R   0.539786 0.771246 0.645503 0.581814
C90   C     C_R   0.503072 0.785930 0.862602 0.563140
C91   C     C_R   0.542074 0.228095 0.354258 0.634098
C92   C     C_R   0.497887 0.213093 0.137335 0.575903
C93   C     C_R   0.039253 0.271359 0.645569 0.580665
C94   C     C_R   0.003428 0.285787 0.862587 0.565612
C95   C     C_R   0.042434 0.728233 0.354039 0.621169
C96   C     C_R   0.997864 0.713065 0.137332 0.565697
C97   C     C_3   0.136416 0.805773 0.453698 0.179504
C98   C     C_3   0.101191 0.783051 0.037081 0.204239
C99   C     C_3   0.051543 0.189246 0.536174 0.238989
C100  C     C_3   0.073835 0.206718 0.968138 0.225447
C101  C     C_3   0.633134 0.303237 0.457511 0.189406
C102  C     C_3   0.600633 0.283263 0.037013 0.256353
C103  C     C_3   0.552167 0.689582 0.535237 0.252436
C104  C     C_3   0.573450 0.707074 0.968245 0.231280
C105  C     C_3   0.228363 0.766216 0.499145 -0.152560
C106  C     C_3   0.180130 0.737233 0.991898 -0.150712
C107  C     C_3   0.183449 0.185961 0.509348 -0.164939
C108  C     C_3   0.168495 0.239011 0.014761 -0.110195
C109  C     C_3   0.718706 0.261604 0.505298 -0.137401
C110  C     C_3   0.680174 0.237587 0.992043 -0.121738
C111  C     C_3   0.684433 0.684830 0.509187 -0.164339
C112  C     C_3   0.667986 0.739422 0.014860 -0.104977
C113  C     C_3   0.135366 0.760294 0.559840 -0.006721
C114  C     C_3   0.095575 0.748761 0.928931 -0.011645
C115  C     C_3   0.148261 0.231373 0.443441 -0.044423
C116  C     C_3   0.078401 0.249290 0.073839 0.000519
C117  C     C_3   0.619330 0.256376 0.562513 -0.005245
C118  C     C_3   0.595702 0.248745 0.928944 -0.021851
C119  C     C_3   0.651783 0.730783 0.443377 -0.044451
C120  C     C_3   0.578001 0.749469 0.073999 -0.008105
C121  C     C_3   0.043385 0.800678 0.515331 -0.145319
C122  C     C_3   0.018374 0.795231 0.972631 -0.146546
C123  C     C_3   0.017255 0.232862 0.468978 -0.129394
C124  C     C_3   0.982773 0.213585 0.029522 -0.158621
C125  C     C_3   0.534133 0.298980 0.515796 -0.149427
C126  C     C_3   0.517989 0.295095 0.972415 -0.155466
C127  C     C_3   0.520721 0.733830 0.468173 -0.129473
C128  C     C_3   0.482463 0.713720 0.029686 -0.177159
C129  C     C_3   0.998838 0.734346 0.485236 -0.139966
C130  C     C_3   0.942826 0.734659 0.993187 -0.180343
C131  C     C_3   0.046425 0.296343 0.511182 -0.178565
C132  C     C_3   0.945990 0.284120 0.999583 -0.169736
C133  C     C_3   0.488808 0.233639 0.483679 -0.146560
C134  C     C_3   0.442797 0.234418 0.993061 -0.190596
C135  C     C_3   0.551602 0.796735 0.510877 -0.185422
C136  C     C_3   0.445301 0.784255 0.999885 -0.187538
C137  C     C_3   0.091755 0.694156 0.528842 0.205492
C138  C     C_3   0.025936 0.688185 0.950125 0.173356
C139  C     C_3   0.176976 0.293526 0.487328 0.171826
C140  C     C_3   0.041726 0.317727 0.045656 0.182097
C141  C     C_3   0.576031 0.191451 0.529310 0.187049
C142  C     C_3   0.526385 0.188056 0.950205 0.166450
C143  C     C_3   0.682230 0.792399 0.487596 0.169071
C144  C     C_3   0.540942 0.817938 0.046053 0.176063
Cr1   Cr    Cr6+3 0.488160 0.884660 0.750000 1.065643
Cr2   Cr    Cr6+3 0.488160 0.115340 0.250000 1.075322
Cr3   Cr    Cr6+3 0.988160 0.384660 0.750000 1.061040
Cr4   Cr    Cr6+3 0.988160 0.615340 0.250000 1.069297
Cr5   Cr    Cr6+3 0.173480 0.883120 0.750000 1.066379
Cr6   Cr    Cr6+3 0.173480 0.116880 0.250000 1.071739
Cr7   Cr    Cr6+3 0.673480 0.383120 0.750000 1.064738
Cr8   Cr    Cr6+3 0.673480 0.616880 0.250000 1.063117
Cr9   Cr    Cr6+3 0.333410 0.727260 0.750000 1.152158
Cr10  Cr    Cr6+3 0.333410 0.272740 0.250000 1.156615
Cr11  Cr    Cr6+3 0.833410 0.227260 0.750000 1.141354
Cr12  Cr    Cr6+3 0.833410 0.772740 0.250000 1.162992
H1    H     H_    0.318970 0.782836 0.511989 0.106420
H2    H     H_    0.270356 0.724481 0.975233 0.153908
H3    H     H_    0.245973 0.143101 0.510389 0.140392
H4    H     H_    0.242680 0.208297 0.036977 0.097396
H5    H     H_    0.810421 0.274997 0.520941 0.115541
H6    H     H_    0.770427 0.224777 0.975599 0.149688
H7    H     H_    0.745819 0.641525 0.510677 0.137660
H8    H     H_    0.742351 0.708792 0.036967 0.099093
H9    H     H_    0.920454 0.937456 0.527503 0.141359
H10   H     H_    0.915681 0.952819 0.960800 0.146555
H11   H     H_    0.921699 0.016642 0.424972 0.163275
H12   H     H_    0.918111 0.045373 0.045040 0.154886
H13   H     H_    0.419716 0.436056 0.527665 0.137394
H14   H     H_    0.415481 0.453249 0.960630 0.145894
H15   H     H_    0.420082 0.513355 0.424134 0.165973
H16   H     H_    0.417997 0.545750 0.044985 0.156320
H17   H     H_    0.976048 0.833430 0.539319 0.182601
H18   H     H_    0.978928 0.841724 0.954189 0.175143
H19   H     H_    0.943480 0.234917 0.430118 0.188865
H20   H     H_    0.932642 0.173516 0.055112 0.190781
H21   H     H_    0.468760 0.333130 0.539218 0.180833
H22   H     H_    0.478993 0.341655 0.953763 0.176743
H23   H     H_    0.448357 0.737144 0.428366 0.191702
H24   H     H_    0.432632 0.673557 0.055307 0.182588
H25   H     H_    0.906188 0.719131 0.474063 0.131465
H26   H     H_    0.859780 0.734499 0.962640 0.223587
H27   H     H_    0.985809 0.340123 0.511238 0.141865
H28   H     H_    0.864058 0.312802 0.986266 0.144624
H29   H     H_    0.396976 0.220248 0.468525 0.125775
H30   H     H_    0.359880 0.234036 0.962370 0.227148
H31   H     H_    0.493149 0.841324 0.509733 0.135969
H32   H     H_    0.363134 0.812811 0.986783 0.141335
H33   H     H_    0.737253 0.023491 0.447784 0.185646
H34   H     H_    0.738064 0.975614 0.064980 0.167977
H35   H     H_    0.735349 0.960596 0.559550 0.164181
H36   H     H_    0.736841 0.000424 0.934535 0.166154
H37   H     H_    0.236360 0.529752 0.450995 0.193259
H38   H     H_    0.238022 0.475819 0.064343 0.169993
H39   H     H_    0.235059 0.463472 0.560444 0.154911
H40   H     H_    0.236595 0.500552 0.933880 0.164860
H41   H     H_    0.559376 0.074382 0.402206 0.190977
H42   H     H_    0.562025 0.997114 0.130738 0.202002
H43   H     H_    0.555612 0.918011 0.599106 0.177798
H44   H     H_    0.556302 0.002675 0.870482 0.204206
H45   H     H_    0.056284 0.577755 0.404242 0.189140
H46   H     H_    0.062402 0.497815 0.130263 0.202652
H47   H     H_    0.055299 0.417864 0.598171 0.176269
H48   H     H_    0.055730 0.503429 0.870061 0.201973
H49   H     H_    0.090884 0.087798 0.414185 0.149007
H50   H     H_    0.105674 0.092881 0.081062 0.139699
H51   H     H_    0.103301 0.904375 0.584742 0.133858
H52   H     H_    0.101087 0.909012 0.913937 0.138085
H53   H     H_    0.588110 0.585950 0.413293 0.154385
H54   H     H_    0.605546 0.593096 0.081225 0.141893
H55   H     H_    0.603681 0.403068 0.584541 0.135269
H56   H     H_    0.600824 0.409359 0.913914 0.137337
O1    O     O_R   0.575450 0.828820 0.667950 -0.526948
O2    O     O_R   0.575450 0.828820 0.832050 -0.428950
O3    O     O_R   0.575450 0.171180 0.332050 -0.509116
O4    O     O_R   0.575450 0.171180 0.167950 -0.420332
O5    O     O_R   0.075450 0.328820 0.667950 -0.522641
O6    O     O_R   0.075450 0.328820 0.832050 -0.429233
O7    O     O_R   0.075450 0.671180 0.332050 -0.513128
O8    O     O_R   0.075450 0.671180 0.167950 -0.444070
O9    O     O_R   0.416860 0.942890 0.674680 -0.484262
O10   O     O_R   0.416860 0.942890 0.825320 -0.511825
O11   O     O_R   0.416860 0.057110 0.325320 -0.492181
O12   O     O_R   0.416860 0.057110 0.174680 -0.527621
O13   O     O_R   0.916860 0.442890 0.674680 -0.487740
O14   O     O_R   0.916860 0.442890 0.825320 -0.513355
O15   O     O_R   0.916860 0.557110 0.325320 -0.491070
O16   O     O_R   0.916860 0.557110 0.174680 -0.524245
O17   O     O_R   0.213790 0.953680 0.668330 -0.463462
O18   O     O_R   0.213790 0.953680 0.831670 -0.483377
O19   O     O_R   0.213790 0.046320 0.331670 -0.454760
O20   O     O_R   0.213790 0.046320 0.168330 -0.487886
O21   O     O_R   0.713790 0.453680 0.668330 -0.461080
O22   O     O_R   0.713790 0.453680 0.831670 -0.481417
O23   O     O_R   0.713790 0.546320 0.331670 -0.462856
O24   O     O_R   0.713790 0.546320 0.168330 -0.493946
O25   O     O_R   0.121360 0.817890 0.672660 -0.506353
O26   O     O_R   0.121360 0.817890 0.827340 -0.521750
O27   O     O_R   0.121360 0.182110 0.327340 -0.518195
O28   O     O_R   0.121360 0.182110 0.172660 -0.532346
O29   O     O_R   0.621360 0.317890 0.672660 -0.525851
O30   O     O_R   0.621360 0.317890 0.827340 -0.523511
O31   O     O_R   0.621360 0.682110 0.327340 -0.516633
O32   O     O_R   0.621360 0.682110 0.172660 -0.534936
O33   O     O_R   0.206850 0.711370 0.665820 -0.397143
O34   O     O_R   0.206850 0.711370 0.834180 -0.473606
O35   O     O_R   0.206850 0.288630 0.334180 -0.416668
O36   O     O_R   0.206850 0.288630 0.165820 -0.470100
O37   O     O_R   0.706850 0.211370 0.665820 -0.405386
O38   O     O_R   0.706850 0.211370 0.834180 -0.473380
O39   O     O_R   0.706850 0.788630 0.334180 -0.415976
O40   O     O_R   0.706850 0.788630 0.165820 -0.469888
O41   O     O_R   0.457710 0.733190 0.672630 -0.434030
O42   O     O_R   0.457710 0.733190 0.827370 -0.427607
O43   O     O_R   0.457710 0.266810 0.327370 -0.455958
O44   O     O_R   0.457710 0.266810 0.172630 -0.418419
O45   O     O_R   0.957710 0.233190 0.672630 -0.458124
O46   O     O_R   0.957710 0.233190 0.827370 -0.437851
O47   O     O_R   0.957710 0.766810 0.327370 -0.450444
O48   O     O_R   0.957710 0.766810 0.172630 -0.416317
O49   O     O_3   0.331690 0.831680 0.750000 -0.407108
O50   O     O_3   0.331690 0.168320 0.250000 -0.402390
O51   O     O_3   0.831690 0.331680 0.750000 -0.396170
O52   O     O_3   0.831690 0.668320 0.250000 -0.397614
S1    S     S_3+6 0.193404 0.859812 0.385081 0.056392
O53   O     O_2   0.099685 0.908807 0.359979 -0.200196
O54   O     O_2   0.302587 0.894955 0.411200 -0.327628
O55   O     O_3   0.236125 0.814036 0.314738 -0.398452
H57   H     H_    0.309777 0.790240 0.330790 0.361420
S2    S     S_3+6 0.155825 0.840421 0.101088 0.070318
O56   O     O_2   0.253778 0.879792 0.068895 -0.329539
O57   O     O_2   0.057208 0.886646 0.124434 -0.210857
O58   O     O_3   0.211403 0.798430 0.172189 -0.371233
H58   H     H_    0.271315 0.767107 0.152179 0.364940
S3    S     S_3+6 0.984976 0.117345 0.583251 0.034145
O59   O     O_2   0.891648 0.087447 0.536872 -0.275322
O60   O     O_2   0.086489 0.069632 0.596037 -0.315691
O61   O     O_3   0.915393 0.121205 0.662872 -0.418260
H59   H     H_    0.973799 0.104573 0.699207 0.363826
S4    S     S_3+6 0.126005 0.145882 0.905287 0.030529
O62   O     O_2   0.234622 0.112807 0.936217 -0.319049
O63   O     O_2   0.030159 0.096152 0.889557 -0.288357
O64   O     O_3   0.170746 0.181636 0.828165 -0.422024
H60   H     H_    0.190975 0.144013 0.796327 0.396111
S5    S     S_3+6 0.698410 0.355918 0.390473 0.031943
O65   O     O_2   0.609050 0.405784 0.361786 -0.204982
O66   O     O_2   0.806811 0.390057 0.419223 -0.336804
O67   O     O_3   0.744883 0.308237 0.322503 -0.465741
H61   H     H_    0.821996 0.288358 0.338664 0.366240
S6    S     S_3+6 0.653227 0.341942 0.100136 0.050931
O68   O     O_2   0.753211 0.379530 0.067544 -0.349389
O69   O     O_2   0.554441 0.389214 0.120756 -0.242997
O70   O     O_3   0.705718 0.301682 0.173089 -0.406052
H62   H     H_    0.761631 0.333511 0.195079 0.423872
S7    S     S_3+6 0.481016 0.618116 0.580058 0.026847
O71   O     O_2   0.391189 0.589095 0.530782 -0.318868
O72   O     O_2   0.580398 0.569834 0.596321 -0.295505
O73   O     O_3   0.405324 0.623132 0.657297 -0.421753
H63   H     H_    0.382635 0.576790 0.669412 0.360105
S8    S     S_3+6 0.626190 0.646355 0.905453 0.037759
O74   O     O_2   0.734742 0.613406 0.936604 -0.323276
O75   O     O_2   0.530645 0.596519 0.889465 -0.278306
O76   O     O_3   0.671269 0.682235 0.828473 -0.414862
H64   H     H_    0.692384 0.644668 0.796760 0.405175
Br1   Br    Br    0.041281 0.623251 0.592858 -0.390205
Br2   Br    Br    0.969772 0.634721 0.871041 -0.367037
Br3   Br    Br    0.270632 0.365818 0.449944 -0.550145
Br4   Br    Br    0.989816 0.367172 0.129477 -0.440660
Br5   Br    Br    0.526255 0.120970 0.593847 -0.383003
Br6   Br    Br    0.470637 0.134173 0.871364 -0.365557
Br7   Br    Br    0.778662 0.863483 0.450270 -0.553542
Br8   Br    Br    0.488605 0.866679 0.130520 -0.402071
Br9   Br    Br    0.289631 0.647974 0.406813 -0.532221
Br10  Br    Br    0.223158 0.620140 0.061041 -0.618985
Br11  Br    Br    0.325975 0.257929 0.630154 -0.405653
Br12  Br    Br    0.252457 0.358983 0.937303 -0.572721
Br13  Br    Br    0.783710 0.145253 0.413330 -0.531377
Br14  Br    Br    0.723106 0.120007 0.061009 -0.584363
Br15  Br    Br    0.830608 0.755693 0.629379 -0.383063
Br16  Br    Br    0.752242 0.858895 0.937413 -0.572846

loop_
_geom_bond_atom_site_label_1
_geom_bond_atom_site_label_2
_ccdc_geom_bond_type
C6    C32   S    
C7    C29   S    
S6    O70   S    
C119  C143  S    
C11   C107  S    
C120  C144  S    
C110  C118  S    
Cr5   O18   S    
C4    O20   A    
C47   H39   S    
C16   C144  S    
Cr8   O32   S    
C30   C64   A    
C57   C59   A    
Cr1   O9    S    
C58   C60   A    
Cr6   O20   S    
C62   C70   A    
C1    O9    A    
C61   C63   A    
C91   O3    A    
C23   C103  S    
C49   C51   A    
C34   C42   A    
C50   C52   A    
C23   C89   S    
C128  H24   S    
C67   H49   S    
C88   O40   A    
C97   C105  S    
C73   C75   A    
C42   C44   A    
C20   C132  S    
Cr5   O49   S    
Cr3   O14   S    
C83   O27   A    
Cr10  O43   S    
C45   C47   A    
C112  H8    S    
C46   C48   A    
C115  C123  S    
C27   C57   A    
C57   C65   A    
C112  C120  S    
Cr11  O46   S    
C19   C99   S    
C29   C55   A    
C96   O8    A    
Cr7   O22   S    
C30   C56   A    
C100  C124  S    
Cr3   O5    S    
C81   O33   A    
C91   O43   A    
C42   H34   S    
O76   H64   S    
C104  C128  S    
C86   O30   A    
Cr9   O34   S    
C12   C20   S    
C120  C128  S    
C101  S5    S    
C85   C117  S    
C93   O45   A    
C97   S1    S    
C63   C71   A    
S2    O57   D    
C36   C44   A    
C33   C51   A    
O73   H63   S    
C80   H16   S    
C37   C45   A    
C130  C138  S    
C90   O2    A    
C36   C50   A    
S8    O74   D    
C39   C47   A    
C40   C48   A    
Cr9   O41   S    
C34   C52   A    
C24   C90   S    
Cr8   O24   S    
C28   C58   A    
C98   C106  S    
C41   H33   S    
C33   C41   A    
S5    O66   D    
C4    O12   A    
C44   H36   S    
C7    O15   A    
C10   C18   S    
C5    O13   A    
C76   H12   S    
Cr4   O7    S    
C2    C28   S    
C32   C62   A    
Cr1   O2    S    
C129  C137  S    
C126  C134  S    
Cr6   O27   S    
C38   H46   S    
C83   O35   A    
C10   C138  S    
C14   C142  S    
C85   O37   A    
C70   H56   S    
C134  H30   S    
C69   C77   A    
Cr4   O16   S    
C71   C79   A    
Cr11  O37   S    
Cr12  O39   S    
C35   H43   S    
S7    O72   D    
C87   O39   A    
C74   C76   A    
C105  C113  S    
C78   C80   A    
C9    C105  S    
C66   C74   A    
C78   H14   S    
C124  C132  S    
C93   O5    A    
C20   C94   S    
C97   C121  S    
C59   C67   A    
Cr12  O52   S    
C40   H48   S    
C71   H53   S    
C35   C49   A    
C101  C125  S    
Cr2   O50   S    
C35   C43   A    
S8    O76   S    
C133  H29   S    
C24   C136  S    
C135  C143  S    
C90   O42   A    
C84   C116  S    
C136  H32   S    
C9    C137  S    
C135  H31   S    
C46   H38   S    
C9    Br9   S    
C121  H17   S    
C100  C108  S    
C82   O34   A    
C83   C115  S    
S3    O61   S    
S4    O62   D    
C73   H9    S    
C3    O19   A    
C104  C112  S    
C16   Br16  S    
C122  H18   S    
C126  H22   S    
C87   C119  S    
O70   H62   S    
Cr7   O29   S    
Cr2   O12   S    
C34   H42   S    
C95   O7    A    
C104  S8    S    
Cr4   O52   S    
S1    O54   D    
C69   H55   S    
C140  Br4   S    
C40   C54   A    
Cr1   O49   S    
C15   C143  S    
C10   C106  S    
C67   C75   A    
C137  Br1   S    
C14   C110  S    
C3    O11   A    
C102  C126  S    
C143  Br7   S    
C79   H15   S    
C144  Br8   S    
C103  S7    S    
C65   H51   S    
C68   C76   A    
C141  Br5   S    
C84   O36   A    
C127  H23   S    
C14   C22   S    
Cr11  O51   S    
C72   C80   A    
C13   C21   S    
C68   H50   S    
C94   O46   A    
C81   O25   A    
C114  C138  S    
C38   C46   A    
C131  C139  S    
C2    O18   A    
C138  Br2   S    
C113  C121  S    
Cr10  O35   S    
O64   H60   S    
C22   C92   S    
O61   H59   S    
C25   C59   A    
C26   C60   A    
C27   C49   A    
C119  C127  S    
C29   C63   A    
C39   H47   S    
C41   C43   A    
C31   C61   A    
S3    O59   D    
S4    O64   S    
Cr3   O13   S    
C109  C117  S    
Cr10  O44   S    
C11   C19   S    
C127  C135  S    
C128  C136  S    
Cr11  O45   S    
C101  C109  S    
Cr7   O21   S    
C2    O10   A    
C103  C111  S    
S6    O68   D    
C21   C133  S    
C11   C139  S    
C116  C140  S    
C131  H27   S    
C105  H1    S    
Cr9   O33   S    
C12   C140  S    
C17   C95   S    
C13   C141  S    
C88   C120  S    
C62   C64   A    
Cr2   O3    S    
C19   C93   S    
Cr7   O51   S    
Cr12  O47   S    
Cr8   O52   S    
C77   C79   A    
C45   H37   S    
S2    O58   S    
C32   C54   A    
S8    O75   D    
C110  H6    S    
C7    O23   A    
C12   Br12  S    
C3    C25   S    
C13   Br13  S    
Cr8   O31   S    
S7    O71   D    
C99   S3    S    
Cr1   O10   S    
Cr6   O19   S    
C117  C141  S    
S5    O65   D    
Cr10  O50   S    
C134  C142  S    
C66   H52   S    
C123  H19   S    
C20   C100  S    
C96   O48   A    
C85   O29   A    
Cr5   O26   S    
C86   C118  S    
Cr4   O8    S    
Cr6   O50   S    
Cr1   O1    S    
C8    O24   A    
C10   Br10  S    
C22   C134  S    
Cr6   O28   S    
C102  C110  S    
C74   H10   S    
C16   C112  S    
C89   O1    A    
C21   C91   S    
C15   Br15  S    
C116  C124  S    
C123  C131  S    
C36   H44   S    
C121  C129  S    
C103  C127  S    
C88   O32   A    
C4    C26   S    
Cr12  O40   S    
C132  C140  S    
C99   C107  S    
C133  C141  S    
C23   C135  S    
C8    C30   S    
C108  C116  S    
Cr5   O17   S    
C136  C144  S    
Cr3   O6    S    
C132  H28   S    
C39   C53   A    
C6    O14   A    
C92   O4    A    
O55   H57   S    
C60   C68   A    
C81   C113  S    
Cr5   O25   S    
C37   H45   S    
S2    O56   D    
C124  H20   S    
C86   O38   A    
Cr9   O42   S    
C70   C78   A    
C18   C96   S    
Cr8   O23   S    
C98   S2    S    
C95   O47   A    
C106  C114  S    
C111  C119  S    
S3    O60   D    
S4    O63   D    
S5    O67   S    
C139  Br3   S    
C94   O6    A    
C65   C73   A    
C28   C50   A    
C58   C66   A    
C72   H54   S    
C13   C109  S    
S1    O53   D    
S6    O69   D    
C102  S6    S    
C21   C101  S    
C15   C23   S    
C12   C108  S    
C16   C24   S    
C89   O41   A    
C48   H40   S    
C84   O28   A    
Cr4   O15   S    
Cr11  O38   S    
S7    O73   S    
C53   C55   A    
C19   C131  S    
C107  H3    S    
C54   C56   A    
C17   C129  S    
C15   C111  S    
C111  H7    S    
C82   C114  S    
C130  H26   S    
C106  H2    S    
C24   C104  S    
C37   C55   A    
C25   C51   A    
C26   C52   A    
C87   O31   A    
C33   H41   S    
C125  C133  S    
O58   H58   S    
C38   C56   A    
C31   C53   A    
C107  C115  S    
C98   C122  S    
C9    C17   S    
Cr10  O36   S    
C125  H21   S    
C14   Br14  S    
C92   O44   A    
Cr9   O49   S    
C99   C123  S    
C61   C69   A    
C129  H25   S    
C115  C139  S    
C118  C142  S    
C75   H11   S    
C108  H4    S    
C118  C126  S    
C22   C102  S    
O67   H61   S    
C109  H5    S    
Cr7   O30   S    
Cr2   O11   S    
C17   C97   S    
C8    O16   A    
C11   Br11  S    
C82   O26   A    
C142  Br6   S    
C113  C137  S    
C64   C72   A    
C6    O22   A    
S1    O55   S    
Cr2   O4    S    
C18   C130  S    
C43   H35   S    
C114  C122  S    
C1    O17   A    
C77   H13   S    
C1    C27   S    
C5    O21   A    
C18   C98   S    
C5    C31   S    
C117  C125  S    
Cr3   O51   S    
C122  C130  S    
C100  S4    S    
Cr12  O48   S    
