data_mof_unit_11678.cif
_audit_creation_date              2013-03-05T15:56:02-0500
_audit_creation_method            fapswitch 2.2
_symmetry_space_group_name_H-M    P1
_symmetry_Int_Tables_number       1
_space_group_crystal_system       triclinic
_cell_length_a                    12.314884
_cell_length_b                    13.042333
_cell_length_c                    17.161097
_cell_angle_alpha                 104.606641
_cell_angle_beta                  75.38486
_cell_angle_gamma                 116.223793
_cell_volume                      2360.991087

loop_
_atom_site_label
_atom_site_type_symbol
_atom_site_description
_atom_site_fract_x
_atom_site_fract_y
_atom_site_fract_z
_atom_type_partial_charge
O1    O     O_R   0.025490 0.682370 0.523640 -0.520541
O2    O     O_R   0.194150 0.640180 0.491890 -0.615399
C1    C     C_R   0.144040 0.714754 0.507768 0.797971
O3    O     O_R   0.905900 0.523560 0.631310 -0.590056
O4    O     O_R   0.074570 0.481370 0.599560 -0.600485
C2    C     C_R   0.988883 0.504420 0.652575 0.798385
Cu1   Cu    Cu3+1 0.900140 0.524980 0.518800 0.984246
Cu2   Cu    Cu3+1 0.099860 0.475020 0.481200 0.969165
O5    O     O_R   0.805850 0.359820 0.508110 -0.597816
O6    O     O_R   0.974510 0.317630 0.476360 -0.529904
O7    O     O_R   0.925430 0.518630 0.400440 -0.581307
O8    O     O_R   0.094100 0.476440 0.368690 -0.601275
C3    C     C_R   0.856272 0.285252 0.488089 0.827570
C4    C     C_R   0.009327 0.492632 0.347448 0.805199
C5    C     C_R   0.986591 0.507436 0.738844 -0.042824
C6    C     C_R   0.073839 0.482692 0.760878 -0.174533
C7    C     C_R   0.070746 0.481527 0.841965 -0.050933
C8    C     C_R   0.980060 0.504277 0.901981 0.187867
C9    C     C_R   0.895917 0.533763 0.881242 -0.114451
C10   C     C_R   0.898439 0.534487 0.799685 -0.163241
C11   C     C_R   0.875931 0.409652 0.156220 -0.192550
C12   C     C_R   0.887091 0.436953 0.238035 -0.166712
C13   C     C_R   0.104138 0.478056 0.201125 -0.245457
C14   C     C_R   0.094836 0.452290 0.118019 0.388792
C15   C     C_R   0.978602 0.417564 0.096073 0.018620
C16   C     C_2   0.974932 0.498739 0.986783 -0.303922
C17   C     C_2   0.963881 0.403887 0.011635 -0.026710
C18   C     C_R   0.001126 0.471422 0.260978 -0.079436
H1    H     H_    0.143960 0.463034 0.715518 0.170486
H2    H     H_    0.805945 0.429626 0.283388 0.152214
H3    H     H_    0.191846 0.503660 0.219277 0.184594
H4    H     H_    0.826860 0.553377 0.927813 0.151482
H5    H     H_    0.787380 0.384840 0.139527 0.160280
H6    H     H_    0.831218 0.555243 0.784279 0.163460
H7    H     H_    0.986903 0.578146 0.030363 0.174612
H8    H     H_    0.137997 0.461348 0.857910 0.180619
C19   C     C_R   0.728385 0.969479 0.391790 -0.216525
H9    H     H_    0.548049 0.775410 0.339773 0.156017
H10   H     H_    0.759040 0.906402 0.349843 0.178715
C20   C     C_R   0.775463 0.161260 0.472259 -0.168561
C21   C     C_R   0.180323 0.923763 0.562052 0.347232
C22   C     C_R   0.262040 0.038201 0.580096 -0.151036
C23   C     C_R   0.386657 0.071744 0.552152 -0.251883
C24   C     C_R   0.433929 0.991969 0.501624 0.101372
C25   C     C_R   0.349983 0.877783 0.476226 0.041965
C26   C     C_R   0.561863 0.022287 0.474551 0.097099
C27   C     C_R   0.602814 0.941990 0.417648 0.082612
C28   C     C_R   0.518062 0.835445 0.386128 -0.194365
C29   C     C_R   0.393624 0.804689 0.413683 -0.152239
C30   C     C_R   0.650536 0.130069 0.502508 -0.282151
C31   C     C_R   0.815532 0.077944 0.419313 0.357447
C32   C     C_R   0.224287 0.840318 0.512834 -0.230749
H11   H     H_    0.625084 0.193131 0.547540 0.172010
H12   H     H_    0.442561 0.162058 0.569266 0.155851
H13   H     H_    0.228572 0.102118 0.617246 0.188678
H14   H     H_    0.332296 0.723881 0.383571 0.172749
C33   C     C_R   0.638344 0.668134 0.637625 -0.112031
H15   H     H_    0.816604 0.685823 0.648364 0.181478
H16   H     H_    0.433577 0.707232 0.657674 0.194258
N1    N     N_R   0.749710 0.562810 0.547300 -0.197769
C34   C     C_R   0.251749 0.353754 0.388119 0.151006
C35   C     C_R   0.350673 0.321788 0.364328 -0.208388
C36   C     C_R   0.449298 0.376531 0.407124 -0.207982
C37   C     C_R   0.450331 0.464707 0.474794 0.010243
C38   C     C_R   0.346321 0.493872 0.497042 0.284381
C39   C     C_R   0.549932 0.524527 0.521177 -0.036074
C40   C     C_R   0.542260 0.610252 0.590145 0.083885
C41   C     C_R   0.440624 0.638552 0.608762 -0.230673
C42   C     C_R   0.345434 0.581381 0.564049 -0.194218
C43   C     C_R   0.657889 0.503426 0.501694 0.021571
C44   C     C_R   0.742133 0.643258 0.613275 0.098190
N2    N     N_R   0.249640 0.437820 0.453210 -0.220651
H17   H     H_    0.671472 0.440391 0.450515 0.121802
H18   H     H_    0.175835 0.311011 0.354415 0.173713
H19   H     H_    0.522886 0.347668 0.386035 0.139108
H20   H     H_    0.350907 0.254281 0.312513 0.171835
H21   H     H_    0.272684 0.609656 0.584681 0.205833
N3    N     N_R   0.203600 0.464315 0.057903 0.127311
O9    O     O_R   0.196815 0.403208 0.985184 -0.343988
O10   O     O_R   0.311596 0.530287 0.077729 -0.345668
N4    N     N_R   0.943041 0.101363 0.392519 0.115953
O11   O     O_R   0.011883 0.122432 0.445916 -0.320004
O12   O     O_R   0.982850 0.075536 0.315562 -0.368794
N5    N     N_R   0.053048 0.894799 0.594378 0.127680
O13   O     O_R   0.019476 0.918956 0.672559 -0.334094
O14   O     O_R   0.977102 0.871612 0.545342 -0.305381
C45   C     C_2   0.633870 0.751990 0.713838 0.829301
O15   O     O_2   0.540280 0.732160 0.764497 -0.580413
O16   O     O_R   0.739562 0.851282 0.729519 -0.687978
H22   H     H_    0.726263 0.900982 0.783838 0.355859
C46   C     C_2   0.929611 0.285992 0.961458 0.924390
O17   O     O_2   0.888358 0.263266 0.898502 -0.578155
O18   O     O_R   0.940851 0.199163 0.988616 -0.717043
H23   H     H_    0.913895 0.122415 0.950359 0.349262

loop_
_geom_bond_atom_site_label_1
_geom_bond_atom_site_label_2
_geom_bond_distance
_ccdc_geom_bond_type
C45   O15   1.222850 D    
O18   H23   1.013930 S    
C21   C22   1.390333 A    
C42   H21   1.063043 S    
C9    C10   1.394435 A    
C8    C16   1.459340 S    
N4    O11   1.301190 A    
Cu1   Cu2   2.700664 S    
Cu1   O7    1.961704 S    
C16   C17   1.348633 D    
N5    O14   1.301219 A    
O4    C2    1.299816 A    
C19   C31   1.397546 A    
O7    C4    1.299767 A    
C38   C42   1.402782 A    
H15   C44   1.082586 S    
C11   H5    1.083966 S    
C5    C6    1.405195 A    
C8    C9    1.398429 A    
O5    C3    1.306504 A    
C3    C20   1.473744 S    
C2    C5    1.464458 S    
C6    C7    1.386160 A    
C13   C14   1.402413 A    
C17   C46   1.491976 S    
C7    H8    1.083222 S    
C25   C29   1.412535 A    
C19   C27   1.400274 A    
C31   N4    1.432843 S    
C21   C32   1.420322 A    
H9    C28   1.084170 S    
C10   H6    1.083073 S    
C39   C40   1.424539 A    
C12   C18   1.400380 A    
C11   C12   1.385265 A    
C35   H20   1.082574 S    
C33   C40   1.421551 A    
O3    Cu1   1.954906 S    
C9    H4    1.083308 S    
N4    O12   1.301075 A    
C24   C26   1.423759 A    
C5    C10   1.404920 A    
Cu2   N2    2.023515 S    
C30   H11   1.075602 S    
C40   C41   1.397101 A    
C14   C15   1.417391 A    
O3    C2    1.303627 A    
C46   O17   1.222943 D    
N3    O9    1.300628 A    
C41   C42   1.382690 A    
N1    C44   1.351124 A    
C6    H1    1.083131 S    
C21   N5    1.432043 S    
C33   C44   1.393603 A    
C33   C45   1.484990 S    
O1    C1    1.302457 A    
C37   C39   1.442400 A    
C23   C24   1.413803 A    
C35   C36   1.394129 A    
H16   C41   1.080358 S    
C46   O18   1.398622 S    
C23   H12   1.076372 S    
C27   C28   1.391739 A    
N1    C43   1.363064 A    
Cu2   O8    1.954906 S    
C43   H17   1.076316 S    
C7    C8    1.397965 A    
C13   C18   1.400737 A    
N5    O13   1.300877 A    
C34   N2    1.357711 A    
C14   N3    1.442766 S    
C28   C29   1.385505 A    
O8    C4    1.301178 A    
C45   O16   1.398191 S    
C22   C23   1.384760 A    
C20   C31   1.414026 A    
Cu1   N1    2.035517 S    
C24   C25   1.419846 A    
Cu1   O5    1.928652 S    
C11   C15   1.398050 A    
C26   C27   1.416721 A    
C12   H2    1.083572 S    
O1    Cu1   1.944695 S    
O2    Cu2   1.928651 S    
O6    C3    1.300220 A    
O4    Cu2   1.961703 S    
C1    C32   1.485716 S    
C34   H18   1.081194 S    
C15   C17   1.462200 S    
C38   N2    1.386787 A    
C26   C30   1.402263 A    
C25   C32   1.423075 A    
C37   C38   1.428861 A    
O2    C1    1.308790 A    
C19   H10   1.084494 S    
C29   H14   1.080281 S    
C39   C43   1.416918 A    
C36   H19   1.077594 S    
C22   H13   1.083627 S    
C20   C30   1.397219 A    
N3    O10   1.301645 A    
C34   C35   1.391620 A    
C36   C37   1.411477 A    
C16   H7    1.087974 S    
Cu2   O6    1.944696 S    
C4    C18   1.460354 S    
O16   H22   1.013885 S    
C13   H3    1.083402 S    
