data_mof_unit_49013.cif
_audit_creation_date              2013-03-05T16:04:53-0500
_audit_creation_method            fapswitch 2.2
_symmetry_space_group_name_H-M    P1
_symmetry_Int_Tables_number       1
_space_group_crystal_system       triclinic
_cell_length_a                    8.31613
_cell_length_b                    14.485586
_cell_length_c                    18.718887
_cell_angle_alpha                 96.958564
_cell_angle_beta                  91.204919
_cell_angle_gamma                 91.679144
_cell_volume                      2236.69467721

loop_
_atom_site_label
_atom_site_type_symbol
_atom_site_description
_atom_site_fract_x
_atom_site_fract_y
_atom_site_fract_z
_atom_type_partial_charge
P1    P     P_3+3 0.061800 0.409390 0.339760 0.508345
O1    O     O_2   0.887710 0.436190 0.327560 -0.342438
O2    O     O_3   0.135370 0.443490 0.416520 -0.349848
O3    O     O_3   0.634420 0.609440 0.364670 -0.359717
O4    O     O_2   0.750674 0.532972 0.242381 -0.365266
O5    O     O_3   0.056356 0.288378 0.316403 -0.628339
O6    O     O_3   0.679337 0.707094 0.245845 -0.516504
H1    H     H_    0.655309 0.827332 0.314880 0.141725
C1    C     C_3   0.504744 0.827752 0.218887 -0.149527
H2    H     H_    0.459045 0.777289 0.173132 0.118368
P2    P     P_3+3 0.622760 0.718740 0.547830 0.477431
P3    P     P_3+3 0.064882 0.777346 0.392322 0.545376
O7    O     O_2   0.795290 0.730930 0.525800 -0.383498
O8    O     O_3   0.044470 0.660110 0.398750 -0.404201
O9    O     O_2   0.929950 0.824712 0.437347 -0.335591
O10   O     O_3   0.618919 0.755656 0.640378 -0.577717
O11   O     O_3   0.015488 0.794306 0.303580 -0.447879
C2    C     C_3   0.092343 0.726956 0.257000 0.474256
H3    H     H_    0.222803 0.726259 0.270273 -0.051146
C3    C     C_3   0.073071 0.749429 0.180076 -0.835075
H4    H     H_    0.946891 0.734850 0.160705 0.291477
H5    H     H_    0.106080 0.823715 0.177201 0.287650
C4    C     C_3   0.213628 0.748971 0.617209 0.277935
H6    H     H_    0.122455 0.758165 0.574635 0.115601
C5    C     C_3   0.287736 0.843313 0.647414 -0.598790
H7    H     H_    0.340408 0.879587 0.604359 0.212801
Ba1   Ba    Ba6+2 0.843240 0.541620 0.463500 1.641850
C6    C     C_3   0.955499 0.242359 0.359893 0.688295
H8    H     H_    0.849901 0.283690 0.375275 0.086133
C7    C     C_3   0.895946 0.149742 0.317971 -0.727653
H9    H     H_    0.821281 0.162376 0.270590 0.272463
H10   H     H_    0.998595 0.107595 0.297982 0.280255
C8    C     C_3   0.732776 0.714453 0.681550 0.072737
H11   H     H_    0.831472 0.683100 0.649173 0.098458
C9    C     C_3   0.802618 0.790453 0.739762 0.359619
P4    P     P_3+3 0.127890 0.590690 0.660240 0.483446
O12   O     O_2   0.301980 0.563840 0.672490 -0.368860
O13   O     O_3   0.054330 0.556590 0.583490 -0.394166
O14   O     O_3   0.555270 0.390630 0.635330 -0.347681
O15   O     O_3   0.138744 0.712191 0.673839 -0.565724
P5    P     P_3+3 0.112301 0.219634 0.606878 0.599155
O16   O     O_3   0.637720 0.384870 0.467990 -0.376643
O17   O     O_3   0.145220 0.339960 0.601250 -0.320042
O18   O     O_2   0.260208 0.170670 0.572792 -0.250572
O19   O     O_3   0.122189 0.197689 0.696863 -0.588633
Ba2   Ba    Ba6+2 0.346570 0.458460 0.536510 1.667138
P6    P     P_3+3 0.619010 0.599243 0.271387 0.487566
C10   C     C_3   0.580287 0.777169 0.277659 0.286542
H12   H     H_    0.482473 0.751717 0.310586 -0.028523
H13   H     H_    0.399728 0.865595 0.240824 0.149505
O20   O     O_3   0.551980 0.615210 0.532020 -0.374792
C11   C     C_3   0.450343 0.268778 0.315013 0.761636
H14   H     H_    0.377700 0.320362 0.347919 0.023891
C12   C     C_3   0.343162 0.188118 0.280067 -0.735576
H15   H     H_    0.274118 0.159625 0.322303 0.263813
H16   H     H_    0.417720 0.132856 0.252555 0.287493
P7    P     P_3+3 0.571453 0.267344 0.448086 0.445495
O21   O     O_2   0.394410 0.269100 0.474240 -0.305366
O22   O     O_3   0.570756 0.230233 0.355140 -0.644197
H17   H     H_    0.152694 0.705838 0.144282 0.178414
C13   C     C_3   0.986118 0.231385 0.734670 0.682108
H18   H     H_    0.906349 0.272744 0.703041 -0.006633
C14   C     C_3   0.886261 0.148619 0.755516 -0.651118
H19   H     H_    0.793067 0.172112 0.794573 0.239606
H20   H     H_    0.823480 0.111521 0.707349 0.243219
H21   H     H_    0.964968 0.099756 0.780085 0.271379
P8    P     P_3+3 0.580772 0.406796 0.729253 0.446734
C15   C     C_3   0.460396 0.241953 0.748720 0.764130
O23   O     O_2   0.424561 0.445497 0.763350 -0.396286
O24   O     O_3   0.604052 0.295792 0.756259 -0.637521
H22   H     H_    0.364939 0.276817 0.721404 0.136551
H23   H     H_    0.503078 0.193454 0.853102 0.253255
C16   C     C_3   0.405809 0.225411 0.823806 -0.715606
H24   H     H_    0.296801 0.178876 0.820370 0.260167
H25   H     H_    0.376462 0.292518 0.854608 0.282328
C17   C     C_R   0.998866 0.469788 0.052015 0.023705
C18   C     C_R   0.914577 0.419435 0.099710 0.040052
C19   C     C_R   0.765721 0.376680 0.078005 -0.200188
C20   C     C_R   0.696794 0.384935 0.010186 0.325698
C21   C     C_R   0.782459 0.433618 0.960735 -0.036989
C22   C     C_R   0.935017 0.475058 0.981659 0.024172
C23   C     C_R   0.723289 0.437628 0.890048 -0.128484
C24   C     C_R   0.815321 0.477753 0.838516 0.008301
C25   C     C_R   0.968130 0.519324 0.859696 0.112735
C26   C     C_R   0.026019 0.519255 0.931774 0.046914
C27   C     C_R   0.762964 0.473022 0.765304 0.228762
C28   C     C_R   0.864011 0.504664 0.714687 -0.517047
C29   C     C_R   0.014251 0.545839 0.733998 0.272493
C30   C     C_R   0.066552 0.556715 0.807962 0.050143
C31   C     C_R   0.149350 0.512027 0.073991 0.020442
C32   C     C_R   0.209869 0.509386 0.145513 0.034045
C33   C     C_R   0.119167 0.463034 0.195130 -0.043210
C34   C     C_R   0.978767 0.412891 0.168909 -0.050404
H26   H     H_    0.824465 0.496872 0.658738 0.173279
H27   H     H_    0.607386 0.405991 0.874391 0.196440
C35   C     C_R   0.215496 0.600392 0.831691 -0.035489
C36   C     C_R   0.272849 0.600371 0.902914 0.077089
C37   C     C_R   0.178811 0.559183 0.953088 0.040447
C38   C     C_R   0.239482 0.556524 0.024299 0.079836
C39   C     C_R   0.425825 0.638800 0.924241 -0.099582
C40   C     C_R   0.485782 0.635931 0.994301 -0.155196
C41   C     C_R   0.393660 0.594922 0.044737 0.131708
C42   C     C_R   0.362233 0.551409 0.166573 -0.001632
C43   C     C_R   0.454587 0.590903 0.114800 -0.269983
C44   C     C_R   0.417086 0.552760 0.238821 0.218218
C45   C     C_R   0.318841 0.515050 0.289097 -0.446578
C46   C     C_R   0.172128 0.468056 0.268871 0.229510
H28   H     H_    0.500264 0.670018 0.886319 0.198315
H29   H     H_    0.605011 0.665310 0.008890 0.165635
H30   H     H_    0.574126 0.619767 0.128312 0.181350
H31   H     H_    0.361891 0.517504 0.344255 0.164912
C47   C     C_R   0.698130 0.935800 0.528629 0.015161
C48   C     C_R   0.511868 0.799223 0.493770 0.256161
C49   C     C_R   0.366725 0.765468 0.459609 -0.559504
C50   C     C_R   0.265516 0.823473 0.425989 0.108257
C51   C     C_R   0.315806 0.915076 0.419153 0.270897
C52   C     C_R   0.460810 0.952418 0.453726 -0.074606
C53   C     C_R   0.558436 0.895086 0.492265 -0.084376
H32   H     H_    0.327992 0.694034 0.462235 0.180618
C54   C     C_R   0.641758 0.088171 0.491877 -0.018065
C55   C     C_R   0.743137 0.030456 0.527427 -0.026668
C56   C     C_R   0.679640 0.185423 0.497598 0.207388
C57   C     C_R   0.812226 0.222617 0.538649 -0.383607
C58   C     C_R   0.923701 0.165153 0.564933 0.129936
C59   C     C_R   0.888813 0.068872 0.560918 0.265663
C60   C     C_R   0.504052 0.047697 0.454010 -0.003262
H33   H     H_    0.835701 0.297099 0.545574 0.175418
H34   H     H_    0.772065 0.894338 0.559082 0.183728
H35   H     H_    0.381838 0.834678 0.688396 0.284257
H36   H     H_    0.196025 0.887022 0.675153 0.292059
N1    N     N_R   0.045620 0.227647 0.424248 0.177226
O25   O     O_R   0.081883 0.299241 0.470239 -0.362752
O26   O     O_R   0.113392 0.149603 0.431068 -0.401606
H37   H     H_    0.822198 0.109360 0.352866 0.222201
H38   H     H_    0.669884 0.659026 0.707402 0.107542
N2    N     N_R   0.620595 0.893003 0.193280 0.297433
O27   O     O_R   0.737242 0.862510 0.152600 -0.329288
O28   O     O_R   0.602458 0.982175 0.207494 -0.340566
H39   H     H_    0.891167 0.833069 0.713140 0.109638
N3    N     N_R   0.884825 0.750612 0.797954 0.205020
O29   O     O_R   0.031126 0.778807 0.817065 -0.357895
O30   O     O_R   0.803936 0.701053 0.839214 -0.445628
N4    N     N_R   0.676675 0.851014 0.769929 0.270932
O31   O     O_R   0.684551 0.939535 0.763926 -0.317743
O32   O     O_R   0.557701 0.817427 0.803937 -0.354135
N5    N     N_R   0.524844 0.313783 0.257702 0.214369
O33   O     O_R   0.436589 0.342166 0.207013 -0.440532
O34   O     O_R   0.679210 0.311603 0.250069 -0.422798
H40   H     H_    0.258421 0.210352 0.239386 0.247541
N6    N     N_R   0.042494 0.292441 0.798699 0.209435
O35   O     O_R   0.137335 0.362862 0.790688 -0.440551
O36   O     O_R   0.009373 0.274909 0.863509 -0.390722
N7    N     N_R   0.489781 0.153801 0.704777 0.237112
O37   O     O_R   0.554511 0.155281 0.642482 -0.418121
O38   O     O_R   0.444632 0.074099 0.724587 -0.326839
H41   H     H_    0.037008 0.656814 0.260069 0.106381
H42   H     H_    0.699910 0.338331 0.114703 0.232044
N8    N     N_R   0.541124 0.341843 0.992577 0.231732
O39   O     O_R   0.424381 0.391218 0.972384 -0.421818
O40   O     O_R   0.507409 0.259690 0.010759 -0.322815
H43   H     H_    0.916972 0.369307 0.202393 0.207833
H44   H     H_    0.289775 0.633960 0.795215 0.170649
N9    N     N_R   0.223074 0.968354 0.374458 0.245946
O41   O     O_R   0.069414 0.977033 0.383477 -0.316617
O42   O     O_R   0.285718 0.992538 0.316336 -0.454704
N10   N     N_R   0.001107 0.010626 0.590769 0.237353
O43   O     O_R   0.129872 0.986663 0.556006 -0.381366
O44   O     O_R   0.967209 0.974577 0.649081 -0.457413
H45   H     H_    0.426314 0.091246 0.426822 0.187689
H46   H     H_    0.309292 0.704090 0.594139 0.123745

loop_
_geom_bond_atom_site_label_1
_geom_bond_atom_site_label_2
_geom_bond_distance
_ccdc_geom_bond_type
C17   C31   1.407905 A    
N10   O44   1.298470 A    
C28   C29   1.390161 A    
C14   H20   1.104838 S    
C40   C41   1.403853 A    
C16   H25   1.104983 S    
C16   H24   1.109747 S    
C51   N9    1.433352 S    
N9    O41   1.300222 A    
C13   N6    1.460741 S    
C5    H35   1.104669 S    
O3    Ba1   2.794374 S    
C20   N8    1.434935 S    
C49   C50   1.399188 A    
P7    O21   1.561255 D    
C57   C58   1.385526 A    
C18   C19   1.397862 A    
P4    C29   1.859490 S    
O4    P6    1.541276 D    
P5    C58   1.850610 S    
P4    O12   1.529867 D    
N9    O42   1.297423 A    
N3    O30   1.300877 A    
C2    H3    1.108512 S    
C7    H9    1.108383 S    
O10   C8    1.400220 S    
C54   C60   1.408351 A    
N4    O31   1.300564 A    
P7    O22   1.757512 S    
C45   C46   1.401711 A    
Ba1   O13   2.804880 S    
C40   H29   1.083758 S    
C4    O15   1.393031 S    
C28   H26   1.082779 S    
C51   C52   1.417635 A    
P1    O1    1.529502 D    
O16   Ba2   2.931629 S    
O19   C13   1.414900 S    
C13   C14   1.532281 S    
C39   C40   1.398970 A    
C26   C37   1.409934 A    
C33   C46   1.432778 A    
C9    H39   1.111321 S    
P7    C56   1.835922 S    
O5    C6    1.392133 S    
C11   C12   1.522100 S    
P6    C44   1.853651 S    
P3    O11   1.750604 S    
C4    H6    1.110828 S    
P4    Ba2   3.412722 S    
O1    Ba1   2.841725 S    
P2    Ba1   3.442753 S    
O8    Ba1   2.763438 S    
N7    O38   1.302152 A    
C1    H2    1.109363 S    
C49   H32   1.081835 S    
O12   Ba2   2.842200 S    
P3    C50   1.848229 S    
C48   C53   1.434392 A    
C14   H21   1.110995 S    
Ba2   O21   2.889584 S    
N8    O40   1.301246 A    
P5    O17   1.772510 S    
C5    H36   1.103396 S    
O16   P7    1.767333 S    
C54   C56   1.425243 A    
C36   C37   1.410306 A    
C12   H40   1.109241 S    
N5    O34   1.295513 A    
C45   H31   1.081805 S    
N3    O29   1.300848 A    
C12   H16   1.110449 S    
C39   H28   1.082343 S    
C47   H34   1.074058 S    
N5    O33   1.300357 A    
P1    O5    1.753509 S    
C7    H10   1.109092 S    
P4    O15   1.746929 S    
C17   C18   1.405202 A    
C21   C23   1.410396 A    
C15   N7    1.462572 S    
C32   C33   1.425931 A    
C19   C20   1.401677 A    
C21   C22   1.414508 A    
C7    H37   1.110568 S    
C5    H7    1.105195 S    
Ba2   O20   2.811713 S    
C14   H19   1.109045 S    
P8    O23   1.549233 D    
O6    P6    1.751045 S    
H1    C10   1.111381 S    
C55   C59   1.419275 A    
C8    C9    1.543357 S    
C11   O22   1.407639 S    
C9    N3    1.459827 S    
C47   C53   1.410699 A    
P2    O10   1.751296 S    
C8    H38   1.110195 S    
C19   H42   1.081882 S    
C57   H33   1.082437 S    
C24   C25   1.418028 A    
P3    O9    1.544351 D    
C34   H43   1.070482 S    
C35   C36   1.406532 A    
C24   C27   1.422254 A    
O11   C2    1.405140 S    
C42   C44   1.415825 A    
C11   H14   1.110528 S    
C25   C26   1.423094 A    
C41   C43   1.404431 A    
P1    C46   1.898317 S    
O14   Ba2   2.793692 S    
Ba1   Ba2   4.552317 S    
N2    O28   1.300717 A    
C10   H12   1.111783 S    
C3    H5    1.110643 S    
C23   C24   1.412418 A    
N8    O39   1.299133 A    
P5    O18   1.548425 D    
N6    O36   1.302587 A    
C3    H17   1.107590 S    
C25   C30   1.426725 A    
N1    O25   1.289215 A    
C31   C38   1.410263 A    
C36   C39   1.403910 A    
C2    H41   1.111425 S    
C54   C55   1.416008 A    
P1    Ba1   3.412277 S    
C48   C49   1.400754 A    
C52   C60   1.415369 A    
N4    O32   1.301605 A    
C12   H15   1.099715 S    
C6    H8    1.101003 S    
P8    C27   1.840185 S    
C11   N5    1.460662 S    
C23   H27   1.074547 S    
C3    H4    1.108891 S    
C27   C28   1.389281 A    
O14   P8    1.752849 S    
C1    H13   1.104719 S    
C32   C42   1.416717 A    
H23   C16   1.110929 S    
N1    O26   1.296644 A    
C17   C22   1.421096 A    
C44   C45   1.407955 A    
O2    Ba2   2.805436 S    
P8    O24   1.757733 S    
O6    C10   1.409510 S    
C6    N1    1.446326 S    
C30   C35   1.412326 A    
O2    Ba1   2.947070 S    
C59   N10   1.426414 S    
C15   C16   1.530049 S    
C6    C7    1.533175 S    
C60   H45   1.078307 S    
C52   C53   1.424538 A    
P4    O13   1.567042 S    
C43   H30   1.080034 S    
P2    O7    1.512452 D    
Ba1   O16   2.812248 S    
C31   C32   1.425608 A    
N10   O43   1.298827 A    
C4    H46   1.103992 S    
C15   H22   1.102576 S    
C18   C34   1.405499 A    
C33   C34   1.404124 A    
Ba1   O20   2.932401 S    
C8    H11   1.106038 S    
C2    C3    1.520528 S    
C4    C5    1.521786 S    
C13   H18   1.114571 S    
P2    C48   1.882362 S    
O17   Ba2   2.764028 S    
O13   Ba2   2.947844 S    
P2    O20   1.586358 S    
C20   C21   1.420625 A    
C1    N2    1.458496 S    
P3    O8    1.720678 S    
C47   C55   1.413644 A    
C38   C41   1.409151 A    
C29   C30   1.431320 A    
C1    C10   1.528103 S    
C15   O24   1.402502 S    
C37   C38   1.420634 A    
C9    N4    1.464281 S    
C42   C43   1.412902 A    
C56   C57   1.387700 A    
P5    O19   1.752285 S    
N6    O35   1.296160 A    
O7    Ba1   2.889253 S    
P1    O2    1.567236 S    
N7    O37   1.296828 A    
C22   C26   1.414482 A    
N2    O27   1.300254 A    
C50   C51   1.401024 A    
C35   H44   1.079257 S    
C58   C59   1.408875 A    
O3    P6    1.736162 S    
