data_mof_unit_61832.cif
_audit_creation_date              2012-12-10T19:34:11-0500
_audit_creation_method            fapswitch 2.2
_symmetry_space_group_name_H-M    P1
_symmetry_Int_Tables_number       1
_space_group_crystal_system       triclinic
_cell_length_a                    23.681175
_cell_length_b                    23.910052
_cell_length_c                    16.416212
_cell_angle_alpha                 89.952372
_cell_angle_beta                  94.403869
_cell_angle_gamma                 89.985186
_cell_volume                      9267.70979713

loop_
_atom_site_label
_atom_site_type_symbol
_atom_type_description
_atom_site_fract_x
_atom_site_fract_y
_atom_site_fract_z
_atom_type_partial_charge
C1    C     C_R   0.425663 0.077670 0.488320 0.907104
C2    C     C_R   0.460619 0.009600 0.151767 0.282019
C3    C     C_R   0.039382 0.490401 0.848233 0.282017
C4    C     C_R   0.960619 0.509600 0.151767 0.282017
C5    C     C_R   0.487244 0.990273 0.883838 -0.012275
C6    C     C_R   0.512756 0.009726 0.116162 -0.012280
C7    C     C_R   0.987244 0.490273 0.883838 -0.012277
C8    C     C_R   0.012756 0.509725 0.116162 -0.012283
C9    C     C_R   0.436821 0.993697 0.833256 -0.256194
C10   C     C_R   0.563179 0.006299 0.166744 -0.256195
C11   C     C_R   0.936821 0.493698 0.833256 -0.256189
C12   C     C_R   0.574342 0.922333 0.511681 0.907115
C13   C     C_R   0.063179 0.506299 0.166744 -0.256190
C14   C     C_R   0.438993 0.998391 0.748652 -0.062899
C15   C     C_R   0.561007 0.001606 0.251348 -0.062913
C16   C     C_R   0.938993 0.498392 0.748652 -0.062884
C17   C     C_R   0.061007 0.501605 0.251348 -0.062896
C18   C     C_2   0.484075 0.984409 0.972943 -0.055339
C19   C     C_2   0.515926 0.015590 0.027058 -0.055331
C20   C     C_2   0.984075 0.484409 0.972942 -0.055336
C21   C     C_2   0.015926 0.515589 0.027058 -0.055328
C22   C     C_R   0.390022 0.873089 0.481586 -0.086133
C23   C     C_R   0.574346 0.077651 0.511637 0.906487
C24   C     C_R   0.609957 0.126925 0.518410 -0.086119
C25   C     C_R   0.609951 0.873032 0.518555 -0.088185
C26   C     C_R   0.390095 0.126999 0.481452 -0.088146
C27   C     C_R   0.890038 0.373078 0.481589 -0.086123
C28   C     C_R   0.109941 0.626936 0.518407 -0.086109
C29   C     C_R   0.109929 0.373017 0.518552 -0.088168
C30   C     C_R   0.890118 0.627016 0.481457 -0.088130
C31   C     C_R   0.389250 0.837002 0.548692 -0.163751
C32   C     C_R   0.610701 0.163021 0.451310 -0.163745
C33   C     C_R   0.610675 0.836945 0.451530 -0.162725
C34   C     C_R   0.425651 0.922351 0.488363 0.906505
C35   C     C_R   0.389443 0.163112 0.548458 -0.162714
C36   C     C_R   0.889288 0.336984 0.548690 -0.163747
C37   C     C_R   0.110662 0.663040 0.451313 -0.163740
C38   C     C_R   0.110617 0.336917 0.451536 -0.162721
C39   C     C_R   0.889500 0.663140 0.548454 -0.162706
C40   C     C_R   0.354026 0.790930 0.544649 -0.163933
C41   C     C_R   0.645903 0.209109 0.455350 -0.163945
C42   C     C_R   0.645937 0.790880 0.455599 -0.163035
C43   C     C_R   0.354231 0.209215 0.544393 -0.163057
C44   C     C_R   0.854081 0.290899 0.544649 -0.163936
C45   C     C_R   0.925666 0.577673 0.488320 0.907101
C46   C     C_R   0.145847 0.709141 0.455352 -0.163947
C47   C     C_R   0.145854 0.290833 0.455604 -0.163042
C48   C     C_R   0.854313 0.709262 0.544392 -0.163064
C49   C     C_R   0.318720 0.781215 0.474059 0.101993
C50   C     C_R   0.681216 0.218832 0.525931 0.101997
C51   C     C_R   0.681333 0.781174 0.526132 0.100424
C52   C     C_R   0.318813 0.218933 0.473886 0.100444
C53   C     C_R   0.818770 0.281179 0.474066 0.101997
C54   C     C_R   0.181166 0.718868 0.525925 0.102001
C55   C     C_R   0.181262 0.281122 0.526124 0.100434
C56   C     C_R   0.074339 0.422331 0.511681 0.907110
C57   C     C_R   0.818886 0.718987 0.473896 0.100452
C58   C     C_R   0.321376 0.814856 0.404410 0.508124
C59   C     C_R   0.678586 0.185182 0.595576 0.508108
C60   C     C_R   0.678697 0.814786 0.595736 0.508541
C61   C     C_R   0.321383 0.185294 0.404297 0.508499
C62   C     C_R   0.821405 0.314827 0.404421 0.508111
C63   C     C_R   0.178558 0.685210 0.595565 0.508093
C64   C     C_R   0.178658 0.314747 0.595720 0.508519
C65   C     C_R   0.821425 0.685336 0.404313 0.508479
C66   C     C_R   0.357948 0.860958 0.408457 -0.272840
C67   C     C_R   0.074344 0.577652 0.511636 0.906481
C68   C     C_R   0.642036 0.139064 0.591533 -0.272837
C69   C     C_R   0.642079 0.860877 0.591668 -0.269859
C70   C     C_R   0.357951 0.139165 0.408358 -0.269837
C71   C     C_R   0.857960 0.360942 0.408465 -0.272840
C72   C     C_R   0.142024 0.639079 0.591524 -0.272836
C73   C     C_R   0.142065 0.360857 0.591655 -0.269851
C74   C     C_R   0.857969 0.639188 0.408371 -0.269830
C75   C     C_2   0.272267 0.742478 0.479399 0.287059
C76   C     C_2   0.727661 0.257576 0.520574 0.287039
C77   C     C_2   0.727849 0.742498 0.520734 0.287134
C78   C     C_R   0.925653 0.422350 0.488363 0.906501
C79   C     C_2   0.272317 0.257627 0.479324 0.287082
C80   C     C_2   0.772323 0.242436 0.479419 0.287045
C81   C     C_2   0.227605 0.757618 0.520555 0.287026
C82   C     C_2   0.227767 0.242437 0.520707 0.287111
C83   C     C_2   0.772399 0.757689 0.479353 0.287058
C84   C     C_R   0.539597 0.996761 0.763509 0.451517
C85   C     C_R   0.460404 0.003241 0.236491 0.451524
C86   C     C_R   0.039597 0.496761 0.763509 0.451521
C87   C     C_R   0.960403 0.503242 0.236491 0.451527
C88   C     C_R   0.539381 0.990402 0.848233 0.282017
Cl1   Cl    Cl    0.396019 0.022788 0.093176 -0.520847
Cl2   Cl    Cl    0.277746 0.676402 0.432406 -0.511263
Cl3   Cl    Cl    0.277594 0.323711 0.432136 -0.508146
Cl4   Cl    Cl    0.722573 0.676413 0.567922 -0.508172
Cl5   Cl    Cl    0.604978 0.999314 0.719501 -0.536408
Cl6   Cl    Cl    0.395022 0.000693 0.280498 -0.536393
Cl7   Cl    Cl    0.104978 0.499313 0.719501 -0.536381
Cl8   Cl    Cl    0.895022 0.500694 0.280499 -0.536362
Cl9   Cl    Cl    0.603982 0.977215 0.906823 -0.520861
Cl10  Cl    Cl    0.896019 0.522789 0.093176 -0.520842
Cl11  Cl    Cl    0.103982 0.477214 0.906823 -0.520855
Cl12  Cl    Cl    0.222126 0.823694 0.567546 -0.511235
Cl13  Cl    Cl    0.777802 0.176360 0.432427 -0.511238
Cl14  Cl    Cl    0.777678 0.823774 0.432170 -0.508121
Cl15  Cl    Cl    0.222492 0.176353 0.567897 -0.508146
Cl16  Cl    Cl    0.722181 0.323652 0.567567 -0.511259
H1    H     H_    0.415103 0.844953 0.604831 0.179567
H2    H     H_    0.359580 0.888424 0.356191 0.201248
H3    H     H_    0.359509 0.111697 0.356151 0.204997
H4    H     H_    0.640469 0.888325 0.643889 0.205028
H5    H     H_    0.140428 0.611599 0.643783 0.201227
H6    H     H_    0.859577 0.388414 0.356202 0.201235
H7    H     H_    0.859503 0.611712 0.356169 0.204979
H8    H     H_    0.140480 0.388315 0.643869 0.205011
H9    H     H_    0.648366 0.235258 0.401768 0.194670
H10   H     H_    0.351544 0.764788 0.598233 0.194681
H11   H     H_    0.351825 0.235362 0.597927 0.195425
H12   H     H_    0.584843 0.155065 0.395178 0.179564
H13   H     H_    0.648392 0.764751 0.402056 0.195459
H14   H     H_    0.148295 0.735295 0.401772 0.194661
H15   H     H_    0.851614 0.264752 0.598231 0.194673
H16   H     H_    0.851930 0.735416 0.597923 0.195409
H17   H     H_    0.148285 0.264695 0.402065 0.195444
H18   H     H_    0.599760 0.999927 0.290714 0.183452
H19   H     H_    0.400240 0.000068 0.709286 0.183456
H20   H     H_    0.099760 0.499926 0.290714 0.183458
H21   H     H_    0.900240 0.500069 0.709286 0.183462
H22   H     H_    0.546450 0.045080 0.005881 0.192573
H23   H     H_    0.584769 0.844902 0.395416 0.180074
H24   H     H_    0.453551 0.954919 0.994120 0.192567
H25   H     H_    0.046450 0.545080 0.005881 0.192574
H26   H     H_    0.953550 0.454919 0.994119 0.192568
H27   H     H_    0.396111 0.992581 0.859137 0.210621
H28   H     H_    0.603890 0.007413 0.140864 0.210622
H29   H     H_    0.896111 0.492582 0.859137 0.210622
H30   H     H_    0.103890 0.507413 0.140863 0.210622
H31   H     H_    0.292966 0.831594 0.292778 0.355351
H32   H     H_    0.707023 0.168443 0.707196 0.355351
H33   H     H_    0.707175 0.831495 0.707303 0.359508
H34   H     H_    0.415366 0.155147 0.604553 0.180057
H35   H     H_    0.292832 0.168573 0.292766 0.359503
H36   H     H_    0.792973 0.331567 0.292799 0.355349
H37   H     H_    0.207017 0.668468 0.707175 0.355348
H38   H     H_    0.207172 0.331463 0.707269 0.359505
H39   H     H_    0.792842 0.668613 0.292797 0.359498
H40   H     H_    0.915145 0.344939 0.604824 0.179563
H41   H     H_    0.084799 0.655080 0.395186 0.179560
H42   H     H_    0.084703 0.344878 0.395432 0.180065
H43   H     H_    0.915429 0.655169 0.604542 0.180050
H44   H     H_    0.640423 0.111590 0.643795 0.201240
N1    N     N_R   0.489810 0.000000 0.715580 -0.156325
N2    N     N_R   0.510190 0.000000 0.284420 -0.156324
N3    N     N_R   0.989810 0.500000 0.715580 -0.156331
N4    N     N_R   0.010190 0.500000 0.284420 -0.156330
O1    O     O_R   0.445750 0.057890 0.422600 -0.576234
O2    O     O_R   0.560780 0.942100 0.438960 -0.622553
O3    O     O_R   0.560780 0.057900 0.438960 -0.623272
O4    O     O_R   0.439220 0.942100 0.561040 -0.623279
O5    O     O_R   0.939220 0.557900 0.561040 -0.622528
O6    O     O_R   0.060780 0.442100 0.438960 -0.622544
O7    O     O_R   0.060780 0.557900 0.438960 -0.623267
O8    O     O_R   0.939220 0.442100 0.561040 -0.623274
O9    O     O_3   0.285972 0.803654 0.335538 -0.712961
O10   O     O_3   0.713996 0.196391 0.664438 -0.712988
O11   O     O_3   0.714170 0.803579 0.664571 -0.709309
O12   O     O_R   0.554250 0.942110 0.577400 -0.576243
O13   O     O_3   0.285888 0.196512 0.335488 -0.709383
O14   O     O_3   0.785995 0.303620 0.335556 -0.712985
O15   O     O_3   0.213975 0.696424 0.664420 -0.713012
O16   O     O_3   0.214143 0.303535 0.664542 -0.709346
O17   O     O_3   0.785921 0.696562 0.335515 -0.709419
O18   O     O_R   0.554250 0.057890 0.577400 -0.576029
O19   O     O_R   0.445750 0.942110 0.422600 -0.576025
O20   O     O_R   0.945750 0.557890 0.422600 -0.576233
O21   O     O_R   0.054250 0.442110 0.577400 -0.576241
O22   O     O_R   0.054250 0.557890 0.577400 -0.576033
O23   O     O_R   0.945750 0.442110 0.422600 -0.576029
O24   O     O_R   0.439220 0.057900 0.561040 -0.622535
Zn1   Zn    Zn3+2 0.504350 0.000000 0.407560 1.012698
Zn2   Zn    Zn3+2 0.495650 0.000000 0.592440 1.012695
Zn3   Zn    Zn3+2 0.004350 0.500000 0.407560 1.012700
Zn4   Zn    Zn3+2 0.995650 0.500000 0.592440 1.012697

loop_
_geom_bond_atom_site_label_1
_geom_bond_atom_site_label_2
_ccdc_geom_bond_type
C61   C70   A    
C76   Cl16  S    
C1    O24   A    
C8    C13   A    
C15   H18   S    
C23   O3    A    
C31   H1    S    
C13   H30   S    
C30   C45   S    
C4    C8    A    
C27   C78   S    
C51   C77   S    
C27   C71   A    
C48   C57   A    
C77   Cl4   S    
C4    C87   A    
H32   O10   S    
C7    C11   A    
C6    C19   S    
O18   Zn2   S    
C50   C59   A    
C28   C37   A    
C80   Cl13  S    
C83   Cl14  S    
C3    C7    A    
C52   C61   A    
C11   H29   S    
C35   H34   S    
C30   C74   A    
C43   C52   A    
C47   H17   S    
C29   C73   A    
C54   C63   A    
C77   C83   D    
C67   O22   A    
C40   C49   A    
C71   H6    S    
C33   H23   S    
C60   O11   S    
C31   C40   A    
C46   H14   S    
C2    C85   A    
C18   C19   D    
C11   C16   A    
H35   O13   S    
C85   N2    A    
C22   C66   A    
C56   O6    A    
C75   Cl2   S    
C43   H11   S    
C5    C88   A    
O4    Zn2   S    
C44   C53   A    
C58   C66   A    
O8    Zn4   S    
C4    Cl10  S    
C62   C71   A    
C32   C41   A    
C49   C75   S    
C52   C79   S    
C35   C43   A    
C16   H21   S    
C79   Cl3   S    
C88   Cl9   S    
C68   H44   S    
C42   C51   A    
C18   H24   S    
C84   N1    A    
C29   C56   S    
O24   Zn2   S    
C55   C64   A    
C3    C86   A    
H31   O9    S    
C28   C72   A    
C66   H2    S    
C69   H4    S    
C9    H27   S    
H36   O14   S    
C22   C34   S    
O1    Zn1   S    
C63   C72   A    
H37   O15   S    
C22   C31   A    
C84   C88   A    
C28   C67   S    
C45   O5    A    
H39   O17   S    
C48   H16   S    
C41   H9    S    
C74   H7    S    
H33   O11   S    
C38   H42   S    
C53   C80   S    
C75   C81   D    
O23   Zn3   S    
C5    C18   S    
C44   H15   S    
C24   C68   A    
C49   C58   A    
C2    C6    A    
C65   O17   S    
O5    Zn4   S    
C29   C38   A    
C2    Cl1   S    
C9    C14   A    
C24   C32   A    
C5    C9    A    
C50   C76   S    
C59   C68   A    
C12   O12   A    
C85   Cl6   S    
C17   H20   S    
C23   C24   S    
C57   C65   A    
C87   Cl8   S    
C46   C54   A    
C57   C83   S    
C8    C21   S    
C32   H12   S    
C55   C82   S    
C1    O1    A    
C21   H25   S    
C38   C47   A    
N2    Zn1   S    
O20   Zn3   S    
C78   O8    A    
C62   O14   S    
C64   C73   A    
C87   N4    A    
C78   O23   A    
C26   C70   A    
C36   C44   A    
C17   N4    A    
C25   C69   A    
C33   C42   A    
C45   O20   A    
O22   Zn4   S    
C41   C50   A    
O12   Zn2   S    
C73   H8    S    
C47   C55   A    
C72   H5    S    
C14   H19   S    
C10   C15   A    
C76   C80   D    
C12   O2    A    
C6    C10   A    
C79   C82   D    
C67   O7    A    
C42   H13   S    
C81   Cl12  S    
C34   O4    A    
C27   C36   A    
C56   O21   A    
C19   H22   S    
O21   Zn4   S    
C13   C17   A    
C12   C25   S    
C70   H3    S    
N4    Zn3   S    
C36   H40   S    
C64   O16   S    
C59   O10   S    
C86   N3    A    
O6    Zn3   S    
N3    Zn4   S    
C1    C26   S    
C23   O18   A    
C60   C69   A    
C14   N1    A    
C63   O15   S    
N1    Zn2   S    
C30   C39   A    
C16   N3    A    
C61   O13   S    
C84   Cl5   S    
C15   N2    A    
C10   H28   S    
C86   Cl7   S    
C65   C74   A    
C82   Cl15  S    
H38   O16   S    
C3    Cl11  S    
C26   C35   A    
O7    Zn3   S    
C20   C21   D    
C53   C62   A    
C7    C20   S    
O2    Zn1   S    
C39   H43   S    
O19   Zn1   S    
C20   H26   S    
C51   C60   A    
C37   H41   S    
C37   C46   A    
C58   O9    S    
C54   C81   S    
C34   O19   A    
O3    Zn1   S    
C40   H10   S    
C25   C33   A    
C39   C48   A    
