data_mof_unit_56163.cif
_audit_creation_date              2012-12-10T17:27:48-0500
_audit_creation_method            fapswitch 2.2
_symmetry_space_group_name_H-M    P1
_symmetry_Int_Tables_number       1
_space_group_crystal_system       triclinic
_cell_length_a                    10.645236
_cell_length_b                    11.980171
_cell_length_c                    12.759764
_cell_angle_alpha                 93.480943
_cell_angle_beta                  89.407016
_cell_angle_gamma                 85.81646
_cell_volume                      1619.76632396

loop_
_atom_site_label
_atom_site_type_symbol
_atom_type_description
_atom_site_fract_x
_atom_site_fract_y
_atom_site_fract_z
_atom_type_partial_charge
C1    C     C_R   0.498091 0.522292 0.700078 0.846299
C2    C     C_R   0.625619 0.566606 0.849289 -0.228567
C3    C     C_R   0.418068 0.500275 0.873562 -0.298633
C4    C     C_R   0.739172 0.501385 0.509234 0.884387
C5    C     C_R   0.439244 0.491162 0.980093 0.117971
C6    C     C_R   0.559555 0.515972 0.020425 0.132291
C7    C     C_R   0.586471 0.499441 0.125650 -0.096359
C8    C     C_R   0.374642 0.438603 0.150369 -0.286032
C9    C     C_R   0.346124 0.452516 0.046011 -0.000950
C10   C     C_R   0.368549 0.956147 0.412826 -0.105570
C11   C     C_R   0.385710 0.838939 0.419347 -0.029775
C12   C     C_R   0.938139 0.430402 0.590894 0.098569
C13   C     C_R   0.554248 0.857699 0.537521 -0.054661
C14   C     C_R   0.542977 0.975297 0.532879 0.082944
C15   C     C_R   0.450130 0.025661 0.469042 0.035192
C16   C     C_R   0.501979 0.477674 0.299895 0.924167
C17   C     C_R   0.443955 0.143798 0.462711 -0.051345
C18   C     C_R   0.610283 0.159749 0.583279 0.032056
C19   C     C_R   0.622457 0.043351 0.590716 -0.316370
C20   C     C_R   0.260296 0.501050 0.508897 0.867533
C21   C     C_R   0.877915 0.360745 0.657906 -0.221004
C22   C     C_R   0.946980 0.279806 0.711585 -0.199656
C23   C     C_R   0.870492 0.506132 0.527667 -0.118230
C24   C     C_R   0.078690 0.271105 0.706059 0.086719
C25   C     C_R   0.139233 0.348986 0.649257 -0.246893
C26   C     C_R   0.070203 0.427124 0.588522 0.085561
C27   C     C_R   0.216338 0.432104 0.011479 0.106134
C28   C     C_R   0.166577 0.328713 0.027042 -0.155641
C29   C     C_R   0.043540 0.310198 0.996953 -0.134585
C30   C     C_R   0.968613 0.395090 0.952636 -0.079821
C31   C     C_R   0.016625 0.498571 0.938069 -0.112077
C32   C     C_R   0.139434 0.517595 0.968335 -0.174365
C33   C     C_R   0.263536 0.003139 0.349756 0.099900
C34   C     C_R   0.929289 0.589031 0.478333 -0.203296
C35   C     C_R   0.260051 0.976713 0.241110 -0.160318
C36   C     C_R   0.162560 0.023628 0.181330 -0.144796
C37   C     C_R   0.067522 0.096253 0.229720 -0.128306
C38   C     C_R   0.069473 0.121832 0.338015 -0.135916
C39   C     C_R   0.166718 0.075149 0.398046 -0.154156
C40   C     C_R   0.152581 0.180707 0.759150 0.114283
C41   C     C_R   0.269307 0.199732 0.805602 -0.127725
C42   C     C_R   0.337963 0.114134 0.854536 -0.136155
C43   C     C_R   0.291681 0.008317 0.857417 -0.122410
C44   C     C_R   0.176715 0.987818 0.811121 -0.135633
C45   C     C_R   0.056902 0.587999 0.477475 -0.237132
C46   C     C_R   0.107565 0.073169 0.762140 -0.176073
C47   C     C_R   0.714364 0.513352 0.168766 0.103009
C48   C     C_R   0.791538 0.418299 0.192425 -0.163007
C49   C     C_R   0.916225 0.429053 0.222445 -0.109651
C50   C     C_R   0.964953 0.534342 0.227778 -0.075480
C51   C     C_R   0.887353 0.629833 0.208258 -0.174245
C52   C     C_R   0.761825 0.619755 0.180276 -0.143908
C53   C     C_R   0.127661 0.504017 0.526025 -0.104230
C54   C     C_R   0.491598 0.463813 0.189144 -0.103315
C55   C     C_R   0.511044 0.536449 0.810063 -0.002313
C56   C     C_R   0.650607 0.555314 0.953869 -0.224223
H1    H     H_    0.877054 0.651150 0.434344 0.179930
H2    H     H_    0.174603 0.598900 0.958239 0.128718
H3    H     H_    0.698482 0.591957 0.797632 0.131274
H4    H     H_    0.377331 0.185656 0.412142 0.146870
H5    H     H_    0.333619 0.921178 0.202638 0.124682
H6    H     H_    0.160890 0.003983 0.097433 0.132069
H7    H     H_    0.992245 0.132550 0.183373 0.115271
H8    H     H_    0.995775 0.177987 0.375443 0.139749
H9    H     H_    0.167251 0.095750 0.481917 0.141272
H10   H     H_    0.693565 0.006937 0.641181 0.135447
H11   H     H_    0.324020 0.784711 0.376993 0.136005
H12   H     H_    0.332148 0.474977 0.837607 0.132467
H13   H     H_    0.624570 0.818102 0.586664 0.127897
H14   H     H_    0.897016 0.226071 0.760132 0.125109
H15   H     H_    0.306683 0.281146 0.806468 0.126012
H16   H     H_    0.426927 0.130147 0.890720 0.129740
H17   H     H_    0.344938 0.942173 0.895443 0.125611
H18   H     H_    0.141263 0.905521 0.812837 0.128439
H19   H     H_    0.019795 0.054396 0.725257 0.120208
H20   H     H_    0.240058 0.346883 0.653711 0.167706
H21   H     H_    0.756195 0.335727 0.184730 0.126367
H22   H     H_    0.976029 0.355486 0.239080 0.127720
H23   H     H_    0.671145 0.211699 0.628447 0.122500
H24   H     H_    0.062521 0.542032 0.248115 0.123383
H25   H     H_    0.924755 0.711555 0.214163 0.132655
H26   H     H_    0.703050 0.694005 0.163545 0.131865
H27   H     H_    0.302362 0.414937 0.203691 0.145785
H28   H     H_    0.742750 0.574796 0.980514 0.154103
H29   H     H_    0.777399 0.369659 0.671580 0.157991
H30   H     H_    0.100274 0.649420 0.432675 0.162826
H31   H     H_    0.223487 0.262109 0.061405 0.142079
H32   H     H_    0.006257 0.230026 0.007988 0.121512
H33   H     H_    0.873310 0.380625 0.929658 0.126979
H34   H     H_    0.958595 0.564289 0.903679 0.119175
N1    N     N_R   0.523130 0.207800 0.519340 -0.103475
N2    N     N_R   0.476870 0.792180 0.480660 -0.105075
O1    O     O_R   0.506170 0.421690 0.658830 -0.638404
O2    O     O_R   0.491330 0.609320 0.646410 -0.617855
O3    O     O_R   0.690660 0.406170 0.506210 -0.624919
O4    O     O_R   0.675810 0.593790 0.493790 -0.623691
O5    O     O_R   0.508670 0.390680 0.353590 -0.616826
O6    O     O_R   0.493830 0.578310 0.341170 -0.612593
O7    O     O_R   0.324190 0.406210 0.506210 -0.636424
O8    O     O_R   0.309340 0.593830 0.493790 -0.623665
Zn1   Zn    Zn3+2 0.509910 0.374720 0.508290 0.928089
Zn2   Zn    Zn3+2 0.490090 0.625280 0.491710 0.941231

loop_
_geom_bond_atom_site_label_1
_geom_bond_atom_site_label_2
_ccdc_geom_bond_type
C43   H17   S    
C40   C41   A    
O4    Zn2   S    
C8    H27   S    
C41   C42   A    
C3    H12   S    
C17   N1    A    
C32   H2    S    
C40   C46   A    
C12   C23   A    
C37   C38   A    
C18   N1    A    
C28   C29   A    
C10   C15   A    
C5    C6    A    
C16   O5    A    
C49   H22   S    
C19   H10   S    
C18   C19   A    
C29   H32   S    
C33   C35   A    
C4    O4    A    
C3    C55   A    
C11   N2    A    
C31   C32   A    
C11   H11   S    
C18   H23   S    
C34   H1    S    
C51   H25   S    
N2    Zn2   S    
C41   H15   S    
C31   H34   S    
C45   C53   A    
C13   C14   A    
C39   H9    S    
N1    Zn1   S    
C30   H33   S    
C36   H6    S    
C42   H16   S    
C46   H19   S    
C37   H7    S    
C44   C46   A    
C56   H28   S    
C38   H8    S    
C38   C39   A    
C21   H29   S    
C51   C52   A    
C24   C25   A    
O1    Zn1   S    
C4    C23   S    
C2    H3    S    
C8    C9    A    
C25   C26   A    
O6    Zn2   S    
C12   C21   A    
C12   C26   A    
C35   C36   A    
C7    C47   S    
C48   H21   S    
C52   H26   S    
C43   C44   A    
C5    C9    A    
C29   C30   A    
C4    O3    A    
C47   C48   A    
C20   O8    A    
C23   C34   A    
C28   H31   S    
O8    Zn2   S    
C50   C51   A    
C35   H5    S    
C34   C45   A    
C33   C39   A    
C44   H18   S    
C47   C52   A    
C48   C49   A    
O7    Zn1   S    
C13   N2    A    
C22   C24   A    
C42   C43   A    
C8    C54   A    
C26   C53   A    
C9    C27   S    
C15   C17   A    
C36   C37   A    
C27   C32   A    
C14   C19   A    
C6    C56   A    
C20   C53   S    
C3    C5    A    
C50   H24   S    
C1    O2    A    
C6    C7    A    
C2    C55   A    
C25   H20   S    
C45   H30   S    
C1    C55   S    
C2    C56   A    
C16   O6    A    
C30   C31   A    
C20   O7    A    
C13   H13   S    
C24   C40   S    
C10   C33   S    
C16   C54   S    
C10   C11   A    
C17   H4    S    
O2    Zn2   S    
C1    O1    A    
C49   C50   A    
C27   C28   A    
C14   C15   A    
C7    C54   A    
C21   C22   A    
C22   H14   S    
O5    Zn1   S    
O3    Zn1   S    
