data_mof_unit_24438.cif
_audit_creation_date              2012-12-11T14:08:19-0500
_audit_creation_method            fapswitch 2.2
_symmetry_space_group_name_H-M    P1
_symmetry_Int_Tables_number       1
_space_group_crystal_system       triclinic
_cell_length_a                    28.177291
_cell_length_b                    7.184446
_cell_length_c                    17.185148
_cell_angle_alpha                 90.065322
_cell_angle_beta                  101.75517
_cell_angle_gamma                 89.622501
_cell_volume                      3405.89357684

loop_
_atom_site_label
_atom_site_type_symbol
_atom_type_description
_atom_site_fract_x
_atom_site_fract_y
_atom_site_fract_z
_atom_type_partial_charge
O1    O     O_R   0.000700 0.436510 0.857920 -0.539691
O2    O     O_R   0.999300 0.563490 0.142080 -0.534471
O3    O     O_R   0.999300 0.936510 0.642080 -0.531246
O4    O     O_R   0.000700 0.063490 0.357920 -0.534684
O5    O     O_R   0.930080 0.766380 0.721890 -0.517390
O6    O     O_R   0.069920 0.233620 0.278110 -0.536299
O7    O     O_R   0.069920 0.266380 0.778110 -0.535026
O8    O     O_R   0.930080 0.733620 0.221890 -0.536158
C1    C     C_R   0.910323 0.598239 0.710499 0.741095
C2    C     C_R   0.089539 0.402543 0.288791 0.743857
C3    C     C_R   0.089488 0.096173 0.787920 0.744509
C4    C     C_R   0.910465 0.903407 0.210945 0.742429
O9    O     O_R   0.996180 0.766230 0.862310 -0.540367
O10   O     O_R   0.003820 0.233770 0.137690 -0.544039
O11   O     O_R   0.003820 0.266230 0.637690 -0.545256
O12   O     O_R   0.996180 0.733770 0.362310 -0.543806
O13   O     O_R   0.065870 0.936460 0.783500 -0.520341
O14   O     O_R   0.934130 0.063540 0.216500 -0.519837
O15   O     O_R   0.934130 0.436460 0.716500 -0.540708
O16   O     O_R   0.065870 0.563540 0.283500 -0.519485
C5    C     C_R   0.998486 0.596524 0.894533 0.759305
C6    C     C_R   0.001534 0.403487 0.105476 0.763773
C7    C     C_R   0.001522 0.096420 0.605509 0.764037
C8    C     C_R   0.998491 0.903577 0.394496 0.762001
O17   O     O_3   0.022790 0.603020 0.723980 -0.359797
O18   O     O_3   0.977210 0.396980 0.276020 -0.362197
O19   O     O_3   0.977210 0.103020 0.776020 -0.368143
O20   O     O_3   0.022790 0.896980 0.223980 -0.361765
V1    V     V_3+5 0.995770 0.877900 0.754830 1.540276
V2    V     V_3+5 0.004230 0.122100 0.245170 1.530429
V3    V     V_3+5 0.004230 0.377900 0.745170 1.509262
V4    V     V_3+5 0.995770 0.622100 0.254830 1.529645
C9    C     C_2   0.001715 0.082686 0.519578 -0.302335
C10   C     C_2   0.998324 0.917304 0.480437 -0.299032
C11   C     C_2   0.998315 0.582828 0.980495 -0.303741
C12   C     C_2   0.001736 0.417207 0.019529 -0.309911
H1    H     H_    0.004470 0.211644 0.487910 0.153772
H2    H     H_    0.995575 0.788345 0.512109 0.155350
H3    H     H_    0.995530 0.711935 0.012261 0.155467
H4    H     H_    0.004528 0.288103 0.987767 0.152908
C13   C     C_R   0.684008 0.948701 0.026202 0.626207
C14   C     C_R   0.315683 0.990625 0.962686 0.624247
C15   C     C_R   0.316276 0.467591 0.469887 0.629148
C16   C     C_R   0.683524 0.519776 0.529435 0.628079
O21   O     O_2   0.714346 0.964489 0.975108 -0.484307
O22   O     O_2   0.285375 0.963850 0.013126 -0.485958
O23   O     O_2   0.286250 0.497598 0.520665 -0.482985
O24   O     O_2   0.712910 0.537683 0.476933 -0.483381
N1    N     N_R   0.702519 0.928185 0.105648 -0.557752
N2    N     N_R   0.297214 0.035269 0.885134 -0.558138
N3    N     N_R   0.297393 0.430530 0.391773 -0.558726
N4    N     N_R   0.702691 0.524356 0.609116 -0.556803
C17   C     C_R   0.672579 0.910361 0.158790 0.681552
C18   C     C_R   0.327044 0.062017 0.832410 0.677317
C19   C     C_R   0.326908 0.399248 0.338779 0.679561
C20   C     C_R   0.673840 0.503228 0.663785 0.688804
C21   C     C_R   0.778393 0.075711 0.177979 0.188824
C22   C     C_R   0.219388 0.910331 0.809958 0.186880
C23   C     C_R   0.220858 0.573440 0.318382 0.187283
C24   C     C_R   0.773550 0.714978 0.672893 0.193344
C25   C     C_R   0.829203 0.068870 0.206185 0.199333
C26   C     C_R   0.168705 0.927869 0.783212 0.198914
C27   C     C_R   0.170105 0.565094 0.290452 0.199859
C28   C     C_R   0.824298 0.733744 0.699927 0.203834
C29   C     C_R   0.831757 0.766570 0.143079 -0.190797
C30   C     C_R   0.170082 0.220025 0.855441 -0.194150
C31   C     C_R   0.168853 0.267412 0.357465 -0.191592
C32   C     C_R   0.835852 0.425112 0.647968 -0.185154
C33   C     C_R   0.781540 0.772179 0.117049 -0.064927
C34   C     C_R   0.220383 0.204750 0.879738 -0.067555
C35   C     C_R   0.219099 0.274408 0.383269 -0.066281
C36   C     C_R   0.785889 0.405532 0.623771 -0.058856
C37   C     C_R   0.754498 0.925610 0.133885 0.268454
C38   C     C_R   0.245302 0.050128 0.857990 0.268177
C39   C     C_R   0.245393 0.426602 0.364428 0.268776
C40   C     C_R   0.754371 0.548740 0.635786 0.267296
C41   C     C_R   0.601911 0.945000 0.051063 -0.079333
C42   C     C_R   0.397590 0.995299 0.936935 -0.079897
C43   C     C_R   0.398043 0.448693 0.443993 -0.079850
C44   C     C_R   0.602432 0.487767 0.556513 -0.079300
C45   C     C_R   0.633622 0.954531 0.997433 -0.032627
C46   C     C_R   0.365990 0.972065 0.990162 -0.033965
C47   C     C_R   0.366716 0.475239 0.497569 -0.031788
C48   C     C_R   0.633435 0.498120 0.501787 -0.033243
C49   C     C_R   0.614587 0.971913 0.916136 -0.048511
C50   C     C_R   0.385040 0.926748 0.069444 -0.053931
C51   C     C_R   0.386218 0.512570 0.577488 -0.049004
C52   C     C_R   0.613900 0.489786 0.420358 -0.050228
C53   C     C_R   0.621542 0.927531 0.133531 -0.095346
C54   C     C_R   0.377869 0.033847 0.855929 -0.094933
C55   C     C_R   0.378027 0.414735 0.362680 -0.095233
C56   C     C_R   0.622664 0.490029 0.639165 -0.094106
C57   C     C_R   0.856519 0.914166 0.187146 -0.141381
C58   C     C_R   0.143399 0.081463 0.808224 -0.139621
C59   C     C_R   0.143464 0.412323 0.311720 -0.140542
C60   C     C_R   0.856204 0.587918 0.686261 -0.149104
H5    H     H_    0.851412 0.646581 0.127632 0.168795
H6    H     H_    0.151854 0.339261 0.874928 0.165439
H7    H     H_    0.149659 0.148883 0.374425 0.167804
H8    H     H_    0.858703 0.311173 0.636061 0.175312
H9    H     H_    0.763482 0.656820 0.082933 0.170493
H10   H     H_    0.240113 0.312810 0.916518 0.167764
H11   H     H_    0.237753 0.161154 0.418612 0.169501
H12   H     H_    0.771512 0.278151 0.594718 0.173580
H13   H     H_    0.638203 0.978093 0.873706 0.201661
H14   H     H_    0.361469 0.902192 0.110899 0.200990
H15   H     H_    0.362911 0.538445 0.619362 0.200923
H16   H     H_    0.636990 0.497825 0.377184 0.202848
C61   C     C_R   0.480448 0.993670 0.910868 0.008037
C62   C     C_R   0.518965 0.943847 0.076026 0.007709
C63   C     C_R   0.519905 0.478230 0.582891 0.007625
C64   C     C_R   0.480729 0.443056 0.417548 0.007388
C65   C     C_R   0.467822 0.945796 0.047008 0.053369
C66   C     C_R   0.531655 0.976548 0.939125 0.054224
C67   C     C_R   0.531792 0.462883 0.445159 0.053681
C68   C     C_R   0.468715 0.482840 0.554400 0.054767
C69   C     C_R   0.448797 0.978373 0.964959 0.074842
C70   C     C_R   0.550673 0.954769 0.021982 0.075865
C71   C     C_R   0.551235 0.475763 0.528156 0.076186
C72   C     C_R   0.449317 0.457867 0.472009 0.076232
C73   C     C_R   0.459598 0.023218 0.829790 -0.205963
C74   C     C_R   0.539494 0.938533 0.158100 -0.206604
C75   C     C_R   0.540829 0.473643 0.664771 -0.208582
C76   C     C_R   0.459893 0.410644 0.336815 -0.204195
C77   C     C_R   0.409697 0.040777 0.802086 0.210752
C78   C     C_R   0.589427 0.931603 0.187027 0.211209
C79   C     C_R   0.590856 0.478964 0.693168 0.212700
C80   C     C_R   0.409931 0.398502 0.309069 0.214100
O25   O     O_2   0.307224 0.117934 0.758101 -0.460032
O26   O     O_2   0.692520 0.873872 0.235317 -0.457959
O27   O     O_2   0.695040 0.495867 0.741314 -0.457667
O28   O     O_2   0.306405 0.352223 0.263687 -0.459062
C81   C     C_R   0.564877 0.982356 0.887475 -0.144244
C82   C     C_R   0.434777 0.913401 0.097346 -0.146246
C83   C     C_R   0.436063 0.515776 0.605484 -0.147330
C84   C     C_R   0.564311 0.472170 0.392514 -0.144976
H17   H     H_    0.481146 0.032831 0.785101 0.143412
H18   H     H_    0.517419 0.947900 0.202256 0.145617
H19   H     H_    0.518884 0.460449 0.708958 0.145334
H20   H     H_    0.481716 0.391507 0.292828 0.144836
H21   H     H_    0.554021 0.994494 0.823965 0.136084
H22   H     H_    0.446120 0.873206 0.158741 0.138805
H23   H     H_    0.447908 0.549912 0.667466 0.137520
H24   H     H_    0.552691 0.471957 0.328844 0.137086
Br1   Br    Br    0.135747 0.747958 0.707791 -0.463557
Br2   Br    Br    0.859449 0.265785 0.275133 -0.467052
Br3   Br    Br    0.847912 0.954473 0.759359 -0.474137
Br4   Br    Br    0.138997 0.756724 0.218674 -0.463912
I1    I     I_    0.257394 0.668885 0.781574 -0.215841
I2    I     I_    0.737147 0.315501 0.198373 -0.227975
I3    I     I_    0.725064 0.939503 0.684153 -0.242696
I4    I     I_    0.261241 0.810097 0.294215 -0.220895
I5    I     I_    0.388385 0.055724 0.675591 -0.328931
I6    I     I_    0.610044 0.949641 0.313548 -0.316055
I7    I     I_    0.611495 0.473261 0.819943 -0.323205
I8    I     I_    0.389138 0.370822 0.182900 -0.324347

loop_
_geom_bond_atom_site_label_1
_geom_bond_atom_site_label_2
_ccdc_geom_bond_type
O17   V3    S    
C47   C51   A    
N1    C17   A    
C22   C26   A    
O1    C5    A    
C27   C59   A    
O19   V1    S    
O13   V1    S    
O3    C7    A    
C11   C12   D    
C14   C46   A    
C44   C48   A    
O4    V2    S    
O15   V3    S    
C62   C70   A    
C61   C69   A    
C68   C83   A    
C23   I4    S    
C42   C54   A    
O7    C3    A    
C17   O26   S    
C41   C53   A    
C32   C60   A    
C63   C71   A    
C1    O15   A    
C18   C54   A    
N2    C38   S    
C52   H16   S    
C25   C57   A    
C31   C35   A    
C67   C84   A    
C21   C37   A    
C75   H19   S    
O1    V3    S    
C15   C47   A    
O2    V4    S    
C14   O22   S    
C73   H17   S    
O3    V1    S    
C34   C38   A    
C19   C55   A    
C73   C77   A    
C50   C82   A    
C2    O16   A    
C7    C9    S    
C26   Br1   S    
O2    C6    A    
C33   C37   A    
C63   C68   A    
O14   V2    S    
C43   C55   A    
C22   I1    S    
C31   H7    S    
C76   C80   A    
C16   N4    A    
O11   C7    A    
C44   C71   A    
O12   C8    A    
C21   I2    S    
C31   C59   A    
C50   H14   S    
O10   V2    S    
C49   H13   S    
C13   N1    A    
C77   I5    S    
O5    V1    S    
C53   C78   A    
O7    V3    S    
C55   C80   A    
C52   C84   A    
C63   C75   A    
O8    V4    S    
C51   C83   A    
C12   H4    S    
C42   C69   A    
C28   C60   A    
C41   C70   A    
C79   I7    S    
C64   C72   A    
O18   V4    S    
C36   H12   S    
N4    C40   S    
C46   C50   A    
O11   V3    S    
C24   C40   A    
C8    C10   S    
C68   C72   A    
C32   C36   A    
C24   I3    S    
C74   C78   A    
C11   H3    S    
C25   Br2   S    
C32   H8    S    
O5    C1    A    
C54   C77   A    
C82   H22   S    
C42   C46   A    
C75   C79   A    
C1    C60   S    
C41   C45   A    
O8    C4    A    
C13   C45   A    
C43   C72   A    
C9    C10   D    
O9    C5    A    
C36   C40   A    
N2    C18   A    
C21   C25   A    
C44   C56   A    
C62   C65   A    
C74   H18   S    
C66   C70   A    
C61   C66   A    
C14   N2    A    
C65   C69   A    
C78   I6    S    
C3    C58   S    
O6    V2    S    
C67   C71   A    
C65   C82   A    
C26   C58   A    
C28   Br3   S    
C17   C53   A    
O10   C6    A    
N1    C37   S    
C4    C57   S    
C56   C79   A    
C23   C39   A    
C27   Br4   S    
C22   C38   A    
O16   V4    S    
O9    V1    S    
C18   O25   S    
C35   H11   S    
C3    O13   A    
C10   H2    S    
C23   C27   A    
C76   H20   S    
C48   C52   A    
N3    C39   S    
C16   C48   A    
O6    C2    A    
C34   H10   S    
C64   C76   A    
C5    C11   S    
C33   H9    S    
O12   V4    S    
C6    C12   S    
C81   H21   S    
C30   C58   A    
C24   C28   A    
C30   H6    S    
O20   V2    S    
C29   H5    S    
C84   H24   S    
C62   C74   A    
C35   C39   A    
C15   N3    A    
C30   C34   A    
C2    C59   S    
O4    C8    A    
C29   C33   A    
C83   H23   S    
C29   C57   A    
C66   C81   A    
N3    C19   A    
C9    H1    S    
C20   O27   S    
C80   I8    S    
C43   C47   A    
N4    C20   A    
C20   C56   A    
C51   H15   S    
C19   O28   S    
C4    O14   A    
C13   O21   S    
C61   C73   A    
C15   O23   S    
C64   C67   A    
C45   C49   A    
C16   O24   S    
C49   C81   A    
