data_mof_unit_28760.cif
_audit_creation_date              2013-03-05T16:19:46-0500
_audit_creation_method            fapswitch 2.2
_symmetry_space_group_name_H-M    P1
_symmetry_Int_Tables_number       1
_space_group_crystal_system       triclinic
_cell_length_a                    10.623303
_cell_length_b                    9.674598
_cell_length_c                    27.74558
_cell_angle_alpha                 90.029155
_cell_angle_beta                  90.054979
_cell_angle_gamma                 90.034296
_cell_volume                      2851.58269588

loop_
_atom_site_label
_atom_site_type_symbol
_atom_site_description
_atom_site_fract_x
_atom_site_fract_y
_atom_site_fract_z
_atom_type_partial_charge
O1    O     O_R   0.314910 0.616040 0.499990 -0.636015
O2    O     O_R   0.314910 0.383960 0.499990 -0.634781
C1    C     C_R   0.257546 0.500256 0.499930 0.848442
O3    O     O_R   0.500140 0.616020 0.428740 -0.626661
O4    O     O_R   0.500140 0.383980 0.428740 -0.628552
C2    C     C_R   0.499916 0.499979 0.405941 0.907152
Zn1   Zn    Zn3+2 0.500150 0.654960 0.499980 0.911850
Zn2   Zn    Zn3+2 0.500150 0.345040 0.499980 0.910186
O5    O     O_R   0.685320 0.616040 0.499970 -0.635080
O6    O     O_R   0.685320 0.383960 0.499970 -0.635810
O7    O     O_R   0.500090 0.616050 0.571230 -0.629874
O8    O     O_R   0.500090 0.383950 0.571230 -0.630347
C3    C     C_R   0.742678 0.500306 0.499910 0.848846
C4    C     C_R   0.500520 0.500069 0.594035 0.915083
C5    C     C_R   0.395962 0.457858 0.177063 0.585185
O9    O     O_2   0.290219 0.424712 0.201417 -0.529257
N1    N     N_R   0.501669 0.496417 0.201628 -0.344359
C6    C     C_R   0.611241 0.528360 0.178525 0.589975
C7    C     C_R   0.512248 0.375700 0.278079 -0.133413
C8    C     C_R   0.512108 0.375420 0.328041 -0.197437
C9    C     C_R   0.484737 0.624678 0.328093 -0.321387
C10   C     C_R   0.483228 0.625645 0.277851 0.450139
C11   C     C_R   0.498489 0.499881 0.252924 0.183081
C12   C     C_R   0.507919 0.489603 0.101855 -0.051353
C13   C     C_R   0.397006 0.453860 0.126690 -0.023856
C14   C     C_R   0.290055 0.414741 0.100900 -0.107103
C15   C     C_R   0.616109 0.526915 0.128177 -0.030161
C16   C     C_R   0.499016 0.499989 0.353336 -0.112942
H1    H     H_    0.474360 0.721081 0.347524 0.190431
H2    H     H_    0.204521 0.383888 0.119235 0.195422
C17   C     C_R   0.503287 0.500475 0.646648 -0.129471
C18   C     C_R   0.399918 0.464644 0.973906 0.047275
C19   C     C_R   0.627594 0.512822 0.975231 -0.011559
C20   C     C_R   0.515022 0.489943 0.949205 0.088029
C21   C     C_R   0.288228 0.451215 0.946729 -0.181990
C22   C     C_R   0.290199 0.456200 0.897012 -0.057508
C23   C     C_R   0.403187 0.475502 0.872410 -0.026523
C24   C     C_R   0.517096 0.492366 0.898066 -0.088815
C25   C     C_R   0.631931 0.511827 0.872571 -0.156832
C26   C     C_R   0.626845 0.509547 0.821570 0.620489
N2    N     N_R   0.514076 0.498256 0.798335 -0.354944
C27   C     C_R   0.403865 0.480046 0.822305 0.589323
C28   C     C_R   0.504401 0.627912 0.722065 0.504896
C29   C     C_R   0.500740 0.626308 0.671847 -0.281929
C30   C     C_R   0.509865 0.375397 0.671993 -0.193421
C31   C     C_R   0.514070 0.376171 0.721935 -0.138163
C32   C     C_R   0.511452 0.501436 0.747002 0.162612
O10   O     O_2   0.295200 0.466543 0.797408 -0.491553
C33   C     C_R   0.399389 0.455694 0.024853 0.049091
C34   C     C_R   0.510544 0.488278 0.050811 0.084235
C35   C     C_R   0.624038 0.520382 0.026305 0.071636
C36   C     C_R   0.291123 0.414913 0.050949 -0.197471
H3    H     H_    0.196481 0.440286 0.962739 0.165309
H4    H     H_    0.205809 0.379682 0.033924 0.147536
O11   O     O_2   0.714884 0.561150 0.204313 -0.520081
C37   C     C_R   0.725904 0.563634 0.103863 -0.111260
H5    H     H_    0.523661 0.279317 0.258693 0.190048
H6    H     H_    0.809468 0.595565 0.123346 0.200361
C38   C     C_R   0.740882 0.527418 0.949432 -0.280012
C39   C     C_R   0.745197 0.530982 0.899217 0.402585
O12   O     O_2   0.732090 0.516709 0.794766 -0.427015
C40   C     C_R   0.729818 0.561535 0.053939 -0.201156
H7    H     H_    0.829493 0.533604 0.967923 0.185793
H8    H     H_    0.512145 0.277085 0.653314 0.170817
H9    H     H_    0.519170 0.279299 0.741383 0.162569
H10   H     H_    0.816696 0.596915 0.038247 0.158106
C41   C     C_3   0.071622 0.652344 0.499253 -0.395495
C42   C     C_3   0.072390 0.427791 0.545785 -0.390118
H11   H     H_    0.106018 0.707601 0.466588 0.171484
H12   H     H_    0.106935 0.319214 0.547145 0.175463
C43   C     C_3   0.928752 0.652380 0.499236 -0.395076
C44   C     C_3   0.927937 0.427861 0.545785 -0.391277
H13   H     H_    0.894314 0.707600 0.466555 0.173241
H14   H     H_    0.893208 0.319312 0.547163 0.175421
H15   H     H_    0.107468 0.476433 0.421293 0.169156
H16   H     H_    0.106745 0.316138 0.453957 0.173177
C45   C     C_3   0.072201 0.424777 0.454499 -0.394524
C46   C     C_3   0.121300 0.501234 0.499864 0.167208
C47   C     C_3   0.878915 0.501304 0.499852 0.167473
C48   C     C_3   0.927723 0.424804 0.454493 -0.394559
C49   C     C_3   0.386104 0.081315 0.474759 -0.233844
C50   C     C_3   0.386093 0.918497 0.474769 -0.236195
H17   H     H_    0.299830 0.118933 0.493239 0.147029
H18   H     H_    0.299864 0.880972 0.493295 0.146492
H19   H     H_    0.612592 0.120209 0.435522 0.155107
H20   H     H_    0.612653 0.879724 0.435537 0.160722
C51   C     C_3   0.610992 0.081446 0.473257 -0.233682
C52   C     C_3   0.610997 0.918643 0.473265 -0.233920
C53   C     C_3   0.502163 0.081334 0.548629 -0.221698
C54   C     C_3   0.502154 0.918790 0.548630 -0.216889
N3    N     N_3   0.499750 0.138610 0.498940 -0.041265
N4    N     N_3   0.499750 0.861390 0.498940 -0.042379
H21   H     H_    0.586994 0.119807 0.567999 0.153371
H22   H     H_    0.586963 0.880457 0.568008 0.157415
H23   H     H_    0.419228 0.119620 0.569122 0.156181
H24   H     H_    0.419207 0.880462 0.569118 0.159513
H25   H     H_    0.698996 0.119208 0.490555 0.146932
H26   H     H_    0.698961 0.881139 0.490597 0.145793
S1    S     S_3+6 0.895457 0.565582 0.873101 0.091312
O13   O     O_2   0.886343 0.689736 0.840734 -0.142007
O14   O     O_2   0.992645 0.595203 0.911177 -0.343673
O15   O     O_3   0.943206 0.428413 0.840663 -0.458738
H27   H     H_    0.946940 0.351191 0.864048 0.340933
H28   H     H_    0.106080 0.709883 0.531471 0.178270
H29   H     H_    0.107807 0.481595 0.578595 0.175638
H30   H     H_    0.894469 0.709966 0.531437 0.177949
H31   H     H_    0.892781 0.481726 0.578589 0.175368
S2    S     S_3+6 0.462698 0.784458 0.247216 0.047719
O16   O     O_2   0.587288 0.830759 0.227374 -0.223065
O17   O     O_2   0.371493 0.767346 0.206194 -0.284542
O18   O     O_3   0.408684 0.906737 0.285027 -0.553213
H32   H     H_    0.322355 0.876659 0.293516 0.352994
H33   H     H_    0.892379 0.476446 0.421280 0.170528
H34   H     H_    0.893038 0.316173 0.453953 0.172667
H35   H     H_    0.380869 0.120118 0.437074 0.157161
H36   H     H_    0.380757 0.879503 0.437095 0.154584
H37   H     H_    0.495810 0.723104 0.652390 0.204073
S3    S     S_3+6 0.499660 0.788010 0.752847 0.045443
O19   O     O_2   0.393571 0.786750 0.788638 -0.259541
O20   O     O_2   0.621837 0.809511 0.779149 -0.247299
O21   O     O_3   0.477842 0.918659 0.713719 -0.584463
H38   H     H_    0.473132 0.002870 0.733965 0.384157
H39   H     H_    0.201912 0.444918 0.877840 0.233472
H40   H     H_    0.523260 0.277992 0.346787 0.175606

loop_
_geom_bond_atom_site_label_1
_geom_bond_atom_site_label_2
_geom_bond_distance
_ccdc_geom_bond_type
C51   C52   1.575050 S    
C3    C47   1.447305 S    
C51   N3    1.487346 S    
C21   H3    1.076670 S    
N2    C27   1.358497 A    
C21   C22   1.380467 A    
C12   C15   1.407935 A    
C4    C17   1.460074 S    
C39   S1    1.785217 S    
C43   C47   1.554349 S    
C49   C50   1.575196 S    
C45   C46   1.549463 S    
C7    H5    1.083173 S    
Zn1   O7    2.012586 S    
C35   C40   1.416570 A    
N1    C11   1.424059 S    
C22   C23   1.393900 A    
C44   C47   1.549296 S    
O4    C2    1.288524 A    
O7    C4    1.288459 A    
H20   C52   1.112406 S    
C5    C13   1.398179 A    
C25   C39   1.423599 A    
C5    O9    1.350030 S    
C50   N4    1.487431 S    
S2    O16   1.502162 D    
Zn1   O5    2.003051 S    
C23   C27   1.390943 A    
O5    C3    1.275063 A    
S3    O19   1.502871 D    
C2    C16   1.459590 S    
C52   N4    1.487341 S    
C37   H6    1.083650 S    
C53   N3    1.486311 S    
C42   C44   1.534569 S    
C38   C39   1.394480 A    
C19   C38   1.407929 A    
C20   C24   1.419281 A    
C9    C10   1.394123 A    
C42   C46   1.549166 S    
C41   C46   1.554657 S    
O3    Zn1   2.011988 S    
C49   H17   1.111969 S    
C36   H4    1.076746 S    
C41   H28   1.114264 S    
C54   H22   1.112652 S    
H19   C51   1.112414 S    
C12   C34   1.416607 A    
C17   C29   1.403832 A    
C40   H10   1.076607 S    
C18   C21   1.411128 A    
C22   H39   1.083224 S    
C19   C20   1.413653 A    
C12   C13   1.408544 A    
C31   H9    1.083036 S    
C44   H14   1.113560 S    
C25   C26   1.416203 A    
C43   H13   1.114244 S    
C15   C37   1.393922 A    
C8    C16   1.401367 A    
C34   C35   1.419074 A    
C13   C14   1.394209 A    
C30   C31   1.386374 A    
C9    H1    1.082757 S    
C26   O12   1.345165 S    
O1    C1    1.274876 A    
S3    O21   1.682603 S    
C18   C20   1.423448 A    
C53   H23   1.112596 S    
C7    C11   1.397394 A    
C28   C29   1.393930 A    
C23   C24   1.412662 A    
C14   C36   1.385970 A    
C54   N4    1.486249 S    
S1    O13   1.503223 D    
C44   H31   1.113501 S    
Zn2   O8    2.012210 S    
C33   C36   1.415664 A    
C49   H35   1.112469 S    
N1    C6    1.364750 A    
N2    C32   1.424855 S    
Zn2   N3    1.997324 S    
C27   O10   1.350949 S    
H16   C45   1.113568 S    
H15   C45   1.113472 S    
O21   H38   0.990671 S    
C6    O11   1.350068 S    
O3    C2    1.288323 A    
C26   N2    1.364170 A    
S1    O14   1.503781 D    
C9    C16   1.403422 A    
C48   H34   1.113562 S    
C14   H2    1.083624 S    
C50   H18   1.111677 S    
C37   C40   1.385956 A    
C42   H29   1.113492 S    
C45   C48   1.534840 S    
C5    N1    1.364741 A    
C31   C32   1.397278 A    
O18   H32   0.990648 S    
O1    Zn1   2.003339 S    
O2    Zn2   2.003782 S    
C6    C15   1.397979 A    
O8    C4    1.289056 A    
O6    C3    1.279635 A    
O4    Zn2   2.012364 S    
C54   H24   1.112610 S    
C19   C35   1.419476 A    
C30   H8    1.083224 S    
C38   H7    1.073270 S    
S2    O18   1.682281 S    
C7    C8    1.386203 A    
O2    C1    1.279874 A    
C50   H36   1.112494 S    
C24   C25   1.423223 A    
C29   H37   1.082420 S    
C10   S2    1.769772 S    
Zn1   N4    1.997358 S    
S2    O17   1.503028 D    
C41   C43   1.517748 S    
C53   H21   1.112641 S    
O15   H27   0.990552 S    
S3    O20   1.502709 D    
C18   C33   1.416272 A    
C8    H40   1.083292 S    
C28   S3    1.769124 S    
C47   C48   1.549584 S    
C49   N3    1.487348 S    
S1    O15   1.681923 S    
C48   H33   1.113470 S    
Zn2   O6    2.002609 S    
C33   C34   1.417794 A    
C17   C30   1.401611 A    
C43   H30   1.114269 S    
C42   H12   1.113559 S    
C10   C11   1.408760 A    
C41   H11   1.114262 S    
C53   C54   1.572548 S    
C1    C46   1.447417 S    
C28   C32   1.407976 A    
C52   H26   1.111696 S    
C51   H25   1.111936 S    
