data_mof_unit_24232.cif
_audit_creation_date              2012-12-11T17:08:01-0500
_audit_creation_method            fapswitch 2.2
_symmetry_space_group_name_H-M    P1
_symmetry_Int_Tables_number       1
_space_group_crystal_system       triclinic
_cell_length_a                    17.338671
_cell_length_b                    17.41993
_cell_length_c                    17.547499
_cell_angle_alpha                 90.002741
_cell_angle_beta                  90.292402
_cell_angle_gamma                 89.977144
_cell_volume                      5299.94969293

loop_
_atom_site_label
_atom_site_type_symbol
_atom_type_description
_atom_site_fract_x
_atom_site_fract_y
_atom_site_fract_z
_atom_type_partial_charge
C1    C     C_R   0.394719 0.302768 0.899533 0.042079
C2    C     C_R   0.671561 0.418539 0.858725 0.063673
C3    C     C_R   0.606409 0.696394 0.897715 0.056872
C4    C     C_R   0.324809 0.583876 0.861040 0.051100
C5    C     C_R   0.392813 0.696295 0.099839 0.042303
C6    C     C_R   0.673675 0.582387 0.140218 0.050065
C7    C     C_R   0.606699 0.304961 0.105941 0.055750
C8    C     C_R   0.303122 0.396026 0.101122 0.056020
C9    C     C_R   0.894595 0.803116 0.400139 0.049848
C10   C     C_R   0.186279 0.904314 0.375048 0.057704
C11   C     C_R   0.102170 0.191694 0.385486 0.040986
C12   C     C_R   0.825520 0.083185 0.359879 0.062110
C13   C     C_R   0.893958 0.196411 0.601828 0.040492
C14   C     C_R   0.170633 0.079806 0.642383 0.058402
C15   C     C_R   0.106138 0.802001 0.595708 0.041738
C16   C     C_R   0.825829 0.915451 0.639245 0.062512
C17   C     C_3   0.846454 0.223498 0.785806 -0.480230
C18   C     C_3   0.860249 0.856797 0.864195 -0.469157
C19   C     C_3   0.141051 0.760057 0.769118 -0.481973
C20   C     C_3   0.303618 0.216864 0.666445 -0.485394
C21   C     C_3   0.852302 0.768894 0.220356 -0.483299
C22   C     C_3   0.832847 0.120423 0.137620 -0.475263
C23   C     C_3   0.265858 0.328821 0.353123 -0.512180
C24   C     C_3   0.297837 0.720386 0.353460 -0.505844
C25   C     C_3   0.341733 0.679321 0.291210 -0.469533
C26   C     C_3   0.300480 0.370575 0.285869 -0.457275
C27   C     C_3   0.785709 0.169038 0.082697 -0.482818
C28   C     C_3   0.804053 0.724742 0.163209 -0.481869
C29   C     C_3   0.352560 0.261213 0.722795 -0.483362
C30   C     C_3   0.187896 0.717752 0.828645 -0.481426
C31   C     C_3   0.812208 0.810324 0.919635 -0.491603
C32   C     C_3   0.797861 0.268442 0.841615 -0.490319
C33   C     C_R   0.417014 0.673823 0.859390 -0.171976
C34   C     C_R   0.302822 0.390890 0.900263 -0.193459
C35   C     C_R   0.581097 0.327128 0.858622 -0.167363
C36   C     C_R   0.697083 0.607163 0.899683 -0.128421
C37   C     C_R   0.391781 0.304297 0.102969 -0.169425
C38   C     C_R   0.303355 0.605357 0.103332 -0.172808
C39   C     C_R   0.581376 0.672433 0.141597 -0.178258
C40   C     C_R   0.697518 0.392688 0.099276 -0.181810
C41   C     C_R   0.919344 0.171266 0.358167 -0.160692
C42   C     C_R   0.802803 0.891904 0.399521 -0.172110
C43   C     C_R   0.090703 0.816899 0.369412 -0.166531
C44   C     C_R   0.190622 0.098825 0.381222 -0.153766
C45   C     C_R   0.918391 0.825697 0.639775 -0.142790
C46   C     C_R   0.802955 0.106719 0.601817 -0.166666
C47   C     C_R   0.080943 0.171879 0.642232 -0.170121
C48   C     C_R   0.197961 0.889902 0.595870 -0.140705
C49   C     C_R   0.318460 0.315279 0.885612 0.095151
C50   C     C_R   0.641464 0.357702 0.817715 0.062813
C51   C     C_R   0.682289 0.682250 0.883188 0.034275
C52   C     C_R   0.354185 0.644917 0.820338 0.077362
C53   C     C_R   0.317460 0.681487 0.115750 0.066615
C54   C     C_R   0.643313 0.642718 0.181304 0.078716
C55   C     C_R   0.683018 0.318469 0.117921 0.073760
C56   C     C_R   0.315662 0.320814 0.117684 0.075126
C57   C     C_R   0.818181 0.815963 0.385651 0.064520
C58   C     C_R   0.159623 0.839415 0.338550 0.068051
C59   C     C_R   0.172140 0.170575 0.355780 0.055672
C60   C     C_R   0.857620 0.142146 0.318432 0.061310
C61   C     C_R   0.818040 0.182343 0.617010 0.079204
C62   C     C_R   0.140717 0.140121 0.684015 0.063707
C63   C     C_R   0.183171 0.813426 0.607773 0.049395
C64   C     C_R   0.856633 0.854603 0.679635 0.038906
C65   C     C_R   0.760119 0.304654 0.773653 0.110177
C66   C     C_R   0.758381 0.795032 0.854743 0.116469
C67   C     C_R   0.235589 0.687654 0.764245 0.145647
C68   C     C_R   0.304028 0.226493 0.784078 0.118154
C69   C     C_R   0.762219 0.691725 0.230079 0.154141
C70   C     C_R   0.789216 0.231298 0.141078 0.109512
C71   C     C_R   0.250457 0.321245 0.236397 0.120813
C72   C     C_R   0.309620 0.737915 0.237415 0.143509
C73   C     C_R   0.270641 0.774713 0.293042 0.107242
C74   C     C_R   0.218985 0.284279 0.296574 0.134077
C75   C     C_R   0.831839 0.187481 0.190635 0.115564
C76   C     C_R   0.804920 0.731452 0.280994 0.098289
C77   C     C_R   0.260647 0.186376 0.733759 0.109341
C78   C     C_R   0.194065 0.725927 0.711108 0.116606
C79   C     C_R   0.801679 0.837040 0.804664 0.111655
C80   C     C_R   0.803277 0.264103 0.723801 0.117441
C81   C     C_R   0.682642 0.318230 0.759346 -0.010004
C82   C     C_R   0.726152 0.726030 0.831314 0.008318
C83   C     C_R   0.314952 0.681540 0.758255 -0.011495
C84   C     C_R   0.270377 0.261668 0.846352 0.004828
C85   C     C_R   0.683896 0.681261 0.240972 -0.011258
C86   C     C_R   0.730359 0.277163 0.168970 0.008633
C87   C     C_R   0.269483 0.281235 0.170510 -0.016235
C88   C     C_R   0.275663 0.727110 0.166547 -0.000674
C89   C     C_R   0.197163 0.801654 0.278711 0.000778
C90   C     C_R   0.206521 0.206169 0.292269 0.002576
C91   C     C_R   0.815518 0.189598 0.267960 0.005120
C92   C     C_R   0.770846 0.763820 0.344463 -0.008564
C93   C     C_R   0.181953 0.177719 0.744347 -0.010080
C94   C     C_R   0.230167 0.761087 0.650037 -0.007515
C95   C     C_R   0.812912 0.810078 0.731086 -0.008742
C96   C     C_R   0.770331 0.233897 0.658400 0.004255
C97   C     C_R   0.164206 0.798864 0.205177 -0.026395
C98   C     C_R   0.214953 0.166085 0.222532 -0.027818
C99   C     C_R   0.764642 0.244483 0.298155 -0.021760
C100  C     C_R   0.692992 0.749254 0.361542 -0.027871
C101  C     C_R   0.146963 0.205340 0.811357 -0.027272
C102  C     C_R   0.309552 0.750123 0.637508 -0.028270
C103  C     C_R   0.771264 0.746720 0.703137 -0.037618
C104  C     C_R   0.693567 0.251281 0.638392 -0.032637
C105  C     C_R   0.648719 0.294886 0.689981 -0.028955
C106  C     C_R   0.727119 0.703862 0.754207 -0.020835
C107  C     C_R   0.352917 0.708926 0.692678 -0.029751
C108  C     C_R   0.192202 0.248618 0.863493 -0.032542
C109  C     C_R   0.648465 0.706548 0.308620 -0.031483
C110  C     C_R   0.721185 0.289138 0.247623 -0.033050
C111  C     C_R   0.248328 0.204520 0.160561 -0.037102
C112  C     C_R   0.204510 0.760061 0.147579 -0.042957
H1    H     H_    0.835107 0.160658 0.786922 0.196613
H2    H     H_    0.917776 0.831116 0.852597 0.191439
H3    H     H_    0.146213 0.823574 0.773299 0.198600
H4    H     H_    0.336913 0.171978 0.636022 0.181193
H5    H     H_    0.843551 0.832094 0.217372 0.197986
H6    H     H_    0.891873 0.107711 0.116641 0.187283
H7    H     H_    0.230082 0.366932 0.389377 0.188557
H8    H     H_    0.336305 0.748463 0.395914 0.185999
H9    H     H_    0.319996 0.620371 0.279597 0.194642
H10   H     H_    0.363065 0.358953 0.278287 0.194367
H11   H     H_    0.726202 0.147050 0.073258 0.196160
H12   H     H_    0.837884 0.680993 0.131634 0.189622
H13   H     H_    0.345469 0.324518 0.718192 0.198049
H14   H     H_    0.154256 0.672176 0.857726 0.193453
H15   H     H_    0.784924 0.845905 0.964682 0.188018
H16   H     H_    0.832287 0.309819 0.875848 0.181370
H17   H     H_    0.908262 0.239947 0.786869 0.184503
H18   H     H_    0.860811 0.919245 0.877257 0.187908
H19   H     H_    0.081111 0.738096 0.763201 0.188727
H20   H     H_    0.267339 0.254179 0.629351 0.195284
H21   H     H_    0.913528 0.750000 0.222324 0.184539
H22   H     H_    0.800819 0.070102 0.160281 0.190838
H23   H     H_    0.308040 0.292429 0.384600 0.193548
H24   H     H_    0.250243 0.685643 0.378047 0.197240
H25   H     H_    0.405327 0.684161 0.297336 0.191506
H26   H     H_    0.283709 0.432118 0.282833 0.188962
H27   H     H_    0.817514 0.184505 0.030033 0.188737
H28   H     H_    0.766704 0.762033 0.127128 0.190709
H29   H     H_    0.413204 0.240803 0.725750 0.182231
H30   H     H_    0.220904 0.756458 0.867261 0.193451
H31   H     H_    0.841663 0.757528 0.940458 0.190735
H32   H     H_    0.757619 0.231987 0.874987 0.195723
H33   H     H_    0.450723 0.723190 0.843639 0.127059
H34   H     H_    0.245531 0.413828 0.905697 0.105452
H35   H     H_    0.548055 0.276915 0.843931 0.109798
H36   H     H_    0.754011 0.582552 0.904770 0.107409
H37   H     H_    0.416872 0.247786 0.103472 0.108782
H38   H     H_    0.248317 0.576867 0.107368 0.122288
H39   H     H_    0.547468 0.721765 0.157309 0.126221
H40   H     H_    0.754438 0.416111 0.091968 0.097198
H41   H     H_    0.951148 0.221986 0.343255 0.120711
H42   H     H_    0.745978 0.916616 0.402937 0.108215
H43   H     H_    0.058006 0.765834 0.356489 0.118303
H44   H     H_    0.244202 0.069607 0.371497 0.118836
H45   H     H_    0.951037 0.774544 0.652736 0.122569
H46   H     H_    0.746436 0.080934 0.599014 0.123583
H47   H     H_    0.047830 0.221865 0.657275 0.111615
H48   H     H_    0.254841 0.914439 0.590390 0.114981
N1    N     N_R   0.425360 0.368540 0.922560 -0.051280
N2    N     N_R   0.631460 0.425360 0.922560 -0.051535
N3    N     N_R   0.574640 0.631460 0.922560 -0.053665
N4    N     N_R   0.368540 0.574640 0.922560 -0.054192
N5    N     N_R   0.425360 0.631460 0.077440 -0.052775
N6    N     N_R   0.631460 0.574640 0.077440 -0.056218
N7    N     N_R   0.574640 0.368540 0.077440 -0.056599
N8    N     N_R   0.368540 0.425360 0.077440 -0.050167
N9    N     N_R   0.925360 0.868540 0.422560 -0.046345
N10   N     N_R   0.131460 0.925360 0.422560 -0.055386
N11   N     N_R   0.074640 0.131460 0.422560 -0.054686
N12   N     N_R   0.868540 0.074640 0.422560 -0.055186
N13   N     N_R   0.925360 0.131460 0.577440 -0.054113
N14   N     N_R   0.131460 0.074640 0.577440 -0.053796
N15   N     N_R   0.074640 0.868540 0.577440 -0.052449
N16   N     N_R   0.868540 0.925360 0.577440 -0.048053
N17   N     N_R   0.425340 0.631500 0.922560 -0.052775
N18   N     N_R   0.368500 0.425340 0.922560 -0.046708
N19   N     N_R   0.574660 0.368500 0.922560 -0.054266
N20   N     N_R   0.631500 0.574660 0.922560 -0.044380
N21   N     N_R   0.425340 0.368500 0.077440 -0.051326
N22   N     N_R   0.368500 0.574660 0.077440 -0.045907
N23   N     N_R   0.574660 0.631500 0.077440 -0.053817
N24   N     N_R   0.631500 0.425340 0.077440 -0.045415
N25   N     N_R   0.925340 0.131500 0.422560 -0.048402
N26   N     N_R   0.868500 0.925340 0.422560 -0.051796
N27   N     N_R   0.074660 0.868500 0.422560 -0.048795
N28   N     N_R   0.131500 0.074660 0.422560 -0.048121
N29   N     N_R   0.925340 0.868500 0.577440 -0.048197
N30   N     N_R   0.868500 0.074660 0.577440 -0.046862
N31   N     N_R   0.074660 0.131500 0.577440 -0.055643
N32   N     N_R   0.131500 0.925340 0.577440 -0.048205
Ni1   Ni    Ni4+2 0.500000 0.369720 0.000000 0.194412
Ni2   Ni    Ni4+2 0.630280 0.500000 0.000000 0.196744
Ni3   Ni    Ni4+2 0.500000 0.630280 0.000000 0.191252
Ni4   Ni    Ni4+2 0.369720 0.500000 0.000000 0.198443
Ni5   Ni    Ni4+2 1.000000 0.869720 0.500000 0.205447
Ni6   Ni    Ni4+2 0.130280 0.000000 0.500000 0.196156
Ni7   Ni    Ni4+2 1.000000 0.130280 0.500000 0.193688
Ni8   Ni    Ni4+2 0.869720 0.000000 0.500000 0.205125
N33   N     N_3   0.425573 0.228896 0.918399 -0.219435
H49   H     H_    0.441017 0.201738 0.867666 0.084882
H50   H     H_    0.475848 0.236286 0.950410 0.094322
N34   N     N_3   0.739766 0.461052 0.841680 -0.221750
H51   H     H_    0.785566 0.436828 0.872123 0.084169
H52   H     H_    0.751703 0.457650 0.783477 0.098452
N35   N     N_3   0.574458 0.771440 0.908428 -0.226480
H53   H     H_    0.524133 0.766342 0.940212 0.086748
H54   H     H_    0.612570 0.802529 0.942963 0.094489
N36   N     N_3   0.249406 0.552409 0.851410 -0.226756
H55   H     H_    0.252941 0.505402 0.814734 0.104540
H56   H     H_    0.227388 0.537260 0.904609 0.088161
N37   N     N_3   0.424256 0.771378 0.088204 -0.226693
H57   H     H_    0.476201 0.766080 0.059088 0.088378
H58   H     H_    0.387147 0.800768 0.051195 0.097749
N38   N     N_3   0.749930 0.552780 0.149777 -0.227671
H59   H     H_    0.747696 0.505212 0.185843 0.107784
H60   H     H_    0.772837 0.539181 0.096530 0.087829
N39   N     N_3   0.570542 0.231892 0.112939 -0.223762
H61   H     H_    0.531502 0.235349 0.157861 0.101035
H62   H     H_    0.541234 0.220118 0.062274 0.084282
N40   N     N_3   0.229926 0.433693 0.094516 -0.227693
H63   H     H_    0.223271 0.450711 0.037798 0.088456
H64   H     H_    0.185705 0.394433 0.105136 0.096657
N41   N     N_3   0.928500 0.729965 0.416211 -0.231288
H65   H     H_    0.892293 0.700578 0.453697 0.099707
H66   H     H_    0.930827 0.698599 0.365573 0.088617
N42   N     N_3   0.264649 0.930138 0.379751 -0.225332
H67   H     H_    0.270479 0.961567 0.430205 0.084793
H68   H     H_    0.299929 0.882671 0.389533 0.098461
N43   N     N_3   0.075787 0.268957 0.395628 -0.225260
H69   H     H_    0.029186 0.268313 0.432997 0.090163
H70   H     H_    0.118872 0.298430 0.425329 0.094886
N44   N     N_3   0.746477 0.060740 0.353790 -0.216827
H71   H     H_    0.743309 0.014441 0.316128 0.093265
H72   H     H_    0.726744 0.044099 0.407469 0.095297
N45   N     N_3   0.923660 0.271176 0.585214 -0.220073
H73   H     H_    0.938550 0.297086 0.636915 0.085153
H74   H     H_    0.974060 0.265482 0.553474 0.093789
N46   N     N_3   0.234730 0.032274 0.662672 -0.220188
H75   H     H_    0.282407 0.050316 0.631331 0.081754
H76   H     H_    0.247372 0.037322 0.720708 0.102329
N47   N     N_3   0.069817 0.729544 0.580659 -0.230325
H77   H     H_    0.049228 0.731015 0.524621 0.110823
H78   H     H_    0.110939 0.685701 0.582290 0.093671
N48   N     N_3   0.751815 0.949361 0.650618 -0.228783
H79   H     H_    0.710445 0.905821 0.647824 0.099768
H80   H     H_    0.750932 0.971877 0.705815 0.095633
N49   N     N_3   0.090507 0.833579 0.190748 -0.206815
H81   H     H_    0.052409 0.791153 0.171737 0.097728
H82   H     H_    0.096831 0.874401 0.147592 0.103420
N50   N     N_3   0.190741 0.087556 0.215894 -0.202775
H83   H     H_    0.238411 0.053944 0.201435 0.103821
H84   H     H_    0.149748 0.083612 0.172203 0.102748
N51   N     N_3   0.755554 0.251646 0.379183 -0.199318
H85   H     H_    0.698239 0.239812 0.393041 0.105995
H86   H     H_    0.768204 0.308086 0.395064 0.100535
N52   N     N_3   0.660040 0.779502 0.430030 -0.215563
H87   H     H_    0.638304 0.733855 0.462028 0.092823
H88   H     H_    0.614314 0.815735 0.415223 0.094886
N53   N     N_3   0.066562 0.191908 0.824142 -0.212284
H89   H     H_    0.039109 0.245034 0.829209 0.090492
H90   H     H_    0.060642 0.162407 0.875632 0.103895
N54   N     N_3   0.345133 0.782594 0.571380 -0.221439
H91   H     H_    0.371072 0.738352 0.540510 0.097033
H92   H     H_    0.388028 0.820813 0.589177 0.092041
N55   N     N_3   0.775117 0.726432 0.623880 -0.205505
H93   H     H_    0.719466 0.728035 0.600768 0.099827
H94   H     H_    0.796621 0.670586 0.619207 0.097594
N56   N     N_3   0.661970 0.223115 0.568118 -0.215049
H95   H     H_    0.642650 0.269900 0.535997 0.096009
H96   H     H_    0.614747 0.188081 0.580449 0.095171
N57   N     N_3   0.569751 0.313478 0.673995 -0.210301
H97   H     H_    0.539342 0.262376 0.665705 0.094765
H98   H     H_    0.567549 0.345147 0.623456 0.104260
N58   N     N_3   0.684464 0.637695 0.729274 -0.199467
H99   H     H_    0.722835 0.598030 0.705775 0.099590
H100  H     H_    0.645084 0.654663 0.687230 0.100137
N59   N     N_3   0.434208 0.696784 0.684067 -0.210380
H101  H     H_    0.461389 0.750180 0.680427 0.097835
H102  H     H_    0.443430 0.667035 0.633206 0.100975
N60   N     N_3   0.159604 0.281003 0.931186 -0.214407
H103  H     H_    0.136799 0.236532 0.964062 0.102952
H104  H     H_    0.114737 0.317900 0.915463 0.091663
N61   N     N_3   0.568401 0.691000 0.321405 -0.214942
H105  H     H_    0.539334 0.743258 0.326902 0.095653
H106  H     H_    0.563216 0.660671 0.372499 0.100833
N62   N     N_3   0.665788 0.343886 0.274803 -0.205447
H107  H     H_    0.694325 0.384202 0.308845 0.098162
H108  H     H_    0.625042 0.315209 0.307975 0.100376
N63   N     N_3   0.263348 0.166507 0.089645 -0.207213
H109  H     H_    0.211226 0.145873 0.067627 0.099030
H110  H     H_    0.299866 0.119897 0.100062 0.099895
N64   N     N_3   0.173634 0.751665 0.072058 -0.214124
H111  H     H_    0.164152 0.806302 0.049271 0.101496
H112  H     H_    0.120721 0.723205 0.075505 0.100383

loop_
_geom_bond_atom_site_label_1
_geom_bond_atom_site_label_2
_ccdc_geom_bond_type
N51   H86   S    
C11   N11   A    
N7    Ni1   S    
C9    N9    A    
C28   C69   S    
C7    C55   A    
C8    C56   A    
C12   N12   A    
C13   N13   A    
C66   C79   A    
C21   C76   S    
N60   H103  S    
C86   C110  A    
C111  N63   S    
C21   H5    S    
C8    N8    A    
C43   C58   A    
C37   C56   A    
C36   H36   S    
N63   H109  S    
N10   N27   A    
C103  N55   S    
N14   N31   A    
C100  C109  A    
C26   C71   S    
N44   H72   S    
C20   H20   S    
N5    Ni3   S    
C21   H21   S    
C104  C105  A    
C81   C105  A    
N37   H58   S    
C24   H8    S    
N49   H82   S    
N30   Ni8   S    
C93   C101  A    
C97   C112  A    
C48   C63   A    
C97   N49   S    
C99   C110  A    
C66   C82   A    
C29   C68   S    
C43   N27   A    
C40   C55   A    
C37   N21   A    
N38   H59   S    
C20   C77   S    
C42   H42   S    
C21   C28   S    
C22   C27   S    
C96   C104  A    
N56   H96   S    
C18   H18   S    
C20   H4    S    
N19   Ni1   S    
N29   Ni5   S    
C68   C77   A    
C22   H6    S    
C11   N43   S    
N17   Ni3   S    
C90   C98   A    
C72   C73   A    
C3    N35   S    
C74   C90   A    
C55   C86   S    
N61   H106  S    
C34   H34   S    
N16   N29   A    
C38   C53   A    
C78   C94   A    
N59   H102  S    
C31   H31   S    
C58   C89   S    
C32   H32   S    
C73   C89   A    
C94   C102  A    
N8    N21   A    
C62   C93   S    
C17   C32   S    
C18   C31   S    
C19   C30   S    
C25   H9    S    
C50   C81   S    
N50   H83   S    
C67   C83   A    
C57   C92   S    
C29   H13   S    
C31   H15   S    
C2    N2    A    
C47   C62   A    
C61   C96   S    
C17   H1    S    
C47   H47   S    
C33   C52   A    
C48   H48   S    
C63   C94   S    
N49   H81   S    
C49   C84   S    
C10   C58   A    
N38   H60   S    
C23   H7    S    
N53   H89   S    
C39   C54   A    
C44   C59   A    
C14   C62   A    
C39   H39   S    
C40   H40   S    
C69   C76   A    
C2    C50   A    
N54   H91   S    
C30   C67   S    
C75   C91   A    
C24   H24   S    
N45   H73   S    
N33   H50   S    
C95   C103  A    
N57   H97   S    
C41   H41   S    
C35   N19   A    
C15   N47   S    
C33   N17   A    
C44   H44   S    
C45   H45   S    
N15   N32   A    
N18   Ni4   S    
C17   C80   S    
C27   H27   S    
N62   H108  S    
C19   C78   S    
C25   H25   S    
N7    N24   A    
N12   N25   A    
C29   H29   S    
N1    Ni1   S    
C102  C107  A    
N25   Ni7   S    
N40   H64   S    
C36   C51   A    
C76   C92   A    
N36   H56   S    
C23   C74   S    
C8    N40   S    
N9    Ni5   S    
C7    N7    A    
N48   H79   S    
C34   C49   A    
N6    Ni2   S    
C41   C60   A    
N58   H100  S    
N55   H93   S    
N4    Ni4   S    
C45   C64   A    
N60   H104  S    
C38   N22   A    
C105  N57   S    
C32   H16   S    
N52   H87   S    
C14   N46   S    
N24   Ni2   S    
N46   H75   S    
N57   H98   S    
N12   Ni8   S    
C82   C106  A    
C104  N56   S    
C6    N38   S    
N34   H51   S    
C70   C75   A    
N35   H54   S    
C32   C65   S    
C9    N41   S    
C91   C99   A    
C6    N6    A    
N13   Ni7   S    
C36   N20   A    
C1    N33   S    
N42   H68   S    
C69   C85   A    
N37   H57   S    
N11   N28   A    
N5    N22   A    
C6    C54   A    
N9    N26   A    
C85   C109  A    
N64   H111  S    
C11   C59   A    
C24   C73   S    
C87   C111  A    
N47   H77   S    
N13   N30   A    
C23   C26   S    
N15   Ni5   S    
C18   C79   S    
N3    N20   A    
N23   Ni3   S    
N59   H101  S    
N21   Ni1   S    
C3    N3    A    
C16   N16   A    
C101  C108  A    
C1    N1    A    
N26   Ni8   S    
N16   Ni8   S    
C43   H43   S    
C42   C57   A    
C100  N52   S    
C46   C61   A    
N35   H53   S    
C68   C84   A    
C106  N58   S    
N39   H61   S    
C3    C51   A    
C52   C83   S    
C79   C95   A    
N61   H105  S    
C65   C81   A    
N3    Ni3   S    
C28   H12   S    
N43   H70   S    
C71   C87   A    
N27   Ni5   S    
C34   N18   A    
N44   H71   S    
C41   N25   A    
N50   H84   S    
N63   H110  S    
N6    N23   A    
C37   H37   S    
C26   H26   S    
C71   C74   A    
C13   N45   S    
C10   N10   A    
C30   H30   S    
C23   H23   S    
C112  N64   S    
C14   N14   A    
N55   H94   S    
C77   C93   A    
C84   C108  A    
C47   N31   A    
C48   N32   A    
N32   Ni6   S    
C88   C112  A    
N54   H92   S    
N56   H95   S    
C26   H10   S    
N1    N18   A    
C39   N23   A    
C40   N24   A    
C46   H46   S    
C31   C66   S    
C98   N50   S    
C30   H14   S    
C101  N53   S    
N33   H49   S    
C28   H28   S    
C107  N59   S    
C18   H2    S    
C12   N44   S    
C4    C52   A    
C22   H22   S    
C5    C53   A    
N31   Ni7   S    
C4    N36   S    
N11   Ni7   S    
N41   H66   S    
N47   H78   S    
C99   N51   S    
C4    N4    A    
N28   Ni6   S    
C80   C96   A    
C109  N61   S    
C42   N26   A    
C5    N37   S    
C65   C80   A    
C10   N42   S    
C67   C78   A    
C22   C75   S    
C46   N30   A    
C72   C88   A    
C20   C29   S    
C19   H19   S    
N48   H80   S    
N14   Ni6   S    
C17   H17   S    
C2    N34   S    
C24   C25   S    
N53   H90   S    
C27   H11   S    
C56   C87   S    
C89   C97   A    
C59   C90   S    
N52   H88   S    
N39   H62   S    
C19   H3    S    
N2    Ni2   S    
C35   C50   A    
N46   H76   S    
N41   H65   S    
C13   C61   A    
C25   C72   S    
C35   H35   S    
N58   H99   S    
C51   C82   S    
N2    N19   A    
C27   C70   S    
C33   H33   S    
C44   N28   A    
C45   N29   A    
N34   H52   S    
C53   C88   S    
C5    N5    A    
N45   H74   S    
C102  N54   S    
N22   Ni4   S    
N51   H85   S    
C70   C86   A    
N10   Ni6   S    
N20   Ni2   S    
C92   C100  A    
C60   C91   S    
C98   C111  A    
C64   C95   S    
C54   C85   S    
C16   N48   S    
C15   N15   A    
N62   H107  S    
C7    N39   S    
C108  N60   S    
N64   H112  S    
C83   C107  A    
C103  C106  A    
C9    C57   A    
N40   H63   S    
N42   H67   S    
C12   C60   A    
C110  N62   S    
N36   H55   S    
N8    Ni4   S    
N43   H69   S    
C15   C63   A    
C16   C64   A    
C1    C49   A    
C38   H38   S    
N4    N17   A    
