data_mof_unit_26120.cif
_audit_creation_date              2013-03-05T16:18:52-0500
_audit_creation_method            fapswitch 2.2
_symmetry_space_group_name_H-M    P1
_symmetry_Int_Tables_number       1
_space_group_crystal_system       triclinic
_cell_length_a                    8.382475
_cell_length_b                    18.819111
_cell_length_c                    23.208378
_cell_angle_alpha                 100.403503
_cell_angle_beta                  90.886919
_cell_angle_gamma                 91.488682
_cell_volume                      3598.97803131

loop_
_atom_site_label
_atom_site_type_symbol
_atom_site_description
_atom_site_fract_x
_atom_site_fract_y
_atom_site_fract_z
_atom_type_partial_charge
P1    P     P_3+3 0.935930 0.665430 0.555670 0.462002
O1    O     O_2   0.110690 0.676100 0.539200 -0.294956
O2    O     O_3   0.863220 0.586720 0.534720 -0.430365
O3    O     O_3   0.368310 0.629070 0.432760 -0.312208
O4    O     O_2   0.249078 0.755444 0.467228 -0.339469
O5    O     O_3   0.964816 0.680171 0.632015 -0.616672
O6    O     O_3   0.337442 0.731892 0.359922 -0.504627
H1    H     H_    0.523096 0.672879 0.319709 0.096174
C1    C     C_3   0.431865 0.746643 0.266890 -0.784199
H2    H     H_    0.342603 0.706445 0.243662 0.286432
H3    H     H_    0.380458 0.801245 0.272840 0.226849
P2    P     P_3+3 0.382700 0.439650 0.365620 0.541994
P3    P     P_3+3 0.938439 0.587758 0.326150 0.474111
O7    O     O_2   0.210480 0.460990 0.358130 -0.317053
O8    O     O_3   0.959520 0.592090 0.401630 -0.405548
O9    O     O_2   0.077009 0.542883 0.297173 -0.335611
O10   O     O_3   0.372486 0.345322 0.345738 -0.521974
O11   O     O_3   0.978611 0.673983 0.310625 -0.500733
C2    C     C_3   0.923043 0.725369 0.356974 0.547507
H4    H     H_    0.998601 0.726801 0.396903 0.136997
H5    H     H_    0.797382 0.712997 0.366815 -0.060164
C3    C     C_3   0.932015 0.799744 0.340101 -0.992456
H6    H     H_    0.057232 0.813831 0.330648 0.282460
H7    H     H_    0.855669 0.800251 0.300645 0.257711
C4    C     C_3   0.816761 0.374804 0.345322 0.378113
H8    H     H_    0.706411 0.396494 0.366393 0.090381
H9    H     H_    0.913269 0.417155 0.352316 0.144400
C5    C     C_3   0.784605 0.351343 0.279806 -0.807038
H10   H     H_    0.675358 0.315972 0.272161 0.260427
H11   H     H_    0.767983 0.398904 0.258729 0.218701
H12   H     H_    0.887064 0.321076 0.259052 0.291178
Ba1   Ba    Ba6+2 0.157800 0.534120 0.474430 1.627287
C6    C     C_3   0.822918 0.672650 0.661456 0.393716
H13   H     H_    0.830245 0.624293 0.682347 0.103215
H14   H     H_    0.716609 0.665625 0.632169 0.182558
C7    C     C_3   0.807948 0.738129 0.710244 -0.783909
H15   H     H_    0.821758 0.788920 0.692581 0.251348
H16   H     H_    0.902216 0.738173 0.744237 0.278731
H17   H     H_    0.690191 0.736658 0.731183 0.260814
C8    C     C_3   0.321203 0.314502 0.392925 0.342620
H18   H     H_    0.197438 0.330418 0.403457 0.069105
H19   H     H_    0.400168 0.331871 0.432047 0.115437
C9    C     C_3   0.328757 0.232322 0.375945 -0.447211
H20   H     H_    0.312616 0.207314 0.415251 0.149387
H21   H     H_    0.449110 0.218520 0.358481 0.203167
P4    P     P_3+3 0.874370 0.334570 0.444280 0.438177
O12   O     O_2   0.699610 0.323860 0.460780 -0.364874
O13   O     O_3   0.947090 0.413280 0.465240 -0.440794
O14   O     O_3   0.442000 0.370930 0.567190 -0.384352
O15   O     O_3   0.863503 0.314368 0.367727 -0.582679
P5    P     P_3+3 0.871259 0.417655 0.676193 0.409400
O16   O     O_3   0.359410 0.538600 0.570730 -0.341294
O17   O     O_3   0.850780 0.407910 0.598320 -0.413805
O18   O     O_2   0.713203 0.448253 0.701761 -0.414770
O19   O     O_3   0.880818 0.331506 0.694610 -0.541015
Ba2   Ba    Ba6+2 0.652390 0.465870 0.525520 1.561492
P6    P     P_3+3 0.389387 0.720795 0.430956 0.518077
C10   C     C_3   0.475048 0.728214 0.326124 0.303284
H22   H     H_    0.567309 0.768629 0.346537 0.055155
H23   H     H_    0.540704 0.746725 0.240262 0.241596
O20   O     O_3   0.450900 0.461390 0.429220 -0.408155
C11   C     C_3   0.344643 0.699139 0.657589 0.771297
H24   H     H_    0.235473 0.668678 0.640973 0.026307
C12   C     C_3   0.300751 0.759904 0.707586 0.046691
H25   H     H_    0.399113 0.801307 0.717084 0.119894
H26   H     H_    0.192402 0.785901 0.694259 0.094022
P7    P     P_3+3 0.422142 0.562939 0.647012 0.497091
O21   O     O_2   0.599830 0.538970 0.641850 -0.363308
O22   O     O_3   0.457401 0.654830 0.676686 -0.606875
H27   H     H_    0.889575 0.840888 0.376620 0.220739
C13   C     C_3   0.901480 0.280420 0.643087 0.365231
H28   H     H_    0.794881 0.277044 0.613475 0.149906
H29   H     H_    0.007574 0.295675 0.619538 0.021954
C14   C     C_3   0.930803 0.206380 0.658875 -0.404413
H30   H     H_    0.002064 0.173231 0.624722 0.178236
H31   H     H_    0.002146 0.214530 0.700016 0.262372
P8    P     P_3+3 0.416181 0.275539 0.557942 0.386029
C15   C     C_3   0.381257 0.274003 0.670126 0.964550
O23   O     O_2   0.544345 0.243122 0.514748 -0.403327
O24   O     O_3   0.468559 0.242034 0.621298 -0.597195
H32   H     H_    0.262667 0.292470 0.657932 -0.170151
C16   C     C_3   0.483187 0.338067 0.701197 -0.452624
H33   H     H_    0.468764 0.382452 0.676382 0.192527
H34   H     H_    0.607144 0.320700 0.698813 0.267081
C17   C     C_R   0.977206 0.954809 0.530696 -0.035336
C18   C     C_R   0.049428 0.913140 0.568215 0.073858
C19   C     C_R   0.182842 0.943392 0.603061 0.164815
C20   C     C_R   0.260703 0.005823 0.590946 -0.218283
C21   C     C_R   0.189400 0.047514 0.553913 0.114384
C22   C     C_R   0.042381 0.023999 0.526339 -0.000611
C23   C     C_R   0.256477 0.115070 0.548306 -0.161135
C24   C     C_R   0.168320 0.164922 0.523095 -0.047779
C25   C     C_R   0.018238 0.141841 0.495859 -0.007733
C26   C     C_R   0.959152 0.070178 0.495657 -0.011221
C27   C     C_R   0.220812 0.238077 0.526721 0.183879
C28   C     C_R   0.123145 0.286329 0.505309 -0.558662
C29   C     C_R   0.979435 0.264296 0.476029 0.271956
C30   C     C_R   0.926463 0.190405 0.469504 -0.053315
C31   C     C_R   0.835414 0.929042 0.499998 -0.005726
C32   C     C_R   0.778772 0.857066 0.499415 0.024339
C33   C     C_R   0.865017 0.810880 0.530478 -0.041929
C34   C     C_R   0.988879 0.842343 0.569172 -0.111114
H35   H     H_    0.369691 0.025125 0.614879 0.159728
H36   H     H_    0.164634 0.341788 0.508530 0.167935
H37   H     H_    0.373484 0.129518 0.567036 0.195617
H38   H     H_    0.040579 0.811022 0.598924 0.196473
C35   C     C_R   0.784519 0.163428 0.438566 -0.154472
C36   C     C_R   0.725558 0.092631 0.438766 0.118047
C37   C     C_R   0.812076 0.046066 0.467983 0.001783
C38   C     C_R   0.751154 0.975264 0.469529 0.017150
C39   C     C_R   0.578977 0.068003 0.411210 -0.180130
C40   C     C_R   0.518749 0.998255 0.412701 -0.194635
C41   C     C_R   0.604320 0.951304 0.441489 0.148197
C42   C     C_R   0.635429 0.831883 0.468171 -0.056742
C43   C     C_R   0.546263 0.880637 0.441824 -0.280621
C44   C     C_R   0.588078 0.758276 0.463007 0.168124
C45   C     C_R   0.692499 0.710534 0.484112 -0.324890
C46   C     C_R   0.824184 0.735266 0.521416 0.248425
H39   H     H_    0.716732 0.197217 0.414841 0.168993
H40   H     H_    0.510241 0.102790 0.388643 0.130885
H41   H     H_    0.405259 0.980917 0.391023 0.134341
H42   H     H_    0.433853 0.863497 0.419486 0.169650
H43   H     H_    0.663133 0.653235 0.475184 0.174042
H44   H     H_    0.428470 0.321966 0.035419 0.237394
C47   C     C_R   0.634042 0.523800 0.333758 -0.562665
C48   C     C_R   0.362184 0.565115 0.954418 -0.046713
C49   C     C_R   0.315673 0.562980 0.895437 0.550944
O25   O     O_2   0.317010 0.618766 0.875582 -0.507440
N1    N     N_R   0.265135 0.498745 0.860392 -0.178247
C50   C     C_R   0.248719 0.436690 0.884866 0.549153
O26   O     O_2   0.177727 0.383961 0.857160 -0.501821
C51   C     C_R   0.314727 0.434020 0.941500 -0.263307
C52   C     C_R   0.369323 0.500093 0.976508 -0.040538
C53   C     C_R   0.403028 0.630976 0.991744 -0.107783
C54   C     C_R   0.448619 0.632599 0.050117 -0.117065
C55   C     C_R   0.462908 0.568131 0.072092 -0.033767
C56   C     C_R   0.428810 0.501755 0.034474 -0.005371
C57   C     C_R   0.331203 0.368818 0.964875 0.540722
C58   C     C_R   0.409919 0.371521 0.019107 -0.157525
C59   C     C_R   0.456541 0.437140 0.054545 -0.152792
C60   C     C_R   0.525209 0.439738 0.110875 0.720544
N2    N     N_R   0.530852 0.503899 0.150873 -0.161080
C61   C     C_R   0.507282 0.568281 0.131162 0.525065
C62   C     C_2   0.078152 0.475246 0.776304 -0.159155
C63   C     C_3   0.036790 0.480359 0.713682 0.206598
C64   C     C_1   0.313071 0.515486 0.699510 0.228925
C65   C     C_2   0.348720 0.519789 0.756609 -0.116329
C66   C     C_2   0.225832 0.497407 0.798343 0.103195
C67   C     C_R   0.707311 0.540490 0.236975 -0.208861
C68   C     C_R   0.743505 0.548314 0.296553 0.192860
C69   C     C_R   0.495671 0.483694 0.311718 0.176624
C70   C     C_R   0.459741 0.472638 0.249733 0.319341
C71   C     C_R   0.565645 0.504897 0.212838 -0.008087
O27   O     O_2   0.578466 0.385137 0.124445 -0.525244
O28   O     O_2   0.524896 0.625704 0.165002 -0.614654
C72   C     C_2   0.183662 0.478023 0.676941 -0.241422
H45   H     H_    0.475152 0.684519 0.077753 0.169566
H46   H     H_    0.790770 0.561685 0.208701 0.174554
H47   H     H_    0.397090 0.681783 0.976188 0.177160
H48   H     H_    0.468116 0.536957 0.772967 0.164828
H49   H     H_    0.985356 0.460873 0.804591 0.165218
H50   H     H_    0.663334 0.531369 0.380087 0.182906
N3    N     N_2   0.206771 0.204004 0.332298 -0.044226
H51   H     H_    0.093238 0.219442 0.344478 0.220033
C73   C     C_3   0.213576 0.127192 0.310514 -0.791152
H52   H     H_    0.190511 0.096635 0.346465 0.220447
H53   H     H_    0.332363 0.113478 0.291717 0.251612
H54   H     H_    0.121315 0.110931 0.275436 0.251929
S1    S     S_3+6 0.432262 0.736395 0.600567 -0.090135
O29   O     O_2   0.587582 0.774919 0.620659 -0.430310
O30   O     O_2   0.458404 0.673664 0.552462 -0.277196
O31   O     O_3   0.315132 0.795340 0.576648 -0.563831
H55   H     H_    0.388837 0.828683 0.560764 0.364454
S2    S     S_3+6 0.259682 0.727590 0.773622 -0.015397
O32   O     O_2   0.151274 0.661556 0.760848 -0.331020
O33   O     O_2   0.414341 0.709456 0.800388 -0.221396
O34   O     O_3   0.171107 0.792732 0.820407 -0.517778
H56   H     H_    0.149429 0.771057 0.855446 0.389303
N4    N     N_2   0.782583 0.168833 0.667464 -0.044872
H57   H     H_    0.787128 0.143698 0.703424 0.246782
C74   C     C_3   0.716518 0.121344 0.616242 -0.732577
H58   H     H_    0.791140 0.073149 0.605002 0.212502
H59   H     H_    0.708839 0.149860 0.578422 0.258267
H60   H     H_    0.595075 0.102893 0.625916 0.257143
S3    S     S_3+6 0.348105 0.207506 0.715939 -0.050914
O35   O     O_2   0.234672 0.234998 0.763713 -0.245193
O36   O     O_2   0.276292 0.139848 0.679952 -0.367972
O37   O     O_3   0.520574 0.187807 0.746309 -0.538520
H61   H     H_    0.491924 0.149490 0.768802 0.390206
N5    N     N_2   0.443820 0.364468 0.761432 -0.118234
H62   H     H_    0.327153 0.358429 0.772288 0.257961
C75   C     C_3   0.567474 0.363244 0.805621 -0.547808
H63   H     H_    0.532680 0.395353 0.847984 0.180025
H64   H     H_    0.680804 0.387623 0.793131 0.240692
H65   H     H_    0.588376 0.307123 0.811447 0.295960
N6    N     N_2   0.233380 0.914718 0.652795 -0.110509
H66   H     H_    0.353224 0.923691 0.663209 0.194513
C76   C     C_3   0.134556 0.935342 0.703334 -0.832548
H67   H     H_    0.181425 0.912114 0.740683 0.268786
H68   H     H_    0.009951 0.914661 0.693451 0.244134
H69   H     H_    0.135497 0.995174 0.716540 0.280617
S4    S     S_3+6 0.264650 0.281412 0.928798 0.041636
O38   O     O_2   0.089418 0.281206 0.913912 -0.195147
O39   O     O_2   0.357542 0.260787 0.873882 -0.230684
O40   O     O_3   0.294358 0.219565 0.971663 -0.521432
H70   H     H_    0.260224 0.172761 0.947189 0.388139
S5    S     S_3+6 0.296209 0.415177 0.215889 0.034312
O41   O     O_2   0.359885 0.342365 0.191216 -0.194937
O42   O     O_2   0.163852 0.402653 0.255681 -0.237341
O43   O     O_3   0.214125 0.450065 0.160952 -0.532041
H71   H     H_    0.179219 0.498595 0.179525 0.345301
N7    N     N_2   0.158927 0.462959 0.615959 -0.112604
H72   H     H_    0.135813 0.409198 0.599480 0.153930
C77   C     C_3   0.053523 0.513629 0.596115 -0.458888
H73   H     H_    0.007898 0.489401 0.552778 0.279793
H74   H     H_    0.112795 0.565951 0.596862 0.218941
H75   H     H_    0.949778 0.528059 0.624022 0.183115

loop_
_geom_bond_atom_site_label_1
_geom_bond_atom_site_label_2
_geom_bond_distance
_ccdc_geom_bond_type
C19   C20   1.403770 A    
C52   C56   1.422225 A    
C73   H52   1.112092 S    
C54   H45   1.083293 S    
C62   H49   1.085468 S    
C72   N7    1.403352 S    
S1    O30   1.494363 D    
S1    O29   1.499413 D    
C23   H37   1.074770 S    
C70   S5    1.802292 S    
C47   H50   1.082305 S    
C62   C66   1.358136 D    
C49   N1    1.382008 Am   
C42   C43   1.413678 A    
C57   C58   1.404135 A    
C67   C68   1.391694 A    
C54   C55   1.405526 A    
C17   C18   1.412293 A    
C44   C45   1.414159 A    
C4    C5    1.522577 S    
C48   C49   1.410740 A    
C7    H17   1.108864 S    
S4    O39   1.499704 D    
P3    O11   1.750095 S    
C33   C46   1.432018 A    
C5    H10   1.110778 S    
C2    H5    1.108973 S    
C19   N6    1.422888 S    
O11   C2    1.404445 S    
C55   C61   1.414402 A    
P1    O2    1.576643 S    
N4    C74   1.445261 S    
C15   O24   1.408547 S    
C60   O27   1.220945 D    
S3    O36   1.497216 D    
O6    P6    1.748669 S    
P5    C63   1.892504 S    
C51   C57   1.437323 A    
C29   C30   1.429525 A    
C6    C7    1.524725 S    
C36   C37   1.409276 A    
O1    Ba1   2.859624 S    
P1    O1    1.536944 D    
C67   C71   1.405417 A    
S2    O32   1.502633 D    
Ba1   O16   2.768730 S    
N1    C66   1.467891 S    
C11   C12   1.531445 S    
C47   C69   1.404767 A    
C65   C66   1.527213 S    
H1    C10   1.111947 S    
C4    O15   1.395674 S    
C63   C72   1.505495 S    
O43   H71   0.990522 S    
C8    C9    1.528669 S    
C14   N4    1.447624 S    
C27   C28   1.389523 A    
C48   C52   1.411794 A    
C51   C52   1.417657 A    
S4    O40   1.682837 S    
P2    O10   1.751151 S    
S5    O43   1.681899 S    
C69   C70   1.441769 A    
C76   H67   1.109969 S    
C21   C23   1.405090 A    
C1    H2    1.110665 S    
O6    C10   1.401129 S    
P5    O19   1.753167 S    
C8    H19   1.110114 S    
C53   H47   1.083323 S    
C73   H53   1.111100 S    
C43   H42   1.081377 S    
P2    Ba1   3.433950 S    
Ba1   O13   2.818013 S    
P2    C69   1.875932 S    
P7    C64   1.871606 S    
C65   H48   1.085045 S    
C35   H39   1.079780 S    
C40   C41   1.404606 A    
C22   C26   1.410199 A    
P6    C44   1.880404 S    
P8    O23   1.542006 D    
C76   H68   1.110991 S    
C56   C59   1.402004 A    
P4    O13   1.576702 S    
S4    O38   1.503491 D    
C64   C65   1.341507 D    
S5    O41   1.501509 D    
C33   C34   1.407901 A    
O8    Ba1   2.735012 S    
C2    C3    1.520375 S    
C32   C42   1.418979 A    
C59   C60   1.412431 A    
N6    C76   1.447402 S    
C14   H30   1.108909 S    
C74   H59   1.110265 S    
O7    Ba1   2.846274 S    
C23   C24   1.410486 A    
C13   H29   1.109263 S    
C77   H73   1.085891 S    
C55   C56   1.408581 A    
S3    O37   1.677792 S    
C10   H22   1.108600 S    
C74   H58   1.109531 S    
H44   C58   1.081858 S    
P8    C27   1.850088 S    
C24   C27   1.421814 A    
C30   C35   1.414059 A    
P7    O21   1.567556 D    
C11   O22   1.395212 S    
C39   H40   1.081172 S    
P5    O17   1.788429 S    
O10   C8    1.396983 S    
C75   H64   1.109456 S    
O3    P6    1.738732 S    
C50   C51   1.427955 A    
C9    H20   1.107934 S    
C75   H65   1.106743 S    
N5    H62   1.022248 S    
C11   H24   1.093953 S    
C17   C31   1.405166 A    
C1    H3    1.110962 S    
O2    Ba2   2.818750 S    
C15   C16   1.522170 S    
C61   O28   1.219852 D    
C31   C32   1.421312 A    
C38   C41   1.407893 A    
C35   C36   1.409792 A    
C28   C29   1.389897 A    
C76   H69   1.112045 S    
C6    H13   1.108314 S    
Ba2   O20   2.768130 S    
C15   S3    1.801483 S    
N7    H72   1.027238 S    
C9    H21   1.112559 S    
S2    O34   1.680674 S    
C48   C53   1.408855 A    
O3    Ba1   2.784798 S    
O16   P7    1.812832 S    
C14   H31   1.103406 S    
C8    H18   1.106044 S    
P4    C29   1.860097 S    
P2    O7    1.524184 D    
C16   H33   1.104898 S    
C73   H54   1.110286 S    
C16   H34   1.096559 S    
P3    O8    1.744891 S    
S1    O31   1.662766 S    
C3    H7    1.110621 S    
C12   S2    1.783034 S    
C49   O25   1.220187 D    
C18   C34   1.417433 A    
C57   S4    1.777210 S    
C20   H35   1.081334 S    
C3    H27   1.109538 S    
O31   H55   0.990848 S    
C58   C59   1.397236 A    
N1    C50   1.392485 Am   
C67   H46   1.083202 S    
O17   Ba2   2.735472 S    
O13   Ba2   2.961946 S    
C11   S1    1.766574 S    
O40   H70   0.990716 S    
P4    O12   1.537259 D    
C7    H15   1.110088 S    
N5    C75   1.450351 S    
C74   H60   1.106411 S    
C39   C40   1.400540 A    
N3    C73   1.445564 S    
C18   C19   1.414736 A    
C5    H12   1.110503 S    
C3    H6    1.110766 S    
N7    C77   1.446320 S    
N6    H66   1.032016 S    
C77   H75   1.102579 S    
Ba1   O20   2.957455 S    
C13   C14   1.528248 S    
C42   C44   1.414479 A    
C17   C22   1.420021 A    
C36   C39   1.404492 A    
C53   C54   1.396689 A    
P3    C68   1.846884 S    
C4    H9    1.109831 S    
O14   Ba2   2.784039 S    
C25   C26   1.423749 A    
P4    O15   1.748887 S    
C26   C37   1.406956 A    
C45   C46   1.408131 A    
O5    C6    1.397526 S    
O4    P6    1.545763 D    
C62   C63   1.509406 S    
C1    H23   1.109968 S    
C12   H25   1.111074 S    
P5    O18   1.542602 D    
C2    H4    1.110187 S    
C28   H36   1.080737 S    
C50   O26   1.216271 D    
C4    H8    1.105864 S    
C13   H28   1.112225 S    
Ba2   O21   2.846509 S    
C37   C38   1.421233 A    
C75   H63   1.104683 S    
C7    H16   1.107814 S    
P2    O20   1.554532 S    
C31   C38   1.412146 A    
C15   H32   1.110773 S    
S3    O35   1.500725 D    
P8    O24   1.755462 S    
C5    H11   1.105584 S    
C24   C25   1.420839 A    
C6    H14   1.102836 S    
O14   P8    1.776174 S    
C34   H38   1.078434 S    
C77   H74   1.088498 S    
P1    C46   1.911782 S    
P1    Ba1   3.432931 S    
N2    C71   1.459641 S    
C45   H43   1.081780 S    
O2    Ba1   2.961242 S    
C16   N5    1.442908 S    
S2    O33   1.502547 D    
N3    H51   1.031047 S    
C47   C68   1.395237 A    
N4    H57   1.031628 S    
C40   H41   1.083682 S    
C64   C72   1.325681 D    
C20   C21   1.401254 A    
C1    C10   1.518037 S    
O34   H56   0.990570 S    
P3    O9    1.544257 D    
P4    Ba2   3.433335 S    
P1    O5    1.755190 S    
S5    O42   1.495361 D    
N2    C61   1.387847 Am   
O37   H61   0.990452 S    
C32   C33   1.428527 A    
C70   C71   1.439834 A    
P7    O22   1.757613 S    
C21   C22   1.403261 A    
C60   N2    1.383028 Am   
C25   C30   1.423045 A    
Ba1   Ba2   4.573677 S    
O19   C13   1.408557 S    
O16   Ba2   2.956603 S    
C12   H26   1.108579 S    
O12   Ba2   2.860004 S    
C41   C43   1.405601 A    
C9    N3    1.449263 S    
