data_mof_unit_55000.cif
_audit_creation_date              2012-12-10T20:52:58-0500
_audit_creation_method            fapswitch 2.2
_symmetry_space_group_name_H-M    P1
_symmetry_Int_Tables_number       1
_space_group_crystal_system       triclinic
_cell_length_a                    18.35358
_cell_length_b                    18.353745
_cell_length_c                    18.353827
_cell_angle_alpha                 59.876232
_cell_angle_beta                  59.876191
_cell_angle_gamma                 59.87554
_cell_volume                      4359.46659473

loop_
_atom_site_label
_atom_site_type_symbol
_atom_type_description
_atom_site_fract_x
_atom_site_fract_y
_atom_site_fract_z
_atom_type_partial_charge
C1    C     C_R   0.389922 0.110175 0.110151 0.782651
C2    C     C_R   0.378743 0.804686 0.780572 -0.178369
C3    C     C_R   0.035268 0.551894 0.910150 0.071333
C4    C     C_R   0.448118 0.089857 0.964727 0.071343
C5    C     C_R   0.551877 0.910140 0.035274 0.071336
C6    C     C_R   0.945890 0.946024 0.553821 -0.159394
C7    C     C_R   0.054109 0.053976 0.446177 -0.159371
C8    C     C_R   0.946025 0.553818 0.945890 -0.159481
C9    C     C_R   0.053976 0.446179 0.054109 -0.159437
C10   C     C_R   0.553819 0.945890 0.946025 -0.159420
C11   C     C_R   0.446179 0.054109 0.053975 -0.159394
C12   C     C_3   0.033242 0.728154 0.099108 -0.929584
C13   C     C_R   0.195515 0.219810 0.621034 -0.178453
C14   C     C_3   0.966847 0.272503 0.900974 -0.929457
C15   C     C_3   0.728660 0.099194 0.033188 -0.929698
C16   C     C_3   0.271791 0.900856 0.966870 -0.929629
C17   C     C_3   0.099147 0.033509 0.728782 -0.929756
C18   C     C_3   0.900873 0.966644 0.271642 -0.929686
C19   C     C_R   0.804573 0.780400 0.378821 -0.178412
C20   C     C_R   0.177234 0.579231 0.285117 -0.135252
C21   C     C_R   0.822987 0.420481 0.714934 -0.135482
C22   C     C_R   0.579009 0.285111 0.177357 -0.134996
C23   C     C_R   0.420799 0.714924 0.822783 -0.135139
C24   C     C_R   0.285226 0.177517 0.578919 -0.135120
C25   C     C_R   0.714833 0.822652 0.420899 -0.135191
C26   C     C_R   0.088131 0.585490 0.314564 0.108350
C27   C     C_R   0.610078 0.889825 0.889849 0.782647
C28   C     C_R   0.912007 0.414479 0.685464 0.108234
C29   C     C_R   0.585485 0.314576 0.088179 0.108385
C30   C     C_R   0.414499 0.685441 0.911905 0.108308
C31   C     C_R   0.314610 0.088337 0.585437 0.108457
C32   C     C_R   0.685408 0.911785 0.414539 0.108369
C33   C     C_R   0.041657 0.634157 0.253587 -0.153585
C34   C     C_R   0.958446 0.366101 0.746446 -0.153303
C35   C     C_R   0.634386 0.253628 0.041651 -0.153828
C36   C     C_R   0.365801 0.746392 0.958410 -0.153660
C37   C     C_R   0.253606 0.041867 0.634397 -0.153782
C38   C     C_R   0.110175 0.110151 0.389921 0.782644
C39   C     C_R   0.746396 0.958256 0.365768 -0.153659
C40   C     C_R   0.083789 0.676585 0.163505 0.260903
C41   C     C_R   0.916355 0.323721 0.836563 0.260934
C42   C     C_R   0.676829 0.163557 0.083800 0.260906
C43   C     C_R   0.323390 0.836486 0.916290 0.260935
C44   C     C_R   0.163566 0.084067 0.676872 0.260860
C45   C     C_R   0.836466 0.916095 0.323333 0.260902
C46   C     C_R   0.172978 0.669934 0.134720 -0.111763
C47   C     C_R   0.827249 0.330108 0.865370 -0.111750
C48   C     C_R   0.669951 0.134753 0.173065 -0.111798
C49   C     C_R   0.889825 0.889848 0.610079 0.782637
C50   C     C_R   0.330090 0.865309 0.827080 -0.111788
C51   C     C_R   0.134846 0.173329 0.669961 -0.111767
C52   C     C_R   0.865230 0.826877 0.330087 -0.111780
C53   C     C_R   0.987984 0.591106 0.464620 -0.274491
C54   C     C_R   0.012055 0.408887 0.535383 -0.274498
C55   C     C_R   0.591110 0.464618 0.987971 -0.274383
C56   C     C_R   0.408888 0.535382 0.012045 -0.274444
C57   C     C_R   0.464631 0.988043 0.591091 -0.274479
C58   C     C_R   0.535368 0.011994 0.408905 -0.274527
C59   C     C_R   0.944480 0.552441 0.555101 -0.050817
C60   C     C_R   0.110152 0.389921 0.110174 0.782635
C61   C     C_R   0.055559 0.447553 0.444902 -0.050839
C62   C     C_R   0.552446 0.555096 0.944448 -0.050803
C63   C     C_R   0.447551 0.444905 0.055571 -0.050829
C64   C     C_R   0.555092 0.944451 0.552449 -0.050811
C65   C     C_R   0.444907 0.055584 0.447547 -0.050826
C66   C     C_R   0.956509 0.460093 0.590963 0.000464
C67   C     C_R   0.043555 0.539893 0.409046 0.000499
C68   C     C_R   0.460102 0.590954 0.956464 0.000502
C69   C     C_R   0.539892 0.409049 0.043570 0.000527
C70   C     C_R   0.590937 0.956407 0.460122 0.000511
C71   C     C_R   0.889848 0.610078 0.889826 0.782632
C72   C     C_R   0.409064 0.043650 0.539869 0.000529
C73   C     C_R   0.110887 0.390428 0.389753 0.787758
C74   C     C_R   0.889124 0.609571 0.610247 0.787790
C75   C     C_R   0.390427 0.389753 0.110894 0.787744
C76   C     C_R   0.609572 0.610246 0.889112 0.787780
C77   C     C_R   0.389754 0.110899 0.390426 0.787726
C78   C     C_R   0.610245 0.889111 0.609573 0.787749
C79   C     C_R   0.179908 0.927717 0.398248 -0.145112
C80   C     C_R   0.820087 0.072287 0.601741 -0.145124
C81   C     C_R   0.927749 0.398164 0.179873 -0.145125
C82   C     C_R   0.219456 0.621305 0.195367 -0.178453
C83   C     C_R   0.072254 0.601826 0.820124 -0.145146
C84   C     C_R   0.398196 0.179888 0.927738 -0.145115
C85   C     C_R   0.601792 0.820107 0.072266 -0.145128
C86   C     C_R   0.214455 0.839431 0.401483 -0.144441
C87   C     C_R   0.785537 0.160576 0.598497 -0.144442
C88   C     C_R   0.839481 0.401353 0.214400 -0.144452
C89   C     C_R   0.160525 0.598630 0.785594 -0.144450
C90   C     C_R   0.401405 0.214425 0.839463 -0.144446
C91   C     C_R   0.598577 0.785567 0.160543 -0.144442
C92   C     C_R   0.160802 0.785942 0.454806 -0.151821
C93   C     C_R   0.780811 0.378441 0.804713 -0.178463
C94   C     C_R   0.839190 0.214065 0.545174 -0.151815
C95   C     C_R   0.785994 0.454670 0.160745 -0.151831
C96   C     C_R   0.214012 0.545312 0.839249 -0.151818
C97   C     C_R   0.454728 0.160772 0.785975 -0.151823
C98   C     C_R   0.545256 0.839221 0.214031 -0.151815
C99   C     C_R   0.072334 0.820456 0.505181 -0.152276
C100  C     C_R   0.927661 0.179549 0.494808 -0.152267
C101  C     C_R   0.820490 0.505087 0.072295 -0.152296
C102  C     C_R   0.179514 0.494901 0.927701 -0.152281
C103  C     C_R   0.505129 0.072314 0.820477 -0.152270
C104  C     C_R   0.621093 0.195371 0.219598 -0.178377
C105  C     C_R   0.494862 0.927682 0.179526 -0.152261
C106  C     C_R   0.035313 0.910311 0.502382 0.072456
C107  C     C_R   0.964684 0.089691 0.497613 0.072466
C108  C     C_R   0.910329 0.502334 0.035293 0.072420
C109  C     C_R   0.089673 0.497659 0.964704 0.072443
C110  C     C_R   0.502355 0.035303 0.910323 0.072453
C111  C     C_R   0.497640 0.964695 0.089679 0.072467
C112  C     C_R   0.089867 0.964716 0.448143 0.071350
C113  C     C_R   0.910130 0.035286 0.551851 0.071343
C114  C     C_R   0.964734 0.448099 0.089848 0.071346
H1    H     H_    0.812016 0.282808 0.542352 0.129432
H2    H     H_    0.338481 0.563025 0.019945 0.175325
H3    H     H_    0.437003 0.980187 0.661484 0.175285
H4    H     H_    0.562998 0.019849 0.338512 0.175325
H5    H     H_    0.224821 0.966103 0.356779 0.126863
H6    H     H_    0.775175 0.033900 0.643210 0.126857
H7    H     H_    0.966131 0.356701 0.224789 0.126897
H8    H     H_    0.033871 0.643289 0.775208 0.126893
H9    H     H_    0.356728 0.224803 0.966123 0.126888
H10   H     H_    0.643258 0.775192 0.033881 0.126882
H11   H     H_    0.283348 0.812278 0.362848 0.134266
H12   H     H_    0.187974 0.717201 0.457622 0.129439
H13   H     H_    0.716642 0.187731 0.637126 0.134265
H14   H     H_    0.812340 0.362687 0.283279 0.134284
H15   H     H_    0.187666 0.637293 0.716713 0.134284
H16   H     H_    0.362749 0.283311 0.812319 0.134272
H17   H     H_    0.637225 0.716680 0.187689 0.134274
H18   H     H_    0.033818 0.775668 0.546620 0.125895
H19   H     H_    0.966177 0.224336 0.453368 0.125891
H20   H     H_    0.775701 0.546524 0.033780 0.125967
H21   H     H_    0.224303 0.453463 0.966215 0.125957
H22   H     H_    0.546569 0.033800 0.775688 0.125927
H23   H     H_    0.282742 0.542526 0.812091 0.129461
H24   H     H_    0.453423 0.966197 0.224314 0.125925
H25   H     H_    0.206509 0.702088 0.065418 0.129233
H26   H     H_    0.793747 0.297985 0.934697 0.129198
H27   H     H_    0.702107 0.065458 0.206610 0.129240
H28   H     H_    0.297956 0.934622 0.793557 0.129204
H29   H     H_    0.065578 0.206911 0.702150 0.129272
H30   H     H_    0.934522 0.793325 0.297930 0.129233
H31   H     H_    0.288366 0.615977 0.172754 0.134199
H32   H     H_    0.711962 0.383578 0.827341 0.134179
H33   H     H_    0.615598 0.172741 0.288564 0.134220
H34   H     H_    0.717266 0.457451 0.187901 0.129463
H35   H     H_    0.384107 0.827329 0.711646 0.134208
H36   H     H_    0.172947 0.288773 0.615519 0.134245
H37   H     H_    0.827172 0.711468 0.384223 0.134222
H38   H     H_    0.213899 0.541452 0.331518 0.113922
H39   H     H_    0.786349 0.458042 0.668528 0.114077
H40   H     H_    0.541053 0.331490 0.214063 0.113801
H41   H     H_    0.458603 0.668543 0.786094 0.113917
H42   H     H_    0.331647 0.214178 0.540922 0.113810
H43   H     H_    0.668423 0.785991 0.458757 0.113902
H44   H     H_    0.973015 0.638467 0.276111 0.123776
H45   H     H_    0.542455 0.812055 0.282765 0.129457
H46   H     H_    0.027023 0.361994 0.723899 0.123739
H47   H     H_    0.638860 0.276160 0.972954 0.123784
H48   H     H_    0.361463 0.723842 0.027065 0.123773
H49   H     H_    0.276077 0.973166 0.638911 0.123823
H50   H     H_    0.723890 0.026922 0.361378 0.123805
H51   H     H_    0.075036 0.758087 0.030533 0.243692
H52   H     H_    0.011499 0.682922 0.096867 0.256176
H53   H     H_    0.973410 0.782808 0.121295 0.240024
H54   H     H_    0.925094 0.242566 0.969575 0.243673
H55   H     H_    0.026816 0.217880 0.878884 0.240005
H56   H     H_    0.457524 0.187936 0.717242 0.129460
H57   H     H_    0.988362 0.317985 0.903105 0.256214
H58   H     H_    0.758577 0.030626 0.075005 0.243706
H59   H     H_    0.683614 0.096904 0.011251 0.256137
H60   H     H_    0.783346 0.121450 0.973477 0.240039
H61   H     H_    0.241875 0.969445 0.925081 0.243697
H62   H     H_    0.217121 0.878664 0.026667 0.240025
H63   H     H_    0.316997 0.903067 0.988667 0.256164
H64   H     H_    0.030612 0.075364 0.758715 0.243699
H65   H     H_    0.096770 0.011574 0.683790 0.256149
H66   H     H_    0.121415 0.973799 0.783463 0.240049
H67   H     H_    0.980077 0.661514 0.436976 0.175335
H68   H     H_    0.969436 0.924824 0.241718 0.243695
H69   H     H_    0.878661 0.026427 0.216973 0.240034
H70   H     H_    0.903155 0.988464 0.316785 0.256168
H71   H     H_    0.019961 0.338480 0.563029 0.175382
H72   H     H_    0.661517 0.436976 0.980068 0.175279
O1    O     O_3   0.250000 0.250000 0.250000 -0.485983
O2    O     O_R   0.865800 0.694910 0.573470 -0.642279
O3    O     O_R   0.305090 0.426530 0.134200 -0.642297
O4    O     O_R   0.694910 0.573470 0.865800 -0.642286
O5    O     O_R   0.426530 0.134200 0.305090 -0.642306
O6    O     O_R   0.573470 0.865800 0.694910 -0.642294
O7    O     O_R   0.134190 0.426530 0.134200 -0.639154
O8    O     O_R   0.865810 0.573470 0.865800 -0.639210
O9    O     O_R   0.426530 0.134200 0.134190 -0.639110
O10   O     O_R   0.573470 0.865800 0.865810 -0.639148
O11   O     O_R   0.134200 0.134190 0.426530 -0.639113
O12   O     O_3   0.750000 0.750000 0.750000 -0.485973
O13   O     O_R   0.865800 0.865810 0.573470 -0.639143
O14   O     O_R   0.426530 0.305080 0.134210 -0.632013
O15   O     O_R   0.573470 0.694920 0.865790 -0.632021
O16   O     O_R   0.305080 0.134210 0.426530 -0.632016
O17   O     O_R   0.694920 0.865790 0.573470 -0.632014
O18   O     O_R   0.134210 0.426530 0.305080 -0.632037
O19   O     O_R   0.865790 0.573470 0.694920 -0.632049
O20   O     O_R   0.305080 0.134200 0.134200 -0.637195
O21   O     O_R   0.694920 0.865800 0.865800 -0.637180
O22   O     O_R   0.134200 0.134200 0.305080 -0.637200
O23   O     O_R   0.865800 0.865800 0.694920 -0.637187
O24   O     O_R   0.134200 0.305080 0.134200 -0.637192
O25   O     O_R   0.865800 0.694920 0.865800 -0.637171
O26   O     O_R   0.134200 0.305090 0.426530 -0.642288
Zn1   Zn    Zn3+2 0.206620 0.206630 0.380140 0.963131
Zn2   Zn    Zn3+2 0.793380 0.793370 0.619860 0.963126
Zn3   Zn    Zn3+2 0.206630 0.380140 0.206620 0.963086
Zn4   Zn    Zn3+2 0.793370 0.619860 0.793380 0.963062
Zn5   Zn    Zn3+2 0.380140 0.206620 0.206630 0.963130
Zn6   Zn    Zn3+2 0.619860 0.793380 0.793370 0.963122
Zn7   Zn    Zn3+2 0.206620 0.206620 0.206620 0.959217
Zn8   Zn    Zn3+2 0.793380 0.793380 0.793380 0.959223

loop_
_geom_bond_atom_site_label_1
_geom_bond_atom_site_label_2
_ccdc_geom_bond_type
C10   C27   S    
C17   H64   S    
C24   H42   S    
O1    Zn1   S    
C22   C29   A    
C23   H41   S    
O13   Zn2   S    
C73   O26   A    
C1    C11   S    
O6    Zn6   S    
O12   Zn4   S    
C77   O16   A    
O5    Zn5   S    
C12   H53   S    
C87   H13   S    
C53   C59   A    
C89   H15   S    
C106  C112  A    
C75   O14   A    
C16   H63   S    
C84   H9    S    
C40   C46   A    
O25   Zn8   S    
O18   Zn3   S    
O21   Zn8   S    
C35   H47   S    
C98   C105  A    
C38   O22   A    
C99   H18   S    
C103  C110  A    
C26   C67   S    
C1    O9    A    
C49   O13   A    
O15   Zn6   S    
C80   C87   A    
C20   C82   A    
C59   C66   A    
O1    Zn5   S    
C32   C39   A    
C91   H17   S    
C96   C102  A    
C18   H68   S    
C59   C74   S    
C48   C104  A    
C55   C62   A    
C58   H4    S    
C22   C104  A    
C7    C112  A    
C85   H10   S    
C55   H72   S    
C108  C114  A    
C35   C42   A    
C102  H21   S    
C107  C113  A    
C2    C50   A    
C105  H24   S    
C46   C82   A    
C19   C52   A    
C63   C69   A    
O19   Zn4   S    
C8    C71   S    
C54   H71   S    
C79   H5    S    
C81   C114  A    
C48   H27   S    
C19   H37   S    
O8    Zn4   S    
C64   C70   A    
O3    Zn3   S    
C90   C97   A    
C74   O2    A    
C39   C45   A    
C5    C85   A    
C87   C94   A    
C16   H62   S    
C101  C108  A    
C105  C111  A    
C88   C95   A    
C28   C34   A    
C91   C98   A    
C13   C51   A    
C86   H11   S    
C36   H48   S    
O14   Zn5   S    
C104  H33   S    
C62   C76   S    
O12   Zn6   S    
C34   C41   A    
C84   C90   A    
C14   H55   S    
C53   C67   A    
C8    C108  A    
C41   C47   A    
C2    H35   S    
C60   O7    A    
O7    Zn3   S    
C29   C69   S    
C85   C91   A    
C83   C89   A    
C73   O18   A    
O1    Zn3   S    
C56   C63   A    
C33   C40   A    
C65   C77   S    
C15   H59   S    
C11   C111  A    
C77   O5    A    
C23   C30   A    
C78   O6    A    
C78   O17   A    
C3    C8    A    
C12   H51   S    
O2    Zn2   S    
C76   O15   A    
C58   C70   A    
C71   O8    A    
C32   C70   S    
C5    C111  A    
C45   C52   A    
C61   C73   S    
C101  H20   S    
O24   Zn7   S    
C20   H38   S    
C13   C24   A    
C81   H7    S    
C9    C109  A    
C12   C40   S    
C28   C66   S    
C103  H22   S    
C6    C113  A    
C53   H67   S    
C37   H49   S    
C94   C100  A    
C61   C67   A    
C58   C65   A    
C4    C84   A    
C18   H70   S    
C56   H2    S    
C6    C106  A    
C38   O11   A    
C93   H32   S    
C42   C48   A    
O26   Zn1   S    
C4    C11   A    
C1    O20   A    
C16   C43   S    
O16   Zn1   S    
C97   C103  A    
C14   C41   S    
C79   C112  A    
C16   H61   S    
C31   C72   S    
C21   C28   A    
C71   O25   A    
C52   H30   S    
C25   H43   S    
C100  H19   S    
O1    Zn7   S    
C7    C107  A    
C80   H6    S    
C21   C93   A    
C9    C114  A    
C14   H54   S    
C63   C75   S    
O12   Zn2   S    
C18   C45   S    
O9    Zn5   S    
C82   H31   S    
O11   Zn1   S    
C33   H44   S    
C44   C51   A    
C57   C64   A    
C57   H3    S    
C22   H40   S    
C99   C106  A    
C4    C110  A    
C100  C107  A    
C47   C93   A    
C15   H60   S    
C75   O3    A    
O23   Zn8   S    
C64   C78   S    
C96   H23   S    
O12   Zn8   S    
C95   H34   S    
C15   C42   S    
C14   H57   S    
C102  C109  A    
C92   H12   S    
C13   H36   S    
O10   Zn6   S    
C94   H1    S    
C43   C50   A    
C54   C66   A    
C54   C61   A    
C17   H66   S    
O20   Zn7   S    
C65   C72   A    
C29   C35   A    
C95   C101  A    
C30   C36   A    
C9    C60   S    
C3    C109  A    
C55   C69   A    
C89   C96   A    
C24   C31   A    
C5    C10   A    
C88   H14   S    
C56   C68   A    
C98   H45   S    
C12   H52   S    
C17   H65   S    
C20   C26   A    
C18   H69   S    
O22   Zn7   S    
C25   C32   A    
C7    C38   S    
C60   O24   A    
C15   H58   S    
C10   C110  A    
C27   O21   A    
C62   C68   A    
C51   H29   S    
C83   H8    S    
C19   C25   A    
C17   C44   S    
C81   C88   A    
C76   O4    A    
C97   H56   S    
O17   Zn2   S    
C90   H16   S    
C37   C44   A    
C31   C37   A    
C47   H26   S    
C3    C83   A    
C80   C113  A    
C92   C99   A    
C49   O23   A    
C2    C23   A    
C57   C72   A    
C21   H39   S    
C36   C43   A    
C86   C92   A    
C27   O10   A    
C39   H50   S    
O4    Zn4   S    
C79   C86   A    
C30   C68   S    
C6    C49   S    
C50   H28   S    
C26   C33   A    
C46   H25   S    
C74   O19   A    
C34   H46   S    
