data_mof_unit_62730.cif
_audit_creation_date              2012-12-10T19:55:49-0500
_audit_creation_method            fapswitch 2.2
_symmetry_space_group_name_H-M    P1
_symmetry_Int_Tables_number       1
_space_group_crystal_system       triclinic
_cell_length_a                    14.937573
_cell_length_b                    14.154435
_cell_length_c                    19.206607
_cell_angle_alpha                 90.001854
_cell_angle_beta                  90.018556
_cell_angle_gamma                 89.998646
_cell_volume                      4060.90851784

loop_
_atom_site_label
_atom_site_type_symbol
_atom_type_description
_atom_site_fract_x
_atom_site_fract_y
_atom_site_fract_z
_atom_type_partial_charge
Br1   Br    Br    0.499778 0.706811 0.134914 -0.360369
Br2   Br    Br    0.491360 0.294271 0.865669 -0.356380
Br3   Br    Br    0.510681 0.706390 0.865312 -0.360336
Br4   Br    Br    0.499909 0.293782 0.134588 -0.357121
Br5   Br    Br    0.247141 0.591066 0.363552 -0.482664
Br6   Br    Br    0.752835 0.409148 0.363510 -0.454458
Br7   Br    Br    0.752840 0.591016 0.636478 -0.482716
Br8   Br    Br    0.247178 0.409096 0.636475 -0.454560
C1    C     C_R   0.328046 0.500000 0.499994 0.971603
C2    C     C_R   0.461105 0.894782 0.445075 -0.239386
C3    C     C_R   0.431315 0.204512 0.469496 0.056494
C4    C     C_R   0.538437 0.795482 0.553771 0.051381
C5    C     C_R   0.568685 0.204512 0.530503 0.056482
C6    C     C_R   0.461565 0.795479 0.446228 0.051289
C7    C     C_R   0.500001 0.053358 0.499999 0.128812
C8    C     C_R   0.500001 0.946630 0.499999 0.121751
C9    C     C_R   0.499911 0.500010 0.365406 0.958057
C10   C     C_R   0.500115 0.500013 0.634592 0.958025
C11   C     C_R   0.498024 0.585875 0.253429 -0.174028
C12   C     C_R   0.671954 0.499999 0.500009 0.971574
C13   C     C_R   0.498048 0.414408 0.746699 -0.172954
C14   C     C_R   0.503247 0.585891 0.746558 -0.173734
C15   C     C_R   0.501468 0.414382 0.253309 -0.172465
C16   C     C_R   0.498126 0.586475 0.181238 0.274025
C17   C     C_R   0.498331 0.414051 0.818896 0.271445
C18   C     C_R   0.503442 0.586471 0.818750 0.273442
C19   C     C_R   0.501514 0.413981 0.181114 0.272246
C20   C     C_R   0.499922 0.500279 0.144915 -0.083673
C21   C     C_R   0.500948 0.500322 0.855018 -0.083035
C22   C     C_R   0.499788 0.500079 0.289705 -0.123898
C23   C     C_R   0.232554 0.500010 0.499986 -0.174020
C24   C     C_R   0.500450 0.500094 0.710290 -0.123949
C25   C     C_R   0.500784 0.500455 0.930095 0.372520
C26   C     C_R   0.500235 0.500378 0.069765 0.371209
C27   C     C_R   0.094029 0.538856 0.443450 -0.159240
C28   C     C_R   0.905946 0.461349 0.443453 -0.165076
C29   C     C_R   0.905963 0.538828 0.556577 -0.159220
C30   C     C_R   0.094059 0.461333 0.556555 -0.165069
C31   C     C_R   0.186567 0.539290 0.443202 0.219105
C32   C     C_R   0.813414 0.460819 0.443218 0.222194
C33   C     C_R   0.813424 0.539263 0.556821 0.219119
C34   C     C_R   0.767445 0.500004 0.500024 -0.174001
C35   C     C_R   0.186592 0.460802 0.556785 0.222214
C36   C     C_R   0.048180 0.500117 0.500009 0.019588
C37   C     C_R   0.951818 0.500113 0.500011 0.019582
C38   C     C_R   0.429841 0.105206 0.469115 -0.239920
C39   C     C_R   0.538899 0.894784 0.554924 -0.239439
C40   C     C_R   0.570161 0.105206 0.530884 -0.240002
H1    H     H_    0.497019 0.652649 0.280980 0.191182
H2    H     H_    0.568486 0.930356 0.599161 0.159330
H3    H     H_    0.626692 0.069634 0.554407 0.152877
H4    H     H_    0.431518 0.930350 0.400837 0.159344
H5    H     H_    0.377109 0.243316 0.445481 0.142503
H6    H     H_    0.568711 0.756684 0.596202 0.158206
H7    H     H_    0.622891 0.243316 0.554518 0.142513
H8    H     H_    0.431294 0.756679 0.403796 0.158388
H9    H     H_    0.495428 0.347604 0.719256 0.200034
H10   H     H_    0.505726 0.652622 0.719012 0.191250
H11   H     H_    0.502391 0.347544 0.280771 0.199516
H12   H     H_    0.057803 0.569067 0.399915 0.188354
H13   H     H_    0.942153 0.431197 0.399901 0.187259
H14   H     H_    0.942184 0.569024 0.600122 0.188361
H15   H     H_    0.057857 0.431163 0.600100 0.187262
H16   H     H_    0.373310 0.069635 0.445591 0.152882
N1    N     N_R   0.568868 0.460078 0.034605 -0.091584
N2    N     N_R   0.432181 0.540816 0.965221 -0.093054
N3    N     N_R   0.569120 0.460067 0.965547 -0.093872
N4    N     N_R   0.431893 0.540741 0.034277 -0.092259
N5    N     N_R   0.500000 0.252470 0.500000 -0.102723
N6    N     N_R   0.500000 0.747530 0.500000 -0.107760
O1    O     O_R   0.369060 0.579480 0.500010 -0.594862
O2    O     O_R   0.630940 0.420520 0.499990 -0.610499
O3    O     O_R   0.630940 0.579480 0.499990 -0.594935
O4    O     O_R   0.369060 0.420520 0.500010 -0.610548
O5    O     O_R   0.499990 0.579500 0.398140 -0.628620
O6    O     O_R   0.500010 0.420500 0.601860 -0.615845
O7    O     O_R   0.500010 0.579500 0.601860 -0.628628
O8    O     O_R   0.499990 0.420500 0.398140 -0.615805
Zn1   Zn    Zn3+2 0.500000 0.606140 0.500000 1.005192
Zn2   Zn    Zn3+2 0.500000 0.393860 0.500000 1.006096

loop_
_geom_bond_atom_site_label_1
_geom_bond_atom_site_label_2
_ccdc_geom_bond_type
C6    H8    S    
C33   C34   A    
N2    N4    A    
Br8   C35   S    
C2    H4    S    
O1    Zn1   S    
C29   H14   S    
C15   H11   S    
C14   C24   A    
O8    Zn2   S    
C7    C8    S    
C21   C25   S    
C8    C39   A    
C13   C17   A    
C40   H3    S    
N1    N3    A    
O6    Zn2   S    
C15   C19   A    
C3    H5    S    
C32   C34   A    
C20   C26   S    
O4    Zn2   S    
C9    C22   S    
C6    N6    A    
C7    C40   A    
C4    C39   A    
C26   N1    A    
C25   N2    A    
C39   H2    S    
C30   C36   A    
O7    Zn1   S    
C17   C21   A    
C13   C24   A    
C15   C22   A    
C1    O1    A    
C28   C32   A    
C2    C6    A    
C26   N4    A    
C38   H16   S    
C27   H12   S    
C27   C31   A    
C13   H9    S    
C11   H1    S    
O3    Zn1   S    
C28   C37   A    
C27   C36   A    
C23   C35   A    
C18   C21   A    
Br5   C31   S    
Br6   C32   S    
C10   C24   S    
C1    O4    A    
C29   C37   A    
C28   H13   S    
Br4   C19   S    
C36   C37   S    
C25   N3    A    
C30   H15   S    
C4    N6    A    
C10   O6    A    
N6    Zn1   S    
Br3   C18   S    
C16   C20   A    
N5    Zn2   S    
C14   H10   S    
C5    C40   A    
C12   C34   S    
C3    N5    A    
C11   C16   A    
C30   C35   A    
O2    Zn2   S    
C2    C8    A    
C5    N5    A    
C10   O7    A    
C9    O8    A    
C23   C31   A    
C12   O3    A    
Br2   C17   S    
Br7   C33   S    
C29   C33   A    
C1    C23   S    
Br1   C16   S    
C14   C18   A    
C19   C20   A    
C9    O5    A    
C12   O2    A    
C3    C38   A    
C7    C38   A    
C11   C22   A    
O5    Zn1   S    
C4    H6    S    
C5    H7    S    
