data_mof_unit_52445.cif
_audit_creation_date              2013-03-05T15:42:32-0500
_audit_creation_method            fapswitch 2.2
_symmetry_space_group_name_H-M    P1
_symmetry_Int_Tables_number       1
_space_group_crystal_system       triclinic
_cell_length_a                    6.932002
_cell_length_b                    14.725784
_cell_length_c                    16.212224
_cell_angle_alpha                 90.580529
_cell_angle_beta                  89.854064
_cell_angle_gamma                 90.136216
_cell_volume                      1654.83538354

loop_
_atom_site_label
_atom_site_type_symbol
_atom_site_description
_atom_site_fract_x
_atom_site_fract_y
_atom_site_fract_z
_atom_type_partial_charge
O1    O     O_R   0.494490 0.416160 0.413410 -0.568609
O2    O     O_R   0.823830 0.407240 0.585990 -0.567005
O3    O     O_R   0.994160 0.583840 0.586590 -0.570908
C1    C     C_R   0.654414 0.385825 0.614238 0.839055
O4    O     O_R   0.824200 0.405280 0.414020 -0.567207
O5    O     O_R   0.994530 0.581860 0.413390 -0.567468
C2    C     C_R   0.654967 0.383143 0.385639 0.840233
O6    O     O_R   0.494110 0.418140 0.586610 -0.568417
O7    O     O_3   0.660810 0.557940 0.500000 -0.243438
V1    V     V_3+5 0.935650 0.489250 0.500000 1.165755
O8    O     O_R   0.324250 0.592760 0.414010 -0.522335
C3    C     C_R   0.156219 0.612738 0.384385 0.903723
O9    O     O_R   0.323880 0.594720 0.585980 -0.511646
C4    C     C_R   0.154848 0.617966 0.613982 0.892067
V2    V     V_3+5 0.435660 0.510750 0.500000 1.218352
O10   O     O_3   0.160630 0.442060 0.500000 -0.289264
C5    C     C_3   0.949183 0.679153 0.731102 -0.265452
H1    H     H_    0.826604 0.688911 0.688029 0.150458
H2    H     H_    0.934028 0.609654 0.756728 0.151831
C6    C     C_3   0.932810 0.749949 0.801869 -0.174902
H3    H     H_    0.897814 0.715334 0.860519 0.207104
H4    H     H_    0.807768 0.794359 0.790222 0.147145
H5    H     H_    0.023169 0.801228 0.617926 0.082873
C7    C     C_3   0.158286 0.788398 0.652781 0.234185
C8    C     C_3   0.305821 0.669532 0.748817 -0.207111
C9    C     C_3   0.145188 0.687878 0.684158 -0.191493
H6    H     H_    0.451386 0.674318 0.720963 0.123532
H7    H     H_    0.292699 0.597894 0.769305 0.145296
C10   C     C_3   0.122625 0.805943 0.810907 -0.253063
C11   C     C_3   0.166429 0.856229 0.727635 0.196827
C12   C     C_3   0.293146 0.736730 0.823434 0.303431
H8    H     H_    0.430633 0.775926 0.825399 0.044903
H9    H     H_    0.316509 0.882688 0.732718 0.102966
C13   C     C_2   0.989217 0.696619 0.273359 -0.140104
C14   C     C_2   0.152771 0.676169 0.313968 -0.231928
H10   H     H_    0.855475 0.665253 0.293559 0.150032
H11   H     H_    0.290739 0.702097 0.293131 0.134316
C15   C     C_2   0.978349 0.753972 0.197623 0.325884
C16   C     C_2   0.120458 0.813405 0.176616 -0.199469
H12   H     H_    0.250294 0.818008 0.213454 0.079334
C17   C     C_2   0.780447 0.210780 0.782926 -0.026343
C18   C     C_2   0.615025 0.175315 0.812512 -0.156414
H13   H     H_    0.916872 0.189524 0.809079 0.136264
H14   H     H_    0.476774 0.194759 0.787420 0.086086
C19   C     C_2   0.791901 0.278068 0.715066 -0.063728
C20   C     C_2   0.638114 0.319096 0.681253 -0.190835
H15   H     H_    0.935599 0.294993 0.693125 0.110229
H16   H     H_    0.493500 0.304921 0.703013 0.078233
C21   C     C_2   0.779196 0.207630 0.212357 -0.077469
C22   C     C_2   0.614167 0.179957 0.175704 -0.191876
H17   H     H_    0.915310 0.179198 0.191281 0.097981
H18   H     H_    0.476376 0.207622 0.194776 0.071683
C23   C     C_2   0.791544 0.276265 0.280699 -0.076622
C24   C     C_2   0.638243 0.314765 0.318399 -0.187361
H19   H     H_    0.935670 0.295101 0.300785 0.099311
H20   H     H_    0.492980 0.296674 0.300068 0.073906
O11   O     O_R   0.770850 0.076180 0.907410 -0.539344
O12   O     O_R   0.440600 0.088970 0.079950 -0.578581
O13   O     O_R   0.270430 0.912340 0.080550 -0.535689
C25   C     C_R   0.609222 0.111184 0.108375 0.820403
O14   O     O_R   0.441120 0.087010 0.907980 -0.558744
O15   O     O_R   0.270950 0.910370 0.907350 -0.551174
C26   C     C_R   0.609984 0.108538 0.879799 0.877284
O16   O     O_R   0.770320 0.078150 0.080620 -0.579268
O17   O     O_3   0.604200 0.936340 0.994000 -0.237915
V3    V     V_3+5 0.329300 0.004970 0.993950 1.225856
O18   O     O_R   0.941240 0.899420 0.907920 -0.523570
C27   C     C_R   0.110700 0.874865 0.881399 0.986495
O19   O     O_R   0.940720 0.901380 0.079890 -0.538332
C28   C     C_R   0.109126 0.878913 0.107660 0.909861
V4    V     V_3+5 0.829310 0.983370 0.993880 1.260591
O20   O     O_3   0.104280 0.052120 0.993920 -0.296877
S1    S     S_3+6 0.351846 0.810664 0.580003 -0.049729
O21   O     O_2   0.394322 0.910683 0.576464 -0.220845
O22   O     O_2   0.534287 0.762510 0.602903 -0.313188
O23   O     O_3   0.283786 0.775508 0.485671 -0.501162
H21   H     H_    0.169457 0.812773 0.472312 0.331624
N1    N     N_R   0.809781 0.743259 0.146697 0.106435
O24   O     O_R   0.640639 0.734443 0.180698 -0.361323
O25   O     O_R   0.828860 0.725423 0.068295 -0.284239
S2    S     S_3+6 0.021079 0.956633 0.709580 -0.045074
O26   O     O_2   0.090200 0.031841 0.765481 -0.284039
O27   O     O_2   0.044951 0.987150 0.621955 -0.222852
O28   O     O_3   0.785095 0.939110 0.727539 -0.516332
H22   H     H_    0.738461 0.904430 0.678867 0.371189
S3    S     S_3+6 0.286960 0.673714 0.918585 -0.058027
O29   O     O_2   0.477772 0.626831 0.928463 -0.248483
O30   O     O_2   0.255609 0.735862 0.991206 -0.279453
O31   O     O_3   0.111342 0.594723 0.916047 -0.528625
H23   H     H_    0.115457 0.565774 0.970892 0.380605

loop_
_geom_bond_atom_site_label_1
_geom_bond_atom_site_label_2
_geom_bond_distance
_ccdc_geom_bond_type
C8    C12   1.557537 S    
S1    O22   1.500688 D    
C17   C18   1.348039 D    
C1    O6    1.292776 A    
S2    O26   1.502274 D    
C1    C20   1.476226 S    
C23   C24   1.347895 D    
C8    H7    1.112631 S    
C5    C9    1.561308 S    
C14   H11   1.083434 S    
C7    C9    1.572425 S    
O13   V3    2.007877 S    
O5    C3    1.297440 A    
C15   C16   1.361108 D    
N1    O25   1.301780 A    
C7    S1    1.815953 S    
O12   C25   1.297515 A    
V2    O10   2.156100 S    
C5    C6    1.546501 S    
O19   V4    2.010620 S    
C13   C14   1.348688 D    
S1    O21   1.502954 D    
O16   V4    2.013146 S    
O14   C26   1.295337 A    
O8    V2    2.010572 S    
O28   H22   0.990104 S    
O12   V3    2.008801 S    
V3    O20   1.708901 S    
C21   H17   1.086113 S    
C22   H18   1.082458 S    
H5    C7    1.112650 S    
O1    V2    2.009324 S    
O7    V1    2.159183 S    
O18   V4    2.009119 S    
C19   H15   1.086139 S    
C12   S3    1.808606 S    
C13   C15   1.499466 S    
O9    C4    1.300874 A    
C17   H13   1.085472 S    
C18   H14   1.082389 S    
O14   V3    2.006763 S    
S2    O27   1.502944 D    
O11   C26   1.296265 A    
C20   H16   1.082429 S    
C6    C10   1.557589 S    
C23   H19   1.086115 S    
C24   H20   1.082540 S    
O15   V3    2.008968 S    
S3    O30   1.499577 D    
O18   C27   1.300699 A    
O23   H21   0.990698 S    
C16   H12   1.083028 S    
O4    C2    1.300797 A    
S3    O29   1.503167 D    
C15   N1    1.439918 S    
C8    C9    1.557193 S    
C19   C20   1.347119 D    
O11   V4    2.010396 S    
O2    C1    1.298766 A    
C10   C11   1.574868 S    
C10   C27   1.522959 S    
C12   H8    1.113403 S    
C5    H1    1.111723 S    
C4    C9    1.528055 S    
C3    C14   1.482641 S    
O3    C4    1.298400 A    
C6    H4    1.104850 S    
O17   V3    2.159141 S    
O6    V2    2.009959 S    
O9    V2    2.009119 S    
S1    O23   1.678066 S    
O2    V1    2.006720 S    
S2    O28   1.680607 S    
C11   H9    1.113017 S    
O1    C2    1.293124 A    
S3    O31   1.682064 S    
O5    V1    2.007802 S    
O8    C3    1.296649 A    
C8    H6    1.106831 S    
O15   C27   1.295965 A    
C25   O16   1.296836 A    
C22   C25   1.481865 S    
C11   S2    1.817763 S    
O7    V2    1.706943 S    
O4    V1    2.008709 S    
C10   C12   1.577486 S    
O3    V1    2.008979 S    
O17   V4    1.705741 S    
N1    O24   1.301112 A    
C21   C23   1.494607 S    
C5    H2    1.113080 S    
C16   C28   1.486330 S    
C13   H10   1.086089 S    
O19   C28   1.297104 A    
C7    C11   1.564959 S    
O13   C28   1.298078 A    
V4    O20   2.156143 S    
C6    H3    1.109441 S    
C21   C22   1.350627 D    
C17   C19   1.489870 S    
V1    O10   1.708885 S    
C2    C24   1.481064 S    
O31   H23   0.990462 S    
C18   C26   1.476336 S    
