data_mof_unit_6498.cif
_audit_creation_date              2012-10-26T17:11:26-0400
_audit_creation_method            fapswitch 2.2
_symmetry_space_group_name_H-M    P1
_symmetry_Int_Tables_number       1
_space_group_crystal_system       triclinic
_cell_length_a                    27.909715
_cell_length_b                    18.911386
_cell_length_c                    16.74066
_cell_angle_alpha                 89.92387
_cell_angle_beta                  62.894057
_cell_angle_gamma                 89.964049
_cell_volume                      7865.41668975

loop_
_atom_site_label
_atom_site_type_symbol
_atom_type_description
_atom_site_fract_x
_atom_site_fract_y
_atom_site_fract_z
_atom_type_partial_charge
C1    C     C_R   0.295291 0.728929 0.328169 0.604074
C2    C     C_R   0.594379 0.002719 0.515088 -0.024349
C3    C     C_R   0.671002 0.741854 0.923477 -0.035734
C4    C     C_R   0.924268 0.905652 0.068522 0.590334
C5    C     C_R   0.076207 0.093585 0.932331 0.592029
C6    C     C_R   0.075513 0.905595 0.931252 0.594815
C7    C     C_R   0.927068 0.097672 0.066012 0.590569
C8    C     C_R   0.424161 0.406167 0.068896 0.592983
C9    C     C_R   0.569277 0.602544 0.936995 0.588530
C10   C     C_R   0.576017 0.406422 0.930864 0.591673
C11   C     C_R   0.425195 0.595787 0.065976 0.588172
C12   C     C_R   0.063064 0.627702 0.460305 0.041055
C13   C     C_R   0.901018 0.499783 0.499557 -0.037043
C14   C     C_R   0.951916 0.371945 0.503549 0.035544
C15   C     C_R   0.954549 0.627941 0.492344 0.042364
C16   C     C_R   0.060906 0.372048 0.469208 0.040272
C17   C     C_R   0.530163 0.125760 0.558941 0.035396
C18   C     C_R   0.444243 0.870541 0.517552 0.042843
C19   C     C_R   0.424498 0.121391 0.578306 0.046710
C20   C     C_R   0.552858 0.875891 0.484059 0.042303
C21   C     C_R   0.036731 0.691674 0.462905 -0.080029
C22   C     C_R   0.978934 0.308002 0.498405 -0.085950
C23   C     C_R   0.982426 0.691883 0.482350 -0.076024
C24   C     C_R   0.112327 0.500196 0.469510 -0.034335
C25   C     C_R   0.033514 0.307979 0.477482 -0.081079
C26   C     C_R   0.496731 0.185881 0.587929 -0.080569
C27   C     C_R   0.475151 0.808431 0.497387 -0.069948
C28   C     C_R   0.444038 0.183331 0.599343 -0.083745
C29   C     C_R   0.529783 0.811676 0.476375 -0.065868
C30   C     C_R   0.981557 0.563805 0.483544 0.010377
C31   C     C_R   0.033640 0.436010 0.478025 0.009573
C32   C     C_R   0.034863 0.563870 0.473011 0.009364
C33   C     C_R   0.980194 0.435871 0.489198 0.009689
C34   C     C_R   0.457033 0.060337 0.554476 0.013928
C35   C     C_R   0.607346 0.880600 0.465357 0.244693
C36   C     C_R   0.520502 0.936879 0.511037 0.011143
C37   C     C_R   0.509179 0.061778 0.547897 0.017188
C38   C     C_R   0.467546 0.935006 0.521454 0.014299
C39   C     C_R   0.437036 0.997389 0.538445 0.002036
C40   C     C_R   0.541740 0.000671 0.523126 0.004349
C41   C     C_R   0.954070 0.499807 0.491440 -0.000817
C42   C     C_R   0.060628 0.500029 0.472103 -0.001329
C43   C     C_R   0.366515 0.932875 0.523273 -0.005044
C44   C     C_R   0.616907 0.068474 0.520344 0.023038
C45   C     C_R   0.625373 0.939587 0.496914 -0.000681
C46   C     C_R   0.373847 0.119332 0.578657 0.240057
C47   C     C_R   0.360460 0.061264 0.539126 0.001886
C48   C     C_R   0.873554 0.434914 0.508639 -0.010778
C49   C     C_R   0.138728 0.564740 0.465148 -0.006155
C50   C     C_R   0.137885 0.435666 0.467779 -0.011797
C51   C     C_R   0.874607 0.564837 0.504699 -0.008027
C52   C     C_R   0.326422 0.934580 0.492674 -0.003850
C53   C     C_R   0.666186 0.066917 0.528030 0.011617
C54   C     C_R   0.670253 0.937549 0.517134 -0.004087
C55   C     C_R   0.323431 0.063705 0.501320 0.004500
C56   C     C_R   0.822359 0.435118 0.507472 -0.008030
C57   C     C_R   0.389904 0.869914 0.536855 0.238720
C58   C     C_R   0.186382 0.565235 0.477777 -0.010480
C59   C     C_R   0.185568 0.435474 0.479825 -0.013651
C60   C     C_R   0.822856 0.564721 0.505630 -0.008849
C61   C     C_R   0.314466 0.000385 0.465630 0.115898
C62   C     C_R   0.683886 0.001517 0.545946 0.110623
C63   C     C_R   0.794523 0.500007 0.520899 0.123286
C64   C     C_R   0.213733 0.500342 0.473985 0.138856
C65   C     C_R   0.585743 0.131178 0.527033 0.252360
C66   C     C_R   0.115378 0.373655 0.450025 0.237537
C67   C     C_R   0.899279 0.626899 0.517459 0.246253
C68   C     C_R   0.896732 0.373454 0.526670 0.238235
C69   C     C_R   0.703405 0.267265 0.671978 0.600937
C70   C     C_R   0.117174 0.626122 0.443923 0.243476
C71   C     C_R   0.231396 0.786732 0.940215 0.121629
C72   C     C_R   0.779386 0.240422 0.048988 0.067743
C73   C     C_R   0.766500 0.782158 0.060360 0.109130
C74   C     C_R   0.210520 0.264520 0.957862 0.092399
C75   C     C_R   0.728267 0.291633 0.949442 0.058570
C76   C     C_R   0.288541 0.760108 0.037613 0.093662
C77   C     C_R   0.267322 0.291639 0.056943 0.118052
C78   C     C_R   0.702372 0.755032 0.974016 0.055279
C79   C     C_R   0.285489 0.807375 0.905343 0.038934
C80   C     C_R   0.702349 0.733945 0.672691 0.594198
C81   C     C_R   0.735200 0.204991 0.048914 -0.022075
C82   C     C_R   0.783753 0.733990 0.989122 0.002205
C83   C     C_R   0.265420 0.247684 0.922284 -0.107717
C84   C     C_R   0.774280 0.325294 0.944621 0.011524
C85   C     C_R   0.234230 0.740515 0.072582 -0.042411
C86   C     C_R   0.213003 0.311422 0.091206 0.032969
C87   C     C_R   0.687982 0.808041 0.039568 0.027357
C88   C     C_R   0.313277 0.797088 0.955882 0.025524
C89   C     C_R   0.706522 0.234824 0.008090 -0.076987
C90   C     C_R   0.750243 0.717209 0.950376 -0.084833
C91   C     C_R   0.296858 0.267158 0.328072 0.597925
C92   C     C_R   0.293713 0.261873 0.970997 -0.073972
C93   C     C_R   0.795072 0.304983 0.003074 -0.037383
C94   C     C_R   0.205489 0.755313 0.025117 -0.019665
C95   C     C_R   0.185187 0.299904 0.040686 0.028823
C96   C     C_R   0.717016 0.816644 0.088259 0.011434
C97   C     C_R   0.163582 0.857566 0.917398 0.164562
C98   C     C_R   0.862938 0.187487 0.052317 0.187011
C99   C     C_R   0.837919 0.853880 0.075764 0.160579
C100  C     C_R   0.144871 0.175527 0.950549 0.142599
C101  C     C_R   0.666206 0.365670 0.914847 0.136949
C102  C     C_R   0.792469 0.223077 0.331224 0.589582
C103  C     C_R   0.357170 0.677420 0.044465 0.138782
C104  C     C_R   0.335693 0.360603 0.081773 0.129186
C105  C     C_R   0.623997 0.699522 0.962650 0.149168
C106  C     C_R   0.122908 0.858348 0.888554 -0.010751
C107  C     C_R   0.882518 0.148491 0.105215 -0.016242
C108  C     C_R   0.876838 0.857747 0.109322 -0.015757
C109  C     C_R   0.123394 0.142020 0.896324 0.008493
C110  C     C_R   0.625022 0.361920 0.887297 -0.000658
C111  C     C_R   0.379122 0.646206 0.099172 0.010496
C112  C     C_R   0.376178 0.359941 0.111253 -0.003102
C113  C     C_R   0.202709 0.766475 0.671723 0.586060
C114  C     C_R   0.606159 0.665311 0.905366 0.003729
C115  C     C_R   0.130481 0.816647 0.813681 0.155275
C116  C     C_R   0.854995 0.153243 0.199553 0.145554
C117  C     C_R   0.868477 0.817282 0.185611 0.150551
C118  C     C_R   0.149562 0.153699 0.803421 0.159161
C119  C     C_R   0.632720 0.317689 0.814467 0.174758
C120  C     C_R   0.351376 0.656516 0.191610 0.154974
C121  C     C_R   0.368279 0.317447 0.185646 0.168421
C122  C     C_R   0.625886 0.688852 0.815771 0.178191
C123  C     C_R   0.177683 0.776652 0.770272 -0.000788
C124  C     C_R   0.204428 0.229272 0.671092 0.614957
C125  C     C_R   0.812349 0.200123 0.237395 -0.015233
C126  C     C_R   0.821495 0.777111 0.229151 -0.000551
C127  C     C_R   0.180456 0.215255 0.768668 0.006761
C128  C     C_R   0.680757 0.279259 0.770361 0.007397
C129  C     C_R   0.318855 0.716276 0.228869 -0.004754
C130  C     C_R   0.320601 0.278560 0.229423 0.005412
C131  C     C_R   0.673814 0.729283 0.774198 -0.011652
C132  C     C_R   0.205158 0.756974 0.819674 0.189581
C133  C     C_R   0.780875 0.206017 0.192487 0.138143
C134  C     C_R   0.794591 0.755328 0.179205 0.197822
C135  C     C_R   0.797028 0.766917 0.328110 0.584200
C136  C     C_R   0.190494 0.260205 0.827158 0.164786
C137  C     C_R   0.710446 0.263605 0.818592 0.194633
C138  C     C_R   0.305854 0.758575 0.170762 0.185605
C139  C     C_R   0.292121 0.260928 0.180288 0.196933
C140  C     C_R   0.694285 0.760574 0.830830 0.106955
C141  C     C_R   0.204783 0.632013 0.502390 0.565655
C142  C     C_R   0.798144 0.368743 0.491434 0.559788
C143  C     C_R   0.798453 0.631190 0.490414 0.567251
C144  C     C_R   0.204155 0.368315 0.504012 0.566647
C145  C     C_R   0.697311 0.131901 0.523432 0.594312
C146  C     C_R   0.388148 0.997325 0.533029 -0.027466
C147  C     C_R   0.300773 0.868688 0.482389 0.579500
C148  C     C_R   0.298737 0.131065 0.489368 0.598596
C149  C     C_R   0.698899 0.869475 0.517837 0.574311
C150  C     C_R   0.200420 0.801045 0.890684 -0.041908
C151  C     C_R   0.808395 0.211636 0.097632 -0.045179
C152  C     C_R   0.800454 0.797073 0.105056 -0.044468
C153  C     C_R   0.179281 0.235156 0.913396 -0.040954
C154  C     C_R   0.704075 0.309981 0.889845 -0.037931
C155  C     C_R   0.319841 0.733877 0.082983 -0.047726
C156  C     C_R   0.297939 0.305098 0.108250 -0.039100
Cl1   Cl    Cl    0.653994 0.830530 0.373542 -0.544861
Cl2   Cl    Cl    0.860158 0.086549 0.271015 -0.518544
Cl3   Cl    Cl    0.918682 0.808741 0.222437 -0.507606
Cl4   Cl    Cl    0.150800 0.084121 0.730897 -0.517588
Cl5   Cl    Cl    0.581257 0.304370 0.781593 -0.500591
Cl6   Cl    Cl    0.339711 0.579275 0.254684 -0.447754
Cl7   Cl    Cl    0.419061 0.306388 0.220628 -0.462651
Cl8   Cl    Cl    0.583627 0.680186 0.762609 -0.447066
Cl9   Cl    Cl    0.322754 0.173363 0.656417 -0.606965
Cl10  Cl    Cl    0.349573 0.810694 0.623150 -0.540122
Cl11  Cl    Cl    0.609738 0.201415 0.447616 -0.436048
Cl12  Cl    Cl    0.157742 0.313582 0.367257 -0.560184
Cl13  Cl    Cl    0.860796 0.684954 0.606526 -0.565117
Cl14  Cl    Cl    0.855736 0.315369 0.614839 -0.525917
Cl15  Cl    Cl    0.160860 0.686217 0.362635 -0.550906
Cl16  Cl    Cl    0.080067 0.807905 0.777536 -0.491706
Cu1   Cu    Cu3+1 0.209920 0.785290 0.495070 1.200390
Cu2   Cu    Cu3+1 0.504760 0.500000 0.075850 1.327110
Cu3   Cu    Cu3+1 0.995240 0.000000 0.924150 1.295346
Cu4   Cu    Cu3+1 0.004760 0.000000 0.075850 1.276508
Cu5   Cu    Cu3+1 0.790080 0.214710 0.504930 1.214603
Cu6   Cu    Cu3+1 0.790080 0.785290 0.504930 1.236258
Cu7   Cu    Cu3+1 0.209920 0.214710 0.495070 1.197636
Cu8   Cu    Cu3+1 0.709920 0.285290 0.495070 1.236874
Cu9   Cu    Cu3+1 0.290080 0.714710 0.504930 1.256176
Cu10  Cu    Cu3+1 0.290080 0.285290 0.504930 1.310243
Cu11  Cu    Cu3+1 0.709920 0.714710 0.495070 1.268445
Cu12  Cu    Cu3+1 0.495240 0.500000 0.924150 1.310540
H1    H     H_    0.553232 0.763407 0.457939 0.191169
H2    H     H_    0.826924 0.335911 0.005860 0.173381
H3    H     H_    0.703638 0.855034 0.142114 0.183806
H4    H     H_    0.143204 0.314692 0.068276 0.161570
H5    H     H_    0.670174 0.209155 0.014850 0.181800
H6    H     H_    0.354823 0.813775 0.929052 0.165841
H7    H     H_    0.335830 0.247498 0.943034 0.140986
H8    H     H_    0.762562 0.676456 0.899488 0.135081
H9    H     H_    0.305451 0.833036 0.840465 0.177157
H10   H     H_    0.722405 0.153977 0.078671 0.223734
H11   H     H_    0.822041 0.707172 0.966409 0.171479
H12   H     H_    0.420279 0.231310 0.618479 0.183050
H13   H     H_    0.285694 0.220588 0.858514 0.170175
H14   H     H_    0.793874 0.367101 0.896536 0.192117
H15   H     H_    0.214676 0.711819 0.135383 0.183092
H16   H     H_    0.192486 0.336177 0.156503 0.172642
H17   H     H_    0.654469 0.842961 0.052816 0.190697
H18   H     H_    0.227043 0.005763 0.436440 0.339937
H19   H     H_    0.784370 0.005953 0.535588 0.344203
H20   H     H_    0.722188 0.500102 0.456133 0.341096
H21   H     H_    0.255616 0.511092 0.601729 0.369790
H22   H     H_    0.233557 0.976525 0.005659 0.383935
H23   H     H_    0.457731 0.758046 0.493966 0.179855
H24   H     H_    0.911873 0.256601 0.818126 0.395386
H25   H     H_    0.782003 0.966619 0.954492 0.403018
H26   H     H_    0.214871 0.116187 0.024802 0.352409
H27   H     H_    0.644058 0.382107 0.103587 0.345594
H28   H     H_    0.291096 0.615416 0.960738 0.373407
H29   H     H_    0.358554 0.386534 0.889700 0.331496
H30   H     H_    0.643757 0.631562 0.102721 0.357188
H31   H     H_    0.229894 0.583175 0.887766 0.402600
H32   H     H_    0.762049 0.056744 0.181433 0.370552
H33   H     H_    0.740269 0.592308 0.131915 0.387011
H34   H     H_    0.512122 0.235645 0.598711 0.178674
H35   H     H_    0.295909 0.354901 0.785210 0.351969
H36   H     H_    0.742180 0.093443 0.886929 0.389029
H37   H     H_    0.186638 0.872445 0.260366 0.386537
H38   H     H_    0.270676 0.087306 0.109895 0.392969
H39   H     H_    0.800736 0.744647 0.768718 0.349551
H40   H     H_    0.053559 0.257817 0.471851 0.181297
H41   H     H_    0.962516 0.742128 0.487752 0.182684
H42   H     H_    0.958373 0.257817 0.507699 0.179921
H43   H     H_    0.057225 0.741825 0.454377 0.180076
H44   H     H_    0.163561 0.739996 0.052930 0.154026
O1    O     O_R   0.255040 0.869590 0.478480 -0.483974
O2    O     O_R   0.817950 0.203450 0.375560 -0.470148
O3    O     O_2   0.280695 0.875667 0.274457 -0.162195
O4    O     O_2   0.287080 0.889559 0.125830 -0.256386
O5    O     O_3   0.203526 0.825004 0.246950 -0.478426
O6    O     O_2   0.267674 0.131105 0.259734 -0.175653
O7    O     O_2   0.199386 0.189558 0.229269 -0.169249
O8    O     O_3   0.283781 0.136651 0.095762 -0.513340
O9    O     O_2   0.746374 0.871430 0.716617 -0.117909
O10   O     O_2   0.731345 0.881559 0.869471 -0.220057
O11   O     O_3   0.805630 0.796454 0.765601 -0.423500
O12   O     O_R   0.817950 0.796550 0.375560 -0.474929
O13   O     O_R   0.182050 0.203450 0.624440 -0.484007
O14   O     O_R   0.682050 0.296550 0.624440 -0.434960
O15   O     O_R   0.317950 0.703450 0.375560 -0.460895
O16   O     O_R   0.317950 0.296550 0.375560 -0.444697
O17   O     O_R   0.682050 0.703450 0.624440 -0.429313
O18   O     O_R   0.250530 0.763330 0.367210 -0.419575
O19   O     O_R   0.749470 0.236670 0.632790 -0.436937
O20   O     O_R   0.749470 0.763330 0.632790 -0.442895
O21   O     O_R   0.744960 0.130410 0.521520 -0.484014
O22   O     O_R   0.250530 0.236670 0.367210 -0.437364
O23   O     O_R   0.750530 0.263330 0.367210 -0.477760
O24   O     O_R   0.249470 0.736670 0.632790 -0.431076
O25   O     O_R   0.249470 0.263330 0.632790 -0.406573
O26   O     O_R   0.750530 0.736670 0.367210 -0.428980
O27   O     O_R   0.177260 0.690030 0.513710 -0.487641
O28   O     O_R   0.822740 0.309970 0.486290 -0.492810
O29   O     O_R   0.822740 0.690030 0.486290 -0.482929
O30   O     O_R   0.177260 0.309970 0.513710 -0.503274
O31   O     O_R   0.677260 0.190030 0.513710 -0.463199
O32   O     O_R   0.744960 0.869590 0.521520 -0.468011
O33   O     O_R   0.322740 0.809970 0.486290 -0.491329
O34   O     O_R   0.322740 0.190030 0.486290 -0.483179
O35   O     O_R   0.677260 0.809970 0.513710 -0.485844
O36   O     O_R   0.051640 0.926880 0.885090 -0.461073
O37   O     O_R   0.948360 0.073120 0.114910 -0.474472
O38   O     O_R   0.948360 0.926880 0.114910 -0.458314
O39   O     O_R   0.051640 0.073120 0.885090 -0.460424
O40   O     O_R   0.551640 0.426880 0.885090 -0.462043
O41   O     O_R   0.448360 0.573120 0.114910 -0.455377
O42   O     O_R   0.448360 0.426880 0.114910 -0.457276
O43   O     O_R   0.255040 0.130410 0.478480 -0.485572
O44   O     O_R   0.551640 0.573120 0.885090 -0.462877
O45   O     O_R   0.940620 0.926560 0.986760 -0.451674
O46   O     O_R   0.059380 0.073440 0.013240 -0.454907
O47   O     O_R   0.059380 0.926560 0.013240 -0.457365
O48   O     O_R   0.940620 0.073440 0.986760 -0.427701
O49   O     O_R   0.440620 0.426560 0.986760 -0.460061
O50   O     O_R   0.559380 0.573440 0.013240 -0.417796
O51   O     O_R   0.559380 0.426560 0.013240 -0.456808
O52   O     O_R   0.440620 0.573440 0.986760 -0.452831
O53   O     O_2   0.337365 0.073514 0.314260 -0.208938
O54   O     O_R   0.755040 0.369590 0.478480 -0.488003
O55   O     O_2   0.349584 0.946300 0.302258 -0.202598
O56   O     O_3   0.251135 0.995648 0.372458 -0.401236
O57   O     O_2   0.683277 0.065812 0.690338 -0.209943
O58   O     O_2   0.671035 0.938368 0.696294 -0.211531
O59   O     O_3   0.767575 0.988287 0.598151 -0.400990
O60   O     O_2   0.704822 0.436131 0.644757 -0.240449
O61   O     O_2   0.705237 0.564244 0.644953 -0.231928
O62   O     O_3   0.692642 0.500821 0.518271 -0.439905
O63   O     O_2   0.313296 0.440082 0.392279 -0.197737
O64   O     O_2   0.318277 0.561463 0.425639 -0.170563
O65   O     O_R   0.244960 0.630410 0.521520 -0.468171
O66   O     O_3   0.282192 0.477972 0.558271 -0.429500
O67   O     O_2   0.161168 0.996650 0.938910 -0.266485
O68   O     O_2   0.133659 0.923580 0.074804 -0.221377
O69   O     O_3   0.235078 0.936982 0.965825 -0.524701
O70   O     O_2   0.961763 0.195452 0.909742 -0.266825
O71   O     O_2   0.891916 0.130180 0.890258 -0.199408
O72   O     O_3   0.892784 0.266180 0.883429 -0.526659
O73   O     O_2   0.849128 0.990499 0.023547 -0.278228
O74   O     O_2   0.877980 0.900358 0.905393 -0.200720
O75   O     O_3   0.776927 0.927467 0.996996 -0.501020
O76   O     O_R   0.244960 0.369590 0.521520 -0.415675
O77   O     O_2   0.092791 0.194894 0.129955 -0.249965
O78   O     O_2   0.113744 0.071699 0.088551 -0.157197
O79   O     O_3   0.190514 0.150052 0.070318 -0.457324
O80   O     O_2   0.725863 0.453925 0.966609 -0.295216
O81   O     O_2   0.652245 0.504876 0.949573 -0.240003
O82   O     O_3   0.629627 0.425269 0.088695 -0.448694
O83   O     O_2   0.411970 0.697852 0.865207 -0.225695
O84   O     O_2   0.391239 0.574239 0.904464 -0.133347
O85   O     O_3   0.315227 0.651270 0.918272 -0.464137
O86   O     O_2   0.272318 0.439940 0.030409 -0.281721
O87   O     O_R   0.755040 0.630410 0.478480 -0.469144
O88   O     O_2   0.339484 0.500093 0.058992 -0.229158
O89   O     O_3   0.371987 0.426636 0.911810 -0.443395
O90   O     O_2   0.588376 0.757023 0.133205 -0.274264
O91   O     O_2   0.526176 0.685084 0.107406 -0.227031
O92   O     O_3   0.605335 0.622392 0.119947 -0.418382
O93   O     O_2   0.222344 0.626723 0.744199 -0.257630
O94   O     O_2   0.297031 0.682207 0.760215 -0.158277
O95   O     O_3   0.216277 0.632250 0.902524 -0.518279
O96   O     O_2   0.709307 0.131985 0.334833 -0.243539
O97   O     O_2   0.674425 0.195486 0.244470 -0.198647
O98   O     O_R   0.182050 0.796550 0.624440 -0.474841
O99   O     O_3   0.729819 0.079518 0.182370 -0.499160
O100  O     O_2   0.772696 0.627386 0.262788 -0.255860
O101  O     O_2   0.698144 0.690663 0.254851 -0.217131
O102  O     O_3   0.769274 0.628175 0.112457 -0.533700
O103  O     O_2   0.194405 0.379483 0.735313 -0.230268
O104  O     O_2   0.198565 0.394432 0.876433 -0.267940
O105  O     O_3   0.283484 0.346113 0.739341 -0.447235
O106  O     O_2   0.760393 0.141705 0.718556 -0.149445
O107  O     O_2   0.801992 0.200795 0.800390 -0.227158
O108  O     O_3   0.714994 0.127418 0.887475 -0.508934
S1    S     S_3+6 0.314153 0.004493 0.360123 0.116704
S2    S     S_3+6 0.371224 0.648208 0.931611 0.093713
S3    S     S_3+6 0.328252 0.433891 0.021272 0.052187
S4    S     S_3+6 0.584795 0.693370 0.083126 0.066608
S5    S     S_3+6 0.237029 0.672837 0.802851 0.086348
S6    S     S_3+6 0.721214 0.154341 0.241732 0.053060
S7    S     S_3+6 0.757232 0.674136 0.205519 0.050036
S8    S     S_3+6 0.215817 0.347942 0.795146 0.066129
S9    S     S_3+6 0.749156 0.182953 0.801635 0.097231
S10   S     S_3+6 0.269930 0.840287 0.204678 0.082897
S11   S     S_3+6 0.258711 0.178029 0.195469 0.107130
S12   S     S_3+6 0.700862 0.998988 0.636108 0.111440
S13   S     S_3+6 0.744203 0.829979 0.794310 0.112721
S14   S     S_3+6 0.722809 0.500282 0.585431 0.089943
S15   S     S_3+6 0.283524 0.497166 0.458913 0.114193
S16   S     S_3+6 0.172357 0.930376 0.976799 0.047720
S17   S     S_3+6 0.903088 0.194251 0.932221 0.054996
S18   S     S_3+6 0.836323 0.919237 0.998555 0.056604
S19   S     S_3+6 0.133072 0.145962 0.061696 0.075665
S20   S     S_3+6 0.670123 0.439438 0.979045 0.044339

loop_
_geom_bond_atom_site_label_1
_geom_bond_atom_site_label_2
_ccdc_geom_bond_type
C100  C153  A    
O60   S14   D    
C31   C42   A    
C117  Cl3   S    
C132  C150  A    
C118  Cl4   S    
C133  C151  A    
C74   C83   A    
C102  C125  S    
C119  Cl5   S    
C14   C33   A    
H28   O85   S    
C19   C46   A    
H18   O56   S    
C67   Cl13  S    
C16   C31   A    
H38   O8    S    
C113  O24   A    
O7    S11   D    
C9    C114  S    
C1    C129  S    
O73   S18   D    
C77   C156  S    
Cu8   O23   S    
C69   O14   A    
C26   H34   S    
Cu10  O34   S    
C139  S11   S    
Cu10  O76   S    
C131  C140  A    
C1    O15   A    
C13   C51   A    
H20   O62   S    
C44   C53   A    
C97   C150  A    
C83   H13   S    
C117  C126  A    
Cu4   O38   S    
C119  C128  A    
C98   S17   S    
O6    S11   D    
C47   C146  A    
C100  C109  A    
C24   C50   A    
O82   S20   S    
C105  S4    S    
C13   C41   A    
C23   H41   S    
Cu7   O30   S    
C95   H4    S    
C145  O21   A    
Cu2   O41   S    
O81   S20   D    
C21   H43   S    
C115  C123  A    
O3    S10   D    
O62   S14   S    
C127  C136  A    
O89   S3    S    
Cu2   Cu12  S    
C115  Cl16  S    
C57   Cl10  S    
C101  C110  A    
C3    C105  A    
C120  C129  A    
Cu10  O16   S    
C70   Cl15  S    
C35   Cl1   S    
C149  O32   A    
H36   O108  S    
Cu3   Cu4   S    
C72   C151  S    
C6    C106  S    
O83   S2    D    
C82   H11   S    
C124  C127  S    
C9    O44   A    
C5    O39   A    
C9    O50   A    
C50   C59   A    
C35   C45   A    
C11   O52   A    
C15   C30   A    
H19   O59   S    
C16   C25   A    
O8    S11   S    
C124  O25   A    
O93   S5    D    
O63   S15   D    
C76   C155  S    
C106  C115  A    
C52   C61   A    
C18   C38   A    
H31   O95   S    
H39   O11   S    
C142  O54   A    
C136  C153  A    
C147  O1    A    
C58   C141  S    
C32   C42   A    
Cu1   O27   S    
O88   S3    D    
C84   C93   A    
O67   S16   D    
C86   C95   A    
C2    C40   A    
C126  C134  A    
O59   S12   S    
C102  O2    A    
C6    O36   A    
C148  O34   A    
C76   C85   A    
C149  O35   A    
C91   O22   A    
C78   C87   A    
C46   Cl9   S    
C123  C132  A    
C27   C29   A    
O96   S6    D    
C121  C130  A    
O94   S5    D    
C71   C79   A    
C8    O49   A    
C90   H8    S    
C99   C108  A    
O78   S19   D    
O75   S18   S    
C10   O40   A    
C4    O45   A    
C103  S2    S    
Cu9   O65   S    
C77   C86   A    
C37   C40   A    
C60   C143  S    
C38   C39   A    
C75   C84   A    
C71   C150  S    
C121  Cl7   S    
C122  Cl8   S    
C85   C94   A    
O92   S4    S    
C8    O42   A    
C20   C35   A    
C69   O19   A    
C69   C128  S    
C2    C44   A    
C22   C25   A    
C30   C41   A    
C10   O51   A    
C147  O33   A    
O104  S8    D    
C92   H7    S    
C120  Cl6   S    
C93   H2    S    
Cu2   O51   S    
O74   S18   D    
C96   H3    S    
C44   C65   A    
C101  S20   S    
C2    C45   A    
C58   C64   A    
C34   C39   A    
O55   S1    D    
C64   S15   S    
C7    O48   A    
Cu5   O2    S    
C104  C112  A    
Cu7   O22   S    
C113  O98   A    
Cu3   O45   S    
C116  Cl2   S    
O72   S17   S    
C15   C67   A    
C51   C67   A    
C19   C28   A    
Cu7   O13   S    
Cu1   O1    S    
C102  O23   A    
C116  C125  A    
C73   C152  S    
C7    C107  S    
C118  C127  A    
Cu8   O54   S    
Cu4   O47   S    
C122  C131  A    
O9    S13   D    
O11   S13   S    
C12   C70   A    
C14   C68   A    
H37   O5    S    
O56   S1    S    
C108  C117  A    
C72   C81   A    
C136  S8    S    
C62   S12   S    
H26   O79   S    
C45   C54   A    
C22   H42   S    
Cu7   O43   S    
Cu12  O52   S    
C99   C152  A    
C79   H9    S    
O91   S4    D    
C14   C22   A    
C56   C142  S    
C112  C121  A    
C55   C148  S    
C101  C154  A    
C55   C61   A    
C28   H12   S    
C29   H1    S    
C135  O26   A    
C107  C116  A    
C43   C57   A    
O103  S8    D    
C91   O16   A    
C51   C60   A    
Cu1   O98   S    
O10   S13   D    
H22   O69   S    
O97   S6    D    
Cu9   O15   S    
C138  C155  A    
Cu1   O18   S    
H21   O66   S    
C34   C37   A    
C24   C42   A    
C143  O29   A    
C97   S16   S    
Cu6   O12   S    
Cu2   O42   S    
C78   C90   A    
C88   H6    S    
C4    C108  S    
H25   O75   S    
C8    C112  S    
O69   S16   S    
C145  O31   A    
C4    O38   A    
C135  O12   A    
C138  S10   S    
C25   H40   S    
C103  C111  A    
C7    O37   A    
C68   Cl14  S    
O105  S8    S    
O66   S15   S    
C109  C118  A    
C80   O20   A    
O102  S7    S    
Cu6   Cu11  S    
C94   H44   S    
Cu7   Cu10  S    
C81   C89   A    
Cu1   Cu9   S    
C80   C131  S    
O53   S1    D    
C11   O41   A    
C148  O43   A    
C130  C139  A    
C79   C88   A    
C98   C151  A    
O106  S9    D    
O95   S5    S    
C134  S7    S    
C11   C111  S    
Cu12  O44   S    
O58   S12   D    
O70   S17   D    
Cu3   O39   S    
C91   C130  S    
C54   C62   A    
C84   H14   S    
C98   C107  A    
C110  C119  A    
Cu6   O29   S    
O77   S19   D    
O99   S6    S    
C18   C57   A    
C141  O65   A    
C113  C123  S    
C134  C152  A    
C53   C145  S    
C48   C68   A    
O4    S10   D    
Cu4   O37   S    
C97   C106  A    
C103  C155  A    
C126  C135  S    
C49   C70   A    
C21   C23   A    
C99   S18   S    
C16   C66   A    
H29   O89   S    
C73   C82   A    
O100  S7    D    
H32   O99   S    
C137  S9    S    
Cu5   O28   S    
O90   S4    D    
C46   C47   A    
C132  S5    S    
C17   C65   A    
O71   S17   D    
Cu9   O24   S    
Cu4   O46   S    
C100  S19   S    
O84   S2    D    
Cu8   O14   S    
C65   Cl11  S    
C82   C90   A    
C66   Cl12  S    
C33   C41   A    
C36   C38   A    
C43   C146  A    
Cu5   O19   S    
C5    C109  S    
C133  S6    S    
C39   C146  A    
C137  C154  A    
C10   C110  S    
C43   C52   A    
Cu10  O25   S    
O107  S9    D    
C20   C36   A    
Cu9   O33   S    
O5    S10   S    
C89   H5    S    
O85   S2    S    
C5    O46   A    
C73   C96   A    
C3    C78   S    
C143  O87   A    
C87   H17   S    
H27   O82   S    
C77   C92   A    
C75   C154  S    
Cu11  O26   S    
O61   S14   D    
C142  O28   A    
C71   C94   A    
C83   C92   A    
C59   C64   A    
C60   C63   A    
C17   C26   A    
C1    O18   A    
Cu11  O17   S    
O108  S9    S    
Cu3   O48   S    
O101  S7    D    
C104  S3    S    
H35   O105  S    
C81   H10   S    
C85   H15   S    
C129  C138  A    
C31   C33   A    
Cu11  O87   S    
C144  O30   A    
C76   C88   A    
H30   O92   S    
C144  O76   A    
C15   C23   A    
Cu5   O21   S    
C61   S1    S    
C12   C32   A    
Cu8   O31   S    
O68   S16   D    
C54   C149  S    
C20   C29   A    
C141  O27   A    
C105  C114  A    
C36   C40   A    
C75   C89   A    
Cu12  O49   S    
C12   C21   A    
O80   S20   D    
C49   C58   A    
C74   C153  S    
C111  C120  A    
C128  C137  A    
Cu3   O36   S    
C53   C62   A    
Cu5   Cu8   S    
C87   C96   A    
C56   C63   A    
C17   C37   A    
C104  C156  A    
C6    O47   A    
C50   C66   A    
C63   S14   S    
Cu6   O32   S    
Cu6   O20   S    
Cu2   O50   S    
C59   C144  S    
C52   C147  S    
Cu12  O40   S    
C72   C93   A    
C47   C55   A    
C125  C133  A    
C24   C49   A    
C48   C56   A    
C74   C95   A    
C18   C27   A    
C19   C34   A    
C13   C48   A    
C26   C28   A    
C124  O13   A    
O86   S3    D    
C30   C32   A    
O64   S15   D    
C139  C156  A    
Cu11  O35   S    
H33   O102  S    
C27   H23   S    
C140  S13   S    
C114  C122  A    
C86   H16   S    
H24   O72   S    
C80   O17   A    
C3    C140  A    
O57   S12   D    
O79   S19   S    
