data_mof_unit_48296.cif
_audit_creation_date              2012-12-10T19:39:09-0500
_audit_creation_method            fapswitch 2.2
_symmetry_space_group_name_H-M    P1
_symmetry_Int_Tables_number       1
_space_group_crystal_system       triclinic
_cell_length_a                    15.832532
_cell_length_b                    15.856613
_cell_length_c                    17.110325
_cell_angle_alpha                 90.788161
_cell_angle_beta                  95.973721
_cell_angle_gamma                 92.031186
_cell_volume                      4268.88487054

loop_
_atom_site_label
_atom_site_type_symbol
_atom_type_description
_atom_site_fract_x
_atom_site_fract_y
_atom_site_fract_z
_atom_type_partial_charge
C1    C     C_R   0.510211 0.499838 0.651336 0.848806
C2    C     C_R   0.490024 0.500261 0.348615 0.842169
C3    C     C_R   0.443711 0.474948 0.774513 -0.344778
C4    C     C_R   0.562046 0.499386 0.226974 -0.329606
C5    C     C_R   0.449252 0.468711 0.856035 0.384526
C6    C     C_R   0.561095 0.499665 0.145089 0.385924
C7    C     C_R   0.527713 0.488001 0.901405 0.178311
C8    C     C_R   0.482159 0.506677 0.098233 0.191363
C9    C     C_R   0.599885 0.510119 0.864178 0.370725
C10   C     C_R   0.406864 0.512104 0.134495 0.365610
C11   C     C_R   0.594028 0.512946 0.782163 -0.324107
C12   C     C_R   0.409071 0.508384 0.216141 -0.331712
C13   C     C_R   0.247635 0.545675 0.534714 0.556211
C14   C     C_R   0.751838 0.459722 0.460019 0.549617
C15   C     C_R   0.157630 0.544393 0.529961 -0.374387
C16   C     C_R   0.841437 0.465156 0.460657 -0.380053
C17   C     C_R   0.108717 0.482703 0.483828 0.287141
C18   C     C_R   0.890969 0.518072 0.515487 0.295776
C19   C     C_R   0.151917 0.425223 0.441414 -0.429204
C20   C     C_R   0.848468 0.566787 0.566682 -0.440078
C21   C     C_R   0.241785 0.430326 0.443355 0.554935
C22   C     C_R   0.758109 0.564158 0.562368 0.567043
C23   C     C_R   0.499518 0.660229 0.499773 0.826979
C24   C     C_R   0.500444 0.339743 0.499829 0.821311
C25   C     C_3   0.557437 0.029381 0.554740 0.541902
C26   C     C_3   0.442877 0.970401 0.442920 0.547301
C27   C     C_3   0.480113 0.972168 0.569494 -0.302498
C28   C     C_3   0.520191 0.027662 0.428151 -0.309190
C29   C     C_1   0.498502 0.749815 0.499003 -0.166442
C30   C     C_1   0.501373 0.250099 0.499649 -0.174879
C31   C     C_3   0.577955 0.973533 0.485186 -0.306495
C32   C     C_3   0.422339 0.026253 0.512459 -0.295756
C33   C     C_3   0.499532 0.916969 0.498886 0.074426
C34   C     C_3   0.500772 0.082877 0.498796 0.071615
C35   C     C_1   0.498492 0.825334 0.498654 -0.001270
C36   C     C_1   0.501564 0.174555 0.499386 -0.004250
C37   C     C_R   0.515861 0.496665 0.737182 -0.150500
C38   C     C_R   0.486515 0.502208 0.262689 -0.152173
Cu1   Cu    Cu3+1 0.584780 0.504040 0.503820 1.018232
Cu2   Cu    Cu3+1 0.415220 0.495960 0.496180 1.017272
H1    H     H_    0.464656 0.948243 0.627187 0.148302
H2    H     H_    0.535703 0.051599 0.370480 0.146875
H3    H     H_    0.358862 0.049025 0.522744 0.152083
H4    H     H_    0.641379 0.950675 0.474830 0.148634
H5    H     H_    0.622436 0.497702 0.262793 0.204736
H6    H     H_    0.383132 0.460676 0.740565 0.176989
H7    H     H_    0.650643 0.528127 0.753921 0.205871
H8    H     H_    0.350169 0.511238 0.242809 0.183253
N1    N     N_2   0.536919 0.483977 0.984301 -0.152531
N2    N     N_2   0.474648 0.510045 0.014929 -0.160105
N3    N     N_R   0.287870 0.489880 0.490440 -0.241153
N4    N     N_R   0.712130 0.510120 0.509560 -0.235568
N5    N     N_2   0.017275 0.475715 0.477908 -0.208551
N6    N     N_2   0.982405 0.525162 0.521310 -0.208090
O1    O     O_R   0.579470 0.503780 0.617500 -0.542408
O2    O     O_R   0.420530 0.496220 0.382500 -0.573183
O3    O     O_R   0.436280 0.496950 0.611050 -0.586517
O4    O     O_R   0.563720 0.503050 0.388950 -0.549461
O5    O     O_R   0.571580 0.624340 0.503230 -0.556297
O6    O     O_R   0.428420 0.375660 0.496770 -0.529013
O7    O     O_R   0.428390 0.617510 0.496780 -0.529843
O8    O     O_R   0.571610 0.382490 0.503220 -0.572867
H9    H     H_    0.115090 0.375777 0.407909 0.157701
H10   H     H_    0.886668 0.606096 0.609901 0.151381
O9    O     O_3   0.285252 0.370691 0.404820 -0.542019
C39   C     C_3   0.252694 0.360725 0.325028 0.064796
H11   H     H_    0.242623 0.422858 0.296546 0.134562
H12   H     H_    0.192099 0.322567 0.319204 0.133094
C40   C     C_3   0.315811 0.312926 0.281641 -0.771649
H13   H     H_    0.322578 0.248448 0.305549 0.231190
H14   H     H_    0.293029 0.307859 0.218078 0.203791
H15   H     H_    0.378956 0.346334 0.288769 0.251860
O10   O     O_3   0.713560 0.610065 0.613534 -0.545582
C41   C     C_3   0.753353 0.688926 0.636757 0.046593
H16   H     H_    0.777931 0.722095 0.586239 0.139602
H17   H     H_    0.805699 0.680208 0.684193 0.139668
C42   C     C_3   0.688859 0.744622 0.669928 -0.812514
H18   H     H_    0.662158 0.713096 0.719976 0.237574
H19   H     H_    0.720029 0.805827 0.690861 0.190442
H20   H     H_    0.636421 0.756990 0.623799 0.248258
O11   O     O_3   0.617244 0.066452 0.613201 -0.574125
C43   C     C_3   0.660973 0.002395 0.655040 0.057042
H21   H     H_    0.696699 0.964131 0.615472 0.138601
H22   H     H_    0.616315 0.960265 0.683965 0.138980
C44   C     C_3   0.724498 0.042642 0.718666 -0.778797
H23   H     H_    0.690804 0.080532 0.759939 0.250331
H24   H     H_    0.759359 0.992726 0.751954 0.191734
H25   H     H_    0.770878 0.084355 0.691721 0.250758
O12   O     O_3   0.383124 0.932890 0.384668 -0.571167
C45   C     C_3   0.340035 0.996554 0.341737 0.065029
H26   H     H_    0.385090 0.037288 0.311877 0.135286
H27   H     H_    0.304966 0.036277 0.380683 0.140955
C46   C     C_3   0.275853 0.955641 0.279019 -0.778465
H28   H     H_    0.229106 0.915267 0.306911 0.252135
H29   H     H_    0.241498 0.005196 0.244771 0.193815
H30   H     H_    0.308917 0.916236 0.238425 0.246814
O13   O     O_3   0.636958 0.500773 0.110923 -0.544985
C47   C     C_3   0.683649 0.428760 0.132709 0.066723
H31   H     H_    0.641821 0.370848 0.135001 0.128309
H32   H     H_    0.720987 0.439964 0.190831 0.152323
C48   C     C_3   0.745724 0.412489 0.072584 -0.716752
H33   H     H_    0.789223 0.468432 0.068876 0.251624
H34   H     H_    0.784037 0.357258 0.090262 0.178926
H35   H     H_    0.710438 0.398957 0.013980 0.276121
O14   O     O_3   0.377046 0.446462 0.891025 -0.546203
C49   C     C_3   0.372919 0.357934 0.898392 0.086058
H36   H     H_    0.431303 0.335060 0.932477 0.140191
H37   H     H_    0.364416 0.326358 0.839376 0.131933
C50   C     C_3   0.297187 0.333108 0.942075 -0.746573
H38   H     H_    0.292518 0.263416 0.947322 0.182756
H39   H     H_    0.304950 0.362189 0.001928 0.279241
H40   H     H_    0.237674 0.354826 0.909653 0.245279
O15   O     O_3   0.676917 0.525629 0.908972 -0.556775
C51   C     C_3   0.700043 0.612282 0.905812 0.102065
H41   H     H_    0.646450 0.652886 0.917568 0.137788
H42   H     H_    0.721053 0.627680 0.847437 0.133407
C52   C     C_3   0.773666 0.632863 0.968281 -0.770956
H43   H     H_    0.828380 0.593430 0.958664 0.241767
H44   H     H_    0.793695 0.700462 0.965234 0.189572
H45   H     H_    0.753806 0.620496 0.027563 0.272721
O16   O     O_3   0.329643 0.514769 0.089040 -0.560073
C53   C     C_3   0.305826 0.599542 0.083589 0.096100
H46   H     H_    0.356028 0.639888 0.059863 0.143989
H47   H     H_    0.293228 0.624838 0.142155 0.132531
C54   C     C_3   0.224859 0.604040 0.027833 -0.764816
H48   H     H_    0.172991 0.565432 0.050312 0.242442
H49   H     H_    0.205341 0.670498 0.022930 0.188816
H50   H     H_    0.235840 0.579823 0.968634 0.267240
O17   O     O_3   0.702295 0.409959 0.404466 -0.558967
C55   C     C_3   0.726181 0.324640 0.406047 0.082927
H51   H     H_    0.670415 0.284778 0.418979 0.177235
H52   H     H_    0.778906 0.310188 0.451818 0.122478
C56   C     C_3   0.749694 0.298291 0.325443 -0.869775
H53   H     H_    0.804730 0.337461 0.309756 0.241333
H54   H     H_    0.766734 0.230960 0.325902 0.216730
H55   H     H_    0.694905 0.306294 0.280409 0.242797
O18   O     O_3   0.296065 0.607993 0.578060 -0.542785
C57   C     C_3   0.278351 0.610948 0.657529 0.068760
H56   H     H_    0.338928 0.603496 0.695203 0.177537
H57   H     H_    0.233501 0.560061 0.674288 0.117857
C58   C     C_3   0.245282 0.697026 0.676747 -0.821838
H58   H     H_    0.184593 0.707855 0.640356 0.240133
H59   H     H_    0.234293 0.700311 0.739748 0.208690
H60   H     H_    0.292612 0.747485 0.665138 0.256648
H61   H     H_    0.871576 0.428320 0.418459 0.179910
H62   H     H_    0.126593 0.591299 0.562113 0.180892

loop_
_geom_bond_atom_site_label_1
_geom_bond_atom_site_label_2
_ccdc_geom_bond_type
C25   C31   S    
C39   H12   S    
C26   C32   S    
C46   H28   S    
Cu2   O6    S    
C17   N5    S    
O10   C41   S    
O14   C49   S    
C11   H7    S    
C12   H8    S    
C10   O16   S    
O11   C43   S    
C5    O14   S    
C44   H23   S    
C27   C33   S    
C26   O12   S    
C23   O5    A    
C48   H33   S    
C41   H17   S    
C23   C29   S    
C19   C21   A    
O15   C51   S    
C50   H39   S    
C42   H20   S    
C39   C40   S    
C49   H36   S    
C11   C37   A    
C40   H14   S    
C2    C38   S    
C17   C19   A    
C13   N3    A    
C58   H58   S    
C14   N4    A    
C19   H9    S    
Cu2   O2    S    
C41   C42   S    
C54   H50   S    
C31   C33   S    
C18   C20   A    
C1    C37   S    
C25   C34   S    
C44   H24   S    
C39   H11   S    
C28   C34   S    
C46   H29   S    
C25   O11   S    
O13   C47   S    
C4    H5    S    
C42   H19   S    
Cu1   O1    S    
C31   H4    S    
C6    O13   S    
C7    N1    S    
C4    C6    A    
C41   H16   S    
C52   H45   S    
O12   C45   S    
Cu1   Cu2   S    
C5    C7    A    
C6    C8    A    
C42   H18   S    
Cu1   O4    S    
C43   H21   S    
Cu2   O7    S    
C50   H40   S    
C16   H61   S    
C58   H59   S    
C32   C34   S    
C20   H10   S    
C40   H15   S    
C55   H52   S    
C1    O3    A    
C56   H55   S    
C27   H1    S    
C26   C33   S    
C45   H27   S    
C24   O6    A    
Cu1   O5    S    
C9    C11   A    
O16   C53   S    
C10   C12   A    
C16   C18   A    
C4    C38   A    
N1    N2    D    
C46   H30   S    
C43   H22   S    
C13   C15   A    
C54   H48   S    
C14   C16   A    
C58   H60   S    
C55   C56   S    
C53   H47   S    
C43   C44   S    
C8    N2    S    
C21   N3    A    
C45   C46   S    
C22   N4    A    
O17   C55   S    
C48   H34   S    
C44   H25   S    
C15   C17   A    
Cu1   O8    S    
C24   O8    A    
Cu2   O3    S    
C21   O9    S    
C27   C32   S    
C28   C31   S    
C20   C22   A    
C3    C5    A    
C57   C58   S    
C15   H62   S    
C51   H42   S    
C2    O4    A    
N5    N6    D    
C57   H57   S    
C25   C27   S    
Cu2   N3    S    
O18   C57   S    
C29   C35   T    
C3    H6    S    
C26   C28   S    
C47   C48   S    
C30   C36   T    
C9    O15   S    
C53   C54   S    
C52   H44   S    
C55   H51   S    
C1    O1    A    
C2    O2    A    
C52   H43   S    
C45   H26   S    
C56   H53   S    
C49   H37   S    
C28   H2    S    
C33   C35   S    
C32   H3    S    
Cu1   N4    S    
C34   C36   S    
C51   H41   S    
O9    C39   S    
C12   C38   A    
C40   H13   S    
C47   H32   S    
C24   C30   S    
C51   C52   S    
C57   H56   S    
C18   N6    S    
C7    C9    A    
C23   O7    A    
C3    C37   A    
C8    C10   A    
C47   H31   S    
C54   H49   S    
C56   H54   S    
C48   H35   S    
C22   O10   S    
C53   H46   S    
C50   H38   S    
C49   C50   S    
C13   O18   S    
C14   O17   S    
