data_mof_unit_46279.cif
_audit_creation_date              2012-12-10T18:30:26-0500
_audit_creation_method            fapswitch 2.2
_symmetry_space_group_name_H-M    P1
_symmetry_Int_Tables_number       1
_space_group_crystal_system       triclinic
_cell_length_a                    14.8857
_cell_length_b                    14.16338
_cell_length_c                    15.304046
_cell_angle_alpha                 89.751037
_cell_angle_beta                  82.336994
_cell_angle_gamma                 103.470704
_cell_volume                      3107.6924946

loop_
_atom_site_label
_atom_site_type_symbol
_atom_type_description
_atom_site_fract_x
_atom_site_fract_y
_atom_site_fract_z
_atom_type_partial_charge
C1    C     C_R   0.558682 0.512547 0.336871 0.889630
C2    C     C_R   0.441641 0.485851 0.663207 0.909802
C3    C     C_R   0.558595 0.450505 0.099647 -0.000864
C4    C     C_R   0.448007 0.420558 0.898948 -0.004408
C5    C     C_R   0.655082 0.472631 0.065623 -0.136324
C6    C     C_R   0.352019 0.389820 0.933544 -0.132956
C7    C     C_R   0.490705 0.413135 0.044553 0.072706
C8    C     C_R   0.517373 0.420788 0.953585 0.067373
C9    C     C_R   0.612202 0.429439 0.920855 -0.371251
C10   C     C_R   0.397306 0.367907 0.077151 -0.387715
C11   C     C_R   0.682042 0.452522 0.976632 0.506211
C12   C     C_R   0.327305 0.350098 0.020871 0.514329
C13   C     C_R   0.161199 0.354445 0.361826 -0.313195
C14   C     C_R   0.849935 0.669925 0.605463 -0.296079
C15   C     C_R   0.247486 0.376383 0.391186 0.022713
C16   C     C_R   0.756563 0.628631 0.602381 -0.007513
C17   C     C_R   0.207606 0.504061 0.476000 0.004713
C18   C     C_R   0.794592 0.508014 0.506780 0.011056
C19   C     C_R   0.120628 0.488578 0.444616 -0.003008
C20   C     C_R   0.890692 0.548744 0.503690 -0.000864
C21   C     C_R   0.097402 0.410457 0.388406 0.118619
C22   C     C_R   0.917345 0.631094 0.555343 0.094020
C23   C     C_R   0.499160 0.329146 0.499747 0.886493
C24   C     C_R   0.500957 0.670881 0.500146 0.866023
C25   C     C_R   0.054757 0.544373 0.470674 -0.118267
C26   C     C_R   0.960622 0.508899 0.454829 -0.084255
C27   C     C_R   0.941205 0.436022 0.391099 0.466745
C28   C     C_R   0.079616 0.635603 0.510347 0.453877
C29   C     C_R   0.011525 0.389666 0.357733 -0.317373
C30   C     C_R   0.010882 0.675936 0.554563 -0.298532
C31   C     C_1   0.497893 0.227313 0.498970 -0.207476
C32   C     C_1   0.502884 0.772869 0.500467 -0.216987
C33   C     C_1   0.498492 0.142193 0.498800 -0.012676
C34   C     C_1   0.503054 0.858182 0.500270 -0.017019
C35   C     C_1   0.500206 0.042679 0.499118 0.000635
C36   C     C_1   0.501800 0.957815 0.499646 -0.003267
C37   C     C_R   0.595295 0.509005 0.242896 -0.262493
C38   C     C_R   0.406863 0.461988 0.757341 -0.258866
C39   C     C_R   0.721563 0.514850 0.121702 0.404902
C40   C     C_R   0.283572 0.400431 0.879708 0.424225
C41   C     C_R   0.691634 0.532861 0.210119 0.360957
C42   C     C_R   0.311238 0.435819 0.791645 0.376769
C43   C     C_R   0.530910 0.472116 0.186399 -0.312076
C44   C     C_R   0.473169 0.457867 0.812555 -0.311389
H1    H     H_    0.545938 0.486147 0.787701 0.192965
H2    H     H_    0.457645 0.461336 0.210826 0.193710
H3    H     H_    0.630792 0.413381 0.852944 0.157673
H4    H     H_    0.381759 0.342918 0.145171 0.151811
H5    H     H_    0.000127 0.337155 0.306862 0.138061
H6    H     H_    0.031268 0.743353 0.587989 0.168567
H7    H     H_    0.767046 0.443356 0.473978 0.181144
H8    H     H_    0.227942 0.556684 0.524492 0.179457
H9    H     H_    0.703646 0.661644 0.636039 0.136310
H10   H     H_    0.298451 0.335176 0.369224 0.130243
H11   H     H_    0.143956 0.293928 0.319377 0.142287
H12   H     H_    0.869309 0.733327 0.644410 0.144734
N1    N     N_R   0.268300 0.449640 0.447270 -0.102764
N2    N     N_R   0.731700 0.550360 0.552730 -0.114963
O1    O     O_R   0.616880 0.525390 0.394380 -0.577551
O2    O     O_R   0.383120 0.474610 0.605620 -0.568212
O3    O     O_R   0.468100 0.493070 0.360490 -0.617367
O4    O     O_R   0.531900 0.506930 0.639510 -0.619837
O5    O     O_R   0.574410 0.389880 0.516950 -0.608439
O6    O     O_R   0.425590 0.610120 0.483050 -0.600380
O7    O     O_R   0.425630 0.357560 0.483060 -0.594337
O8    O     O_R   0.574370 0.642440 0.516940 -0.606221
Zn1   Zn    Zn3+2 0.599340 0.521580 0.522630 0.928172
Zn2   Zn    Zn3+2 0.400660 0.478420 0.477370 0.946741
O9    O     O_3   0.774437 0.448219 0.949813 -0.599146
C45   C     C_3   0.808550 0.478625 0.860798 0.070627
H13   H     H_    0.878901 0.527481 0.859312 0.160180
H14   H     H_    0.767119 0.522972 0.830644 0.111392
C46   C     C_3   0.819556 0.390487 0.806457 -0.336922
H15   H     H_    0.872599 0.357638 0.831436 0.231380
H16   H     H_    0.752553 0.334752 0.813692 0.224046
C47   C     C_3   0.850086 0.419023 0.709045 -0.955802
H17   H     H_    0.795583 0.447868 0.682646 0.272379
H18   H     H_    0.859827 0.354307 0.671679 0.265439
H19   H     H_    0.916935 0.474986 0.699754 0.270616
O10   O     O_3   0.235687 0.295530 0.045039 -0.604560
C48   C     C_3   0.211694 0.260186 0.133546 0.085047
H20   H     H_    0.134393 0.243434 0.148210 0.158310
H21   H     H_    0.235883 0.316215 0.181070 0.114959
C49   C     C_3   0.242089 0.165124 0.146027 -0.350489
H22   H     H_    0.205631 0.109375 0.103726 0.233180
H23   H     H_    0.318214 0.175592 0.125442 0.223711
C50   C     C_3   0.218718 0.127611 0.241879 -0.977559
H24   H     H_    0.257813 0.180345 0.284831 0.260982
H25   H     H_    0.238911 0.057441 0.248080 0.269871
H26   H     H_    0.142687 0.115823 0.264233 0.262806
O11   O     O_3   0.861774 0.424598 0.349654 -0.578189
C51   C     C_3   0.815212 0.325263 0.347986 0.082651
H27   H     H_    0.806127 0.288459 0.414212 0.115970
H28   H     H_    0.853133 0.286372 0.298432 0.145275
C52   C     C_3   0.719205 0.317330 0.320596 -0.749347
H29   H     H_    0.726387 0.346846 0.252055 0.269210
H30   H     H_    0.680596 0.239939 0.323398 0.189459
H31   H     H_    0.678622 0.358291 0.365336 0.260516
O12   O     O_3   0.170529 0.689984 0.501933 -0.638533
C53   C     C_3   0.190997 0.741118 0.419509 0.090147
H32   H     H_    0.145385 0.792935 0.416377 0.145500
H33   H     H_    0.182057 0.690440 0.364097 0.143528
C54   C     C_3   0.291808 0.798798 0.407440 -0.805600
H34   H     H_    0.338939 0.748469 0.406917 0.264412
H35   H     H_    0.308021 0.841290 0.343819 0.200751
H36   H     H_    0.303550 0.849597 0.462085 0.264070
O13   O     O_3   0.243239 0.440611 0.739348 -0.594242
C55   C     C_3   0.230641 0.536691 0.736337 0.105586
H37   H     H_    0.271789 0.575664 0.675490 0.156386
H38   H     H_    0.253833 0.580431 0.793270 0.086945
C56   C     C_3   0.127319 0.532431 0.733849 -0.309940
H39   H     H_    0.107325 0.502807 0.670224 0.220556
H40   H     H_    0.084096 0.483044 0.788088 0.239316
C57   C     C_3   0.106620 0.632662 0.744173 -0.989575
H41   H     H_    0.149665 0.683983 0.691314 0.297137
H42   H     H_    0.121696 0.661163 0.809502 0.259350
H43   H     H_    0.031784 0.627422 0.739812 0.261705
O14   O     O_3   0.758524 0.564629 0.265111 -0.559781
C58   C     C_3   0.769197 0.665223 0.279212 0.126494
H44   H     H_    0.721919 0.676157 0.338736 0.165141
H45   H     H_    0.753186 0.706191 0.223206 0.068244
C59   C     C_3   0.869626 0.708261 0.294914 -0.288433
H46   H     H_    0.886075 0.667606 0.350569 0.243541
H47   H     H_    0.918133 0.700638 0.234994 0.222872
C60   C     C_3   0.884778 0.815321 0.316719 -1.004639
H48   H     H_    0.870196 0.857914 0.261381 0.265853
H49   H     H_    0.958341 0.843995 0.327540 0.266671
H50   H     H_    0.838432 0.824192 0.377775 0.272615
O15   O     O_3   0.816544 0.532744 0.093399 -0.529416
C61   C     C_3   0.847230 0.625647 0.050703 0.162392
H51   H     H_    0.834141 0.683598 0.095572 0.106155
H52   H     H_    0.811932 0.630367 0.991724 0.119574
C62   C     C_3   0.951836 0.645639 0.021158 -0.837863
H53   H     H_    0.968228 0.589784 0.975101 0.257834
H54   H     H_    0.976690 0.718202 0.987004 0.199803
H55   H     H_    0.989020 0.644363 0.079273 0.250041
O16   O     O_3   0.188968 0.372773 0.910354 -0.535000
C63   C     C_3   0.162218 0.446834 0.962131 0.110323
H56   H     H_    0.168392 0.513401 0.921230 0.111662
H57   H     H_    0.205117 0.466401 0.016529 0.134019
C64   C     C_3   0.060807 0.411590 0.003086 -0.735014
H58   H     H_    0.051643 0.343817 0.043461 0.261899
H59   H     H_    0.039887 0.467761 0.046298 0.214365
H60   H     H_    0.015122 0.397201 0.950514 0.248408

loop_
_geom_bond_atom_site_label_1
_geom_bond_atom_site_label_2
_ccdc_geom_bond_type
C7    C10   A    
C14   H12   S    
C50   H24   S    
C27   C29   A    
C46   H16   S    
C46   H15   S    
C35   C36   T    
C47   H19   S    
C4    C8    A    
C57   H41   S    
C52   H31   S    
C7    C8    A    
C39   C41   A    
C29   H5    S    
C25   C28   A    
C3    C43   A    
C26   C27   A    
O4    Zn1   S    
O6    Zn2   S    
C19   C21   A    
C47   H18   S    
C5    C11   A    
C3    C7    A    
C1    O1    A    
C6    C12   A    
C2    O2    A    
C23   O5    A    
C55   H37   S    
C16   H9    S    
C51   H27   S    
O1    Zn1   S    
O14   C58   S    
C18   N2    A    
C52   H29   S    
C8    C9    A    
C62   H55   S    
O13   C55   S    
C49   C50   S    
C27   O11   S    
C45   H13   S    
C14   C16   A    
C41   O14   S    
C56   C57   S    
C42   O13   S    
C34   C36   S    
C24   O8    A    
C40   C42   A    
O8    Zn1   S    
C30   H6    S    
C24   O6    A    
C15   N1    A    
C17   H8    S    
C53   H33   S    
C48   H21   S    
C18   H7    S    
C48   H20   S    
C58   H45   S    
O5    Zn1   S    
C31   C33   T    
C15   H10   S    
C49   H22   S    
C4    C6    A    
C64   H60   S    
O11   C51   S    
C17   C19   A    
C4    C44   A    
C25   C26   A    
C21   C29   A    
C53   C54   S    
C23   C31   S    
C37   C43   A    
C61   H52   S    
C24   C32   S    
C38   C44   A    
C60   H50   S    
C2    C38   S    
O12   C53   S    
O7    Zn2   S    
C40   O16   S    
C45   C46   S    
C51   H28   S    
C13   C21   A    
C56   H40   S    
C16   N2    A    
C47   H17   S    
C9    C11   A    
C10   C12   A    
C28   O12   S    
C20   C22   A    
C9    H3    S    
C13   C15   A    
C10   H4    S    
C60   H48   S    
C54   H35   S    
C6    C40   A    
C61   C62   S    
N1    Zn2   S    
C59   H47   S    
C48   C49   S    
C44   H1    S    
C62   H54   S    
O15   C61   S    
C58   C59   S    
C5    C39   A    
C22   C30   A    
C56   H39   S    
C49   H23   S    
O10   C48   S    
C3    C5    A    
C63   C64   S    
C1    O3    A    
C57   H42   S    
C58   H44   S    
C52   H30   S    
C38   C42   A    
C63   H57   S    
C1    C37   S    
C39   O15   S    
O16   C63   S    
C55   C56   S    
C23   O7    A    
C59   C60   S    
C64   H59   S    
C61   H51   S    
C11   O9    S    
C64   H58   S    
O3    Zn2   S    
C14   C22   A    
C62   H53   S    
C20   C26   A    
C12   O10   S    
C28   C30   A    
C53   H32   S    
C33   C35   S    
C55   H38   S    
C54   H36   S    
C18   C20   A    
C51   C52   S    
C37   C41   A    
O9    C45   S    
C19   C25   A    
C43   H2    S    
C57   H43   S    
C63   H56   S    
N2    Zn1   S    
C46   C47   S    
O2    Zn2   S    
C50   H26   S    
C17   N1    A    
C54   H34   S    
C60   H49   S    
C50   H25   S    
C45   H14   S    
C59   H46   S    
C2    O4    A    
C32   C34   T    
C13   H11   S    
