data_mof_unit_59767.cif
_audit_creation_date              2012-12-11T15:18:35-0500
_audit_creation_method            fapswitch 2.2
_symmetry_space_group_name_H-M    P1
_symmetry_Int_Tables_number       1
_space_group_crystal_system       triclinic
_cell_length_a                    6.944089
_cell_length_b                    19.923652
_cell_length_c                    23.745509
_cell_angle_alpha                 93.477761
_cell_angle_beta                  91.240716
_cell_angle_gamma                 88.56065
_cell_volume                      3277.47771668

loop_
_atom_site_label
_atom_site_type_symbol
_atom_type_description
_atom_site_fract_x
_atom_site_fract_y
_atom_site_fract_z
_atom_type_partial_charge
O1    O     O_R   0.620100 0.812200 0.810870 -0.537600
O2    O     O_R   0.379900 0.187800 0.189130 -0.537562
O3    O     O_R   0.296960 0.671650 0.794750 -0.539868
O4    O     O_R   0.703040 0.328350 0.205250 -0.539712
O5    O     O_R   0.120160 0.687800 0.689130 -0.539951
O6    O     O_R   0.879840 0.312200 0.310870 -0.540247
C1    C     C_R   0.468630 0.646935 0.804465 0.713816
C2    C     C_R   0.531370 0.353064 0.195534 0.714245
O7    O     O_R   0.290810 0.810670 0.817290 -0.544589
O8    O     O_R   0.709190 0.189330 0.182710 -0.544397
O9    O     O_R   0.113980 0.827820 0.711840 -0.533617
O10   O     O_R   0.886020 0.172180 0.288160 -0.534719
C3    C     C_R   0.459399 0.831804 0.834284 0.707470
C4    C     C_R   0.540598 0.168203 0.165710 0.707707
O11   O     O_R   0.626290 0.672180 0.788160 -0.537009
O12   O     O_R   0.373710 0.327820 0.211840 -0.536864
O13   O     O_3   0.451520 0.755460 0.715370 -0.367475
O14   O     O_3   0.548480 0.244540 0.284630 -0.368291
V1    V     V_3+5 0.179200 0.748980 0.756420 1.422843
V2    V     V_3+5 0.820800 0.251020 0.243580 1.421103
O15   O     O_R   0.783880 0.828350 0.705250 -0.537026
O16   O     O_R   0.216120 0.171650 0.294750 -0.536331
C5    C     C_R   0.950096 0.852419 0.694365 0.700805
C6    C     C_R   0.050338 0.147446 0.305505 0.700593
O17   O     O_R   0.790030 0.689320 0.682700 -0.544796
O18   O     O_R   0.209970 0.310680 0.317300 -0.545064
C7    C     C_R   0.959100 0.667940 0.665825 0.711135
C8    C     C_R   0.040894 0.332025 0.334197 0.711657
V3    V     V_3+5 0.678400 0.751010 0.743570 1.425493
V4    V     V_3+5 0.321600 0.248990 0.256430 1.423306
O19   O     O_3   0.955950 0.744540 0.784620 -0.369139
O20   O     O_3   0.044050 0.255460 0.215380 -0.368778
C9    C     C_R   0.863287 0.422683 0.391466 -0.209005
C10   C     C_R   0.136638 0.577197 0.608616 -0.207063
C11   C     C_R   0.029831 0.381604 0.383448 -0.082859
C12   C     C_R   0.970120 0.618297 0.616616 -0.083403
C13   C     C_R   0.184519 0.388380 0.422549 -0.213127
C14   C     C_R   0.815363 0.611467 0.577545 -0.217781
C15   C     C_R   0.172771 0.434864 0.469400 0.091691
C16   C     C_R   0.827069 0.564953 0.530716 0.090836
C17   C     C_R   0.005942 0.476214 0.476717 0.054895
C18   C     C_R   0.993899 0.523604 0.523401 0.055172
C19   C     C_R   0.851108 0.470261 0.437434 0.088983
C20   C     C_R   0.148753 0.529573 0.562676 0.088422
C21   C     C_R   0.324765 0.440694 0.509192 -0.172204
C22   C     C_R   0.675048 0.559109 0.490935 -0.174525
C23   C     C_R   0.312980 0.487662 0.555362 -0.187412
C24   C     C_R   0.686851 0.512153 0.444759 -0.188437
H1    H     H_    0.743716 0.418305 0.361441 0.123710
H2    H     H_    0.256239 0.581602 0.638628 0.123720
H3    H     H_    0.453582 0.409202 0.504416 0.140039
H4    H     H_    0.546221 0.590595 0.495714 0.140973
H5    H     H_    0.433075 0.491473 0.585203 0.132485
H6    H     H_    0.566760 0.508344 0.414916 0.132192
C25   C     C_R   0.951765 0.914404 0.663138 -0.061656
C26   C     C_R   0.055544 0.085952 0.337520 -0.062251
C27   C     C_R   0.904514 0.035001 0.662818 -0.135430
C28   C     C_R   0.168488 0.970674 0.342878 -0.135455
C29   C     C_R   0.902505 0.975826 0.691106 -0.149661
C30   C     C_R   0.132325 0.026711 0.311730 -0.144133
C31   C     C_R   0.001746 0.912692 0.605860 -0.211111
C32   C     C_R   0.014528 0.088403 0.395527 -0.216060
C33   C     C_R   0.015767 0.972990 0.576770 0.085239
C34   C     C_R   0.067332 0.033781 0.429533 0.086102
C35   C     C_R   0.959357 0.034111 0.606165 0.060265
C36   C     C_R   0.138509 0.973789 0.401269 0.061755
C37   C     C_R   0.075509 0.974656 0.519108 -0.084261
C38   C     C_R   0.049290 0.035778 0.490052 -0.084716
C39   C     C_R   0.013938 0.096600 0.523426 0.345723
C40   C     C_R   0.166704 0.918531 0.489582 0.346653
C41   C     C_R   0.962825 0.094542 0.579617 -0.184084
C42   C     C_R   0.188804 0.917970 0.431513 -0.181977
H7    H     H_    0.931902 0.141600 0.603472 0.149681
H8    H     H_    0.255048 0.873896 0.410100 0.148900
H9    H     H_    0.943786 0.133543 0.412931 0.154374
H10   H     H_    0.022033 0.863694 0.584628 0.152351
H11   H     H_    0.864036 0.081898 0.685521 0.122333
H12   H     H_    0.226745 0.925262 0.321486 0.121252
C43   C     C_R   0.489173 0.585308 0.835482 -0.079429
C44   C     C_R   0.510824 0.414690 0.164515 -0.079452
C45   C     C_R   0.598609 0.468574 0.836773 0.364828
C46   C     C_R   0.401368 0.531421 0.163223 0.364812
C47   C     C_R   0.560118 0.526652 0.807498 -0.253209
C48   C     C_R   0.439865 0.473344 0.192498 -0.253310
C49   C     C_R   0.456588 0.586694 0.893576 -0.221346
C50   C     C_R   0.543415 0.413304 0.106422 -0.221320
C51   C     C_R   0.498688 0.529520 0.925252 0.027543
C52   C     C_R   0.501305 0.470477 0.074745 0.027538
C53   C     C_R   0.569761 0.470139 0.895583 0.098630
C54   C     C_R   0.430223 0.529857 0.104413 0.098635
C55   C     C_R   0.475894 0.529607 0.985326 0.084266
C56   C     C_R   0.524099 0.470390 0.014670 0.084273
C57   C     C_R   0.592592 0.412922 0.982919 -0.214841
C58   C     C_R   0.407395 0.587074 0.017078 -0.214835
C59   C     C_R   0.614193 0.412907 0.925018 -0.153149
C60   C     C_R   0.385789 0.587089 0.074978 -0.153102
H13   H     H_    0.668289 0.367117 0.903277 0.177966
H14   H     H_    0.331685 0.632878 0.096718 0.178033
C61   C     C_R   0.684190 0.073447 0.104517 -0.179116
C62   C     C_R   0.315826 0.926587 0.895454 -0.179059
C63   C     C_R   0.530389 0.119098 0.116164 -0.121720
C64   C     C_R   0.469609 0.880924 0.883818 -0.121422
C65   C     C_R   0.365145 0.116863 0.080901 -0.162940
C66   C     C_R   0.634856 0.883164 0.919079 -0.162998
C67   C     C_R   0.353394 0.070261 0.034207 0.095735
C68   C     C_R   0.646623 0.929778 0.965764 0.095688
C69   C     C_R   0.506741 0.023842 0.023219 -0.029797
C70   C     C_R   0.493281 0.976198 0.976749 -0.029791
C71   C     C_R   0.673157 0.025024 0.058768 0.071622
C72   C     C_R   0.326868 0.975017 0.941197 0.071679
C73   C     C_R   0.190146 0.069503 0.998392 -0.237422
C74   C     C_R   0.809883 0.930541 0.001573 -0.237410
C75   C     C_R   0.175444 0.022363 0.951825 0.332134
C76   C     C_R   0.824593 0.977684 0.048137 0.332353
H15   H     H_    0.810843 0.074958 0.131997 0.169493
H16   H     H_    0.189181 0.925077 0.867970 0.169293
H17   H     H_    0.595364 0.366119 0.087281 0.106773
H18   H     H_    0.404651 0.633880 0.912718 0.106755
H19   H     H_    0.413032 0.473602 0.237323 0.101672
H20   H     H_    0.586945 0.526394 0.762673 0.101855
O21   O     O_3   0.667896 0.410215 0.808927 -0.650364
H21   H     H_    0.679849 0.417710 0.768250 0.291046
O22   O     O_3   0.332065 0.589779 0.191067 -0.650388
H22   H     H_    0.320105 0.582283 0.231744 0.290797
H23   H     H_    0.632131 0.366476 0.001459 0.126409
H24   H     H_    0.367850 0.633519 0.998537 0.126425
H25   H     H_    0.246244 0.152080 0.089433 0.123954
H26   H     H_    0.753750 0.847943 0.910552 0.123893
H27   H     H_    0.073063 0.105471 0.006866 0.119526
H28   H     H_    0.926969 0.894574 0.993097 0.119540
O23   O     O_3   0.014866 0.021816 0.916378 -0.651606
H29   H     H_    0.921699 0.057278 0.930205 0.291091
O24   O     O_3   0.985188 0.978238 0.083576 -0.651351
H30   H     H_    0.078338 0.942768 0.069754 0.291201
H31   H     H_    0.313071 0.356871 0.416958 0.129971
H32   H     H_    0.686802 0.642972 0.583133 0.132415
H33   H     H_    0.166921 0.024168 0.267353 0.117525
H34   H     H_    0.862053 0.977933 0.735009 0.118874
O25   O     O_3   0.048955 0.159347 0.505215 -0.649416
H35   H     H_    0.167090 0.155222 0.482393 0.286110
O26   O     O_3   0.256943 0.866542 0.516230 -0.649176
H36   H     H_    0.318358 0.886054 0.551396 0.289345

loop_
_geom_bond_atom_site_label_1
_geom_bond_atom_site_label_2
_ccdc_geom_bond_type
C39   O25   S    
V4    O20   S    
C33   C35   A    
C62   C72   A    
C25   C29   A    
C69   C71   A    
C17   C18   A    
C62   H16   S    
O4    C2    A    
V1    O19   S    
C74   C76   A    
O22   H22   S    
C15   C17   A    
C68   C74   A    
C24   H6    S    
C67   C69   A    
O9    V1    S    
C34   C38   A    
O16   C6    A    
C1    C43   S    
C11   C13   A    
O3    C1    A    
C61   H15   S    
C50   C52   A    
C27   C29   A    
C21   H3    S    
C28   C30   A    
C61   C71   A    
C22   H4    S    
O13   V3    S    
C31   C33   A    
C21   C23   A    
C39   C41   A    
O7    C3    A    
C58   C60   A    
C32   C34   A    
C9    C11   A    
O5    C7    A    
C28   C36   A    
C36   C42   A    
C52   C56   A    
C8    C11   S    
O8    V2    S    
C38   C39   A    
C43   C47   A    
C60   H14   S    
C44   C50   A    
C69   C70   A    
C13   H31   S    
O3    V1    S    
O14   V4    S    
C14   H32   S    
C65   H25   S    
C19   C24   A    
C10   C12   A    
C20   C23   A    
C44   C48   A    
C30   H33   S    
C15   C21   A    
C45   C53   A    
C16   C18   A    
C67   C73   A    
C5    C25   S    
C2    O12   A    
C17   C19   A    
C18   C20   A    
O1    V3    S    
C45   C47   A    
O7    V1    S    
O11   V3    S    
C22   C24   A    
C58   H24   S    
C31   H10   S    
O17   V3    S    
C13   C15   A    
C33   C37   A    
C10   H2    S    
C51   C55   A    
C49   C51   A    
C37   C38   A    
C9    C19   A    
C27   H11   S    
C10   C20   A    
C73   C75   A    
O8    C4    A    
C55   C56   A    
C41   H7    S    
C4    C63   S    
C1    O11   A    
C29   H34   S    
C35   C41   A    
O15   V3    S    
C26   C30   A    
C45   O21   S    
C34   C36   A    
C47   H20   S    
C53   C59   A    
C16   C22   A    
C75   O23   S    
C66   H26   S    
O10   V2    S    
C62   C64   A    
C65   C67   A    
C64   C66   A    
C72   C75   A    
O21   H21   S    
C71   C76   A    
C42   H8    S    
C61   C63   A    
C52   C54   A    
O18   V4    S    
C46   C48   A    
O15   C5    A    
O24   H30   S    
C26   C32   A    
C32   H9    S    
O17   C7    A    
O12   V4    S    
O23   H29   S    
C46   O22   S    
C43   C49   A    
C73   H27   S    
V2    O20   S    
C40   O26   S    
O16   V4    S    
C27   C35   A    
O25   H35   S    
C59   H13   S    
C54   C60   A    
C66   C68   A    
O5    V1    S    
C7    C12   S    
C6    C26   S    
O6    V2    S    
O10   C6    A    
O18   C8    A    
C46   C54   A    
C23   H5    S    
O2    V4    S    
C37   C40   A    
C12   C14   A    
V3    O19   S    
O26   H36   S    
C55   C58   A    
C14   C16   A    
C57   C59   A    
C68   C70   A    
C48   H19   S    
C25   C31   A    
O9    C5    A    
C56   C57   A    
O13   V1    S    
C76   O24   S    
C70   C72   A    
C50   H17   S    
O14   V2    S    
C49   H18   S    
O2    C4    A    
C57   H23   S    
C28   H12   S    
O4    V2    S    
O6    C8    A    
O1    C3    A    
C63   C65   A    
C2    C44   S    
C51   C53   A    
C40   C42   A    
C74   H28   S    
C3    C64   S    
C9    H1    S    
