data_mof_unit_47316.cif
_audit_creation_date              2012-12-10T16:50:14-0500
_audit_creation_method            fapswitch 2.2
_symmetry_space_group_name_H-M    P1
_symmetry_Int_Tables_number       1
_space_group_crystal_system       triclinic
_cell_length_a                    23.49022
_cell_length_b                    8.760742
_cell_length_c                    7.609905
_cell_angle_alpha                 103.716478
_cell_angle_beta                  95.975415
_cell_angle_gamma                 96.217049
_cell_volume                      1498.72748771

loop_
_atom_site_label
_atom_site_type_symbol
_atom_type_description
_atom_site_fract_x
_atom_site_fract_y
_atom_site_fract_z
_atom_type_partial_charge
C1    C     C_R   0.497972 0.200167 0.453026 0.862816
C2    C     C_R   0.502037 0.799838 0.546970 0.863664
C3    C     C_R   0.235361 0.534592 0.358984 -0.129129
C4    C     C_R   0.764281 0.467487 0.646921 -0.085012
C5    C     C_R   0.294332 0.531186 0.354678 -0.149793
C6    C     C_R   0.705287 0.470799 0.648827 -0.114711
C7    C     C_R   0.328458 0.497729 0.499423 -0.042694
C8    C     C_R   0.671543 0.501344 0.501449 -0.056827
C9    C     C_R   0.302493 0.464630 0.646850 -0.246299
C10   C     C_R   0.697927 0.530935 0.353182 -0.250009
C11   C     C_R   0.243016 0.464346 0.651266 0.026640
C12   C     C_R   0.757631 0.531184 0.350954 0.021391
C13   C     C_R   0.209317 0.500939 0.505428 0.281587
C14   C     C_R   0.790858 0.498247 0.500261 0.272801
C15   C     C_2   0.489072 0.031048 0.431409 -0.261007
C16   C     C_2   0.510956 0.968957 0.568558 -0.261251
C17   C     C_R   0.391132 0.498940 0.499268 0.851933
C18   C     C_R   0.608866 0.500901 0.500777 0.853272
C19   C     C_R   0.887619 0.640858 0.550731 0.580304
C20   C     C_R   0.112625 0.358383 0.459175 0.580827
C21   C     C_R   0.873574 0.357165 0.468134 0.596775
C22   C     C_R   0.126708 0.642056 0.542287 0.595357
C23   C     C_R   0.933121 0.354479 0.467250 -0.014351
C24   C     C_R   0.067199 0.644762 0.544401 -0.015782
C25   C     C_R   0.970182 0.499482 0.507391 -0.011176
C26   C     C_R   0.030140 0.499773 0.504424 -0.011276
C27   C     C_R   0.947417 0.644184 0.550196 -0.010427
C28   C     C_R   0.052888 0.355074 0.461244 -0.005000
C29   C     C_R   0.956301 0.210900 0.425471 -0.149181
C30   C     C_R   0.044033 0.788348 0.586593 -0.147806
C31   C     C_R   0.015581 0.211192 0.422337 -0.168197
C32   C     C_R   0.984743 0.788062 0.589557 -0.170956
Cu1   Cu    Cu3+1 0.506340 0.517380 0.684380 1.056350
Cu2   Cu    Cu3+1 0.493660 0.482620 0.315620 1.056340
H1    H     H_    0.928733 0.097910 0.394542 0.201363
H2    H     H_    0.071601 0.901336 0.617512 0.201188
H3    H     H_    0.032039 0.098433 0.389529 0.186729
H4    H     H_    0.968280 0.900820 0.622228 0.187073
H5    H     H_    0.209497 0.561992 0.247112 0.178681
H6    H     H_    0.789711 0.441526 0.760401 0.157670
H7    H     H_    0.313255 0.556333 0.239124 0.177679
H8    H     H_    0.686025 0.447704 0.764732 0.176691
H9    H     H_    0.328679 0.439230 0.759397 0.195662
H10   H     H_    0.671924 0.553928 0.238641 0.192296
N1    N     N_R   0.852110 0.498837 0.507265 -0.455489
N2    N     N_R   0.148125 0.500381 0.501620 -0.457202
N3    N     N_2   0.484110 0.456420 0.038520 -0.230129
N4    N     N_2   0.515890 0.543580 0.961480 -0.229927
O1    O     O_R   0.504120 0.286130 0.619770 -0.553750
O2    O     O_R   0.495880 0.713870 0.380230 -0.553709
O3    O     O_R   0.493410 0.256770 0.308360 -0.532373
O4    O     O_R   0.506590 0.743230 0.691640 -0.531883
O5    O     O_R   0.423230 0.514630 0.655730 -0.566508
O6    O     O_R   0.576770 0.485370 0.344270 -0.565439
O7    O     O_R   0.412530 0.485280 0.344320 -0.566591
O8    O     O_R   0.587470 0.514720 0.655680 -0.567542
O9    O     O_2   0.864965 0.778035 0.592583 -0.511308
O10   O     O_2   0.135210 0.221168 0.416214 -0.517654
O11   O     O_2   0.837269 0.219626 0.428073 -0.497528
O12   O     O_2   0.163006 0.779599 0.582202 -0.496808
C33   C     C_2   0.217635 0.423807 0.808134 0.855587
O13   O     O_2   0.172807 0.471136 0.852143 -0.598453
O14   O     O_R   0.245442 0.330686 0.906575 -0.749079
H11   H     H_    0.223211 0.305863 0.005927 0.350371
C34   C     C_2   0.783943 0.566520 0.192668 0.866837
O15   O     O_2   0.758596 0.636530 0.094184 -0.588530
O16   O     O_R   0.837371 0.519979 0.154649 -0.761847
H12   H     H_    0.851341 0.555975 0.047500 0.332020
C35   C     C_2   0.445987 0.939191 0.273561 0.909855
O17   O     O_2   0.452465 0.947901 0.118678 -0.522393
O18   O     O_R   0.397586 0.845677 0.303324 -0.767425
H13   H     H_    0.371457 0.790389 0.185747 0.327898
C36   C     C_2   0.554077 0.060814 0.726315 0.910606
O19   O     O_2   0.547651 0.052092 0.881228 -0.522271
O20   O     O_R   0.602452 0.154352 0.696419 -0.768472
H14   H     H_    0.628615 0.209651 0.813924 0.327642
C37   C     C_2   0.437492 0.331559 0.950879 1.078479
O21   O     O_2   0.411392 0.264074 0.047553 -0.550659
O22   O     O_R   0.419919 0.280537 0.764836 -0.762707
H15   H     H_    0.386772 0.189943 0.729603 0.324549
C38   C     C_2   0.562507 0.668445 0.049133 1.077168
O23   O     O_2   0.588539 0.736121 0.952486 -0.550781
O24   O     O_R   0.580183 0.719177 0.235147 -0.762078
H16   H     H_    0.613413 0.809537 0.270359 0.323320

loop_
_geom_bond_atom_site_label_1
_geom_bond_atom_site_label_2
_ccdc_geom_bond_type
C36   O19   D    
C38   O23   D    
C37   O21   D    
C19   O9    S    
Cu1   O4    S    
Cu2   O3    S    
C23   C29   A    
C24   C26   A    
C21   O11   S    
C22   O12   S    
C13   N2    S    
Cu1   O1    S    
C15   C16   D    
N4    C38   S    
C33   O14   S    
C35   O18   S    
C2    O2    A    
N3    N4    D    
C34   O16   S    
C1    C15   S    
C32   H4    S    
C2    C16   S    
C17   O7    A    
C3    C13   A    
C18   O8    A    
Cu1   O8    S    
C3    H5    S    
Cu2   O7    S    
C36   O20   S    
C33   O13   D    
C10   C12   A    
C38   O24   S    
C14   N1    S    
C21   N1    A    
C37   O22   S    
Cu1   O5    S    
C15   C35   S    
Cu2   O2    S    
C9    H9    S    
C10   H10   S    
O16   H12   S    
C4    H6    S    
O22   H15   S    
C4    C6    A    
C5    C7    A    
C6    C8    A    
C20   C28   A    
C11   C33   S    
C25   C26   A    
C8    C18   S    
C16   C36   S    
O20   H14   S    
C1    O3    A    
O24   H16   S    
Cu1   Cu2   S    
C9    C11   A    
C2    O4    A    
C22   N2    A    
C12   C14   A    
Cu2   O6    S    
C21   C23   A    
C22   C24   A    
N3    C37   S    
C20   O10   S    
C17   O5    A    
C19   C27   A    
C7    C9    A    
C5    H7    S    
C27   C32   A    
C28   C31   A    
C3    C5    A    
C7    C17   S    
C19   N1    A    
C25   C27   A    
C12   C34   S    
C29   H1    S    
C26   C28   A    
C30   H2    S    
O18   H13   S    
C29   C31   A    
C30   C32   A    
C11   C13   A    
C23   C25   A    
C4    C14   A    
C35   O17   D    
C24   C30   A    
C18   O6    A    
O14   H11   S    
C31   H3    S    
C8    C10   A    
C34   O15   D    
C6    H8    S    
Cu1   N4    S    
Cu2   N3    S    
C1    O1    A    
C20   N2    A    
