data_mof_unit_27793.cif
_audit_creation_date              2012-12-10T19:12:17-0500
_audit_creation_method            fapswitch 2.2
_symmetry_space_group_name_H-M    P1
_symmetry_Int_Tables_number       1
_space_group_crystal_system       triclinic
_cell_length_a                    7.790956
_cell_length_b                    9.097378
_cell_length_c                    17.091553
_cell_angle_alpha                 89.587273
_cell_angle_beta                  94.159361
_cell_angle_gamma                 90.011698
_cell_volume                      1208.18061284

loop_
_atom_site_label
_atom_site_type_symbol
_atom_type_description
_atom_site_fract_x
_atom_site_fract_y
_atom_site_fract_z
_atom_type_partial_charge
C1    C     C_R   0.499972 0.220041 0.500006 0.846163
C2    C     C_R   0.500028 0.779959 0.499993 0.846162
C3    C     C_R   0.521574 0.498517 0.651239 0.819549
C4    C     C_R   0.478426 0.501483 0.348761 0.819548
C5    C     C_R   0.534922 0.498855 0.736981 -0.081763
C6    C     C_R   0.465078 0.501145 0.263019 -0.081760
C7    C     C_R   0.400909 0.557174 0.777276 -0.238815
C8    C     C_R   0.599090 0.442826 0.222724 -0.238818
C9    C     C_R   0.410976 0.555348 0.858693 -0.249784
C10   C     C_R   0.589023 0.444653 0.141307 -0.249788
C11   C     C_R   0.554595 0.492102 0.901422 0.305274
C12   C     C_R   0.445405 0.507899 0.098578 0.305277
C13   C     C_R   0.691796 0.437723 0.861274 0.484636
C14   C     C_R   0.308202 0.562277 0.138726 0.484639
C15   C     C_R   0.680410 0.439795 0.778953 -0.304269
C16   C     C_R   0.319590 0.560205 0.221047 -0.304273
C17   C     C_1   0.499981 0.065369 0.500002 -0.171711
C18   C     C_1   0.500019 0.934630 0.499998 -0.171711
Cu1   Cu    Cu3+1 0.669080 0.500010 0.500000 1.001666
Cu2   Cu    Cu3+1 0.330920 0.499990 0.500000 1.001666
H1    H     H_    0.711535 0.395122 0.254220 0.172136
H2    H     H_    0.288465 0.604878 0.745779 0.172135
H3    H     H_    0.694188 0.397141 0.112082 0.181627
H4    H     H_    0.305812 0.602860 0.887918 0.181626
H5    H     H_    0.782463 0.391358 0.747885 0.171128
H6    H     H_    0.217538 0.608643 0.252115 0.171125
N1    N     N_1   0.076820 0.499970 0.500010 -0.050472
N2    N     N_1   0.923180 0.500030 0.499990 -0.050472
N3    N     N_2   0.566759 0.481792 0.984521 -0.227698
N4    N     N_2   0.433240 0.518209 0.015479 -0.227696
O1    O     O_R   0.642760 0.288400 0.500000 -0.578268
O2    O     O_R   0.357240 0.711600 0.500000 -0.578268
O3    O     O_R   0.357190 0.288380 0.500000 -0.575205
O4    O     O_R   0.642810 0.711620 0.500000 -0.575205
O5    O     O_R   0.658410 0.498660 0.613920 -0.586438
O6    O     O_R   0.341590 0.501340 0.386080 -0.586439
O7    O     O_R   0.372840 0.498650 0.613930 -0.584839
O8    O     O_R   0.627160 0.501350 0.386070 -0.584840
O9    O     O_3   0.828631 0.369931 0.903348 -0.571897
C19   C     C_3   0.979912 0.451743 0.894765 -0.307477
H7    H     H_    0.962797 0.569673 0.909542 0.167013
H8    H     H_    0.023953 0.441096 0.834661 0.164713
H9    H     H_    0.083349 0.406923 0.936207 0.214742
O10   O     O_3   0.171369 0.630069 0.096651 -0.571898
C20   C     C_3   0.020081 0.548271 0.105244 -0.307486
H10   H     H_    0.976041 0.558944 0.165346 0.164720
H11   H     H_    0.037186 0.430333 0.090478 0.167008
H12   H     H_    0.916647 0.593082 0.063797 0.214737

loop_
_geom_bond_atom_site_label_1
_geom_bond_atom_site_label_2
_ccdc_geom_bond_type
C4    O6    A    
C9    H4    S    
N3    N4    D    
Cu1   N2    S    
Cu1   O8    S    
C10   H3    S    
C2    C18   S    
C7    H2    S    
C11   C13   A    
C1    C17   S    
Cu1   Cu2   S    
C3    O5    A    
Cu1   O1    S    
C2    O4    A    
C19   H8    S    
C17   C18   T    
C1    O3    A    
Cu1   O5    S    
C20   H10   S    
Cu2   O7    S    
C9    C11   A    
C11   N3    S    
C10   C12   A    
Cu2   O3    S    
C14   O10   S    
C19   H7    S    
Cu2   N1    S    
C12   C14   A    
C8    H1    S    
C5    C7    A    
C13   C15   A    
C16   H6    S    
C8    C10   A    
C13   O9    S    
C14   C16   A    
C5    C15   A    
C4    C6    S    
C15   H5    S    
O9    C19   S    
C6    C16   A    
Cu2   O6    S    
C1    O1    A    
O10   C20   S    
C3    O7    A    
C2    O2    A    
Cu2   O2    S    
C20   H11   S    
N1    N2    T    
C7    C9    A    
C6    C8    A    
C20   H12   S    
C12   N4    S    
C19   H9    S    
C4    O8    A    
C3    C5    S    
Cu1   O4    S    
