data_mof_unit_52520.cif
_audit_creation_date              2013-03-05T16:00:26-0500
_audit_creation_method            fapswitch 2.2
_symmetry_space_group_name_H-M    P1
_symmetry_Int_Tables_number       1
_space_group_crystal_system       triclinic
_cell_length_a                    6.915994
_cell_length_b                    28.887559
_cell_length_c                    31.979536
_cell_angle_alpha                 101.104823
_cell_angle_beta                  89.515885
_cell_angle_gamma                 90.269639
_cell_volume                      6269.18880178

loop_
_atom_site_label
_atom_site_type_symbol
_atom_site_description
_atom_site_fract_x
_atom_site_fract_y
_atom_site_fract_z
_atom_type_partial_charge
O1    O     O_R   0.494350 0.453160 0.452490 -0.593166
O2    O     O_R   0.820990 0.455850 0.538220 -0.598701
O3    O     O_R   0.994300 0.546840 0.547510 -0.598939
C1    C     C_R   0.651763 0.445796 0.551816 0.967187
O4    O     O_R   0.823860 0.447580 0.452250 -0.596523
O5    O     O_R   0.997190 0.538510 0.460920 -0.594824
C2    C     C_R   0.655161 0.434593 0.436373 0.941621
O6    O     O_R   0.491450 0.461490 0.539080 -0.593636
O7    O     O_3   0.661790 0.529840 0.502950 -0.270999
V1    V     V_3+5 0.935470 0.494460 0.499450 1.155453
O8    O     O_R   0.327090 0.544150 0.461780 -0.556616
C3    C     C_R   0.158833 0.555228 0.449013 0.995282
O9    O     O_R   0.324210 0.552420 0.547750 -0.607403
C4    C     C_R   0.154472 0.565360 0.563513 0.943344
V2    V     V_3+5 0.435840 0.505540 0.500550 1.167897
O10   O     O_3   0.159650 0.470160 0.497050 -0.273133
C5    C     C_R   0.964803 0.611007 0.624884 -0.323758
H1    H     H_    0.839645 0.589300 0.614395 0.153596
C6    C     C_R   0.947931 0.645841 0.662042 0.567027
C7    C     C_R   0.106457 0.676032 0.675861 -0.064799
C8    C     C_R   0.280904 0.668787 0.652317 -0.170610
H2    H     H_    0.405986 0.690806 0.661969 0.190282
C9    C     C_R   0.298199 0.632755 0.616252 -0.153942
H3    H     H_    0.435119 0.628135 0.599289 0.149562
C10   C     C_R   0.139938 0.603581 0.601958 -0.178443
N1    N     N_R   0.246831 0.743737 0.726318 -0.068673
N2    N     N_R   0.236895 0.778023 0.760754 -0.067582
C11   C     C_R   0.073805 0.784722 0.785192 0.132510
N3    N     N_R   0.920925 0.755525 0.773569 -0.074270
N4    N     N_R   0.930937 0.721304 0.739058 -0.033435
C12   C     C_R   0.093978 0.714519 0.714577 0.162363
C13   C     C_R   0.905366 0.827334 0.851918 -0.117980
H4    H     H_    0.786143 0.802552 0.846189 0.128925
C14   C     C_R   0.899401 0.863274 0.888281 -0.112498
H5    H     H_    0.776780 0.864653 0.909705 0.176189
C15   C     C_R   0.050729 0.896362 0.897476 -0.315608
C16   C     C_R   0.211603 0.892079 0.868898 0.384762
C17   C     C_R   0.215342 0.855920 0.832608 -0.220501
H6    H     H_    0.339438 0.853460 0.811402 0.165343
C18   C     C_R   0.063876 0.823138 0.823670 0.065121
C19   C     C_R   0.142266 0.658023 0.283712 0.612211
N5    N     N_R   0.121383 0.677309 0.326072 -0.170630
C20   C     C_R   0.087647 0.724475 0.339589 0.633211
C21   C     C_R   0.085726 0.755415 0.310167 -0.209702
C22   C     C_R   0.101427 0.735735 0.266071 -0.032139
C23   C     C_R   0.125142 0.686374 0.252349 -0.212380
C24   C     C_R   0.065132 0.805125 0.323059 0.378701
C25   C     C_R   0.052728 0.833628 0.292375 -0.188130
C26   C     C_R   0.067528 0.814481 0.248783 -0.096295
C27   C     C_R   0.093412 0.765552 0.235564 0.007504
C28   C     C_R   0.111285 0.746514 0.191772 -0.101775
C29   C     C_R   0.133283 0.697716 0.178488 -0.187987
C30   C     C_R   0.136435 0.667496 0.207877 0.378699
C31   C     C_R   0.059559 0.843446 0.217996 0.505015
N6    N     N_R   0.077062 0.824327 0.175433 -0.180161
C32   C     C_R   0.103013 0.776739 0.162013 0.509760
O11   O     O_2   0.184516 0.611779 0.272368 -0.475302
O12   O     O_2   0.053377 0.740923 0.381353 -0.460270
H7    H     H_    0.036944 0.871368 0.303058 0.209569
O13   O     O_2   0.036062 0.890427 0.230588 -0.545962
O14   O     O_2   0.118383 0.758560 0.119976 -0.531609
H8    H     H_    0.142541 0.682434 0.144820 0.209536
C33   C     C_R   0.225618 0.861598 0.119371 -0.054356
H9    H     H_    0.361022 0.844226 0.123124 0.139692
C34   C     C_R   0.213164 0.891079 0.089484 -0.211100
H10   H     H_    0.339926 0.895360 0.070471 0.202243
C35   C     C_R   0.039726 0.914580 0.084022 -0.306982
C36   C     C_R   0.878081 0.908126 0.109933 0.526683
C37   C     C_R   0.891278 0.877677 0.139191 -0.224425
H11   H     H_    0.765841 0.872308 0.158234 0.145172
C38   C     C_R   0.064713 0.854618 0.144414 0.157945
C39   C     C_R   0.303111 0.647833 0.382674 0.261140
C40   C     C_R   0.306713 0.620113 0.414859 0.381771
C41   C     C_R   0.150981 0.588914 0.418990 -0.353552
C42   C     C_R   0.986840 0.589423 0.393494 -0.182572
H12   H     H_    0.864330 0.566719 0.396376 0.181771
C43   C     C_R   0.979162 0.618427 0.363352 -0.023529
H13   H     H_    0.850635 0.618174 0.344205 0.179206
C44   C     C_R   0.136021 0.647280 0.357276 0.003815
C45   C     C_R   0.600158 0.227660 0.841110 0.483216
N7    N     N_R   0.597563 0.179586 0.827772 -0.167818
C46   C     C_R   0.601418 0.159811 0.785106 0.514887
C47   C     C_R   0.597031 0.188480 0.753853 -0.264585
C48   C     C_R   0.603960 0.237958 0.767387 -0.047150
C49   C     C_R   0.606716 0.257708 0.811275 -0.018533
C50   C     C_R   0.584673 0.169415 0.709562 0.611710
C51   C     C_R   0.594524 0.199326 0.679925 -0.230477
C52   C     C_R   0.604349 0.248453 0.693189 -0.141172
C53   C     C_R   0.607596 0.267885 0.737028 0.003959
C54   C     C_R   0.615178 0.317265 0.750565 -0.034238
C55   C     C_R   0.617574 0.336429 0.794409 -0.113579
C56   C     C_R   0.612984 0.307042 0.824369 -0.117262
C57   C     C_R   0.609913 0.278762 0.663546 0.632770
N8    N     N_R   0.620653 0.326713 0.677166 -0.172197
C58   C     C_R   0.621583 0.346258 0.719802 0.530819
O15   O     O_2   0.593545 0.246467 0.883122 -0.562289
O16   O     O_2   0.612190 0.112507 0.773070 -0.495159
H14   H     H_    0.591274 0.183690 0.646307 0.205796
O17   O     O_2   0.604801 0.260460 0.621438 -0.506847
O18   O     O_2   0.630930 0.393541 0.732404 -0.553813
H15   H     H_    0.623132 0.374234 0.805755 0.174874
H16   H     H_    0.614790 0.323169 0.857871 0.176532
C59   C     C_R   0.471096 0.383531 0.639142 -0.027942
H17   H     H_    0.340672 0.382148 0.657810 0.170528
C60   C     C_R   0.475241 0.411639 0.608077 -0.156483
H18   H     H_    0.347801 0.431759 0.603662 0.137450
C61   C     C_R   0.642958 0.414341 0.583578 -0.180852
C62   C     C_R   0.805668 0.387821 0.590596 -0.286401
H19   H     H_    0.936516 0.389730 0.572146 0.181193
C63   C     C_R   0.803081 0.359156 0.621573 0.400338
C64   C     C_R   0.633017 0.356983 0.646124 0.060660
C65   C     C_R   0.425829 0.117527 0.856713 -0.175422
H20   H     H_    0.317992 0.116678 0.832186 0.164310
C66   C     C_R   0.407534 0.086763 0.885501 0.343983
C67   C     C_R   0.547439 0.087767 0.918043 -0.510340
C68   C     C_R   0.699596 0.121436 0.921300 0.598057
C69   C     C_R   0.717969 0.150652 0.891084 -0.178175
H21   H     H_    0.839252 0.174801 0.892979 0.163998
C70   C     C_R   0.580921 0.149166 0.858790 0.099259
C71   C     C_R   0.464146 0.381984 0.379229 -0.139816
H22   H     H_    0.331760 0.398693 0.392616 0.130603
C72   C     C_R   0.452022 0.346359 0.342811 -0.123120
H23   H     H_    0.310793 0.336774 0.329454 0.115029
C73   C     C_R   0.619290 0.323535 0.323918 0.124498
C74   C     C_R   0.799334 0.337384 0.342646 -0.118944
H24   H     H_    0.931364 0.320686 0.329054 0.118149
C75   C     C_R   0.811556 0.373169 0.379122 -0.145083
H25   H     H_    0.952557 0.382965 0.392515 0.128289
C76   C     C_R   0.643993 0.396016 0.397928 -0.136447
N9    N     N_R   0.764723 0.262209 0.267261 -0.068877
N10   N     N_R   0.751098 0.228460 0.232447 -0.064880
C77   C     C_R   0.577452 0.216671 0.213553 0.157980
N11   N     N_R   0.418066 0.240160 0.231376 -0.025734
N12   N     N_R   0.431463 0.273851 0.266190 -0.072581
C78   C     C_R   0.605086 0.285721 0.284952 0.094653
C79   C     C_R   0.390133 0.169690 0.150696 0.574174
C80   C     C_R   0.381537 0.132292 0.115223 -0.335984
H26   H     H_    0.246185 0.125344 0.098322 0.153346
C81   C     C_R   0.545107 0.104774 0.101265 -0.163887
C82   C     C_R   0.717870 0.114737 0.124098 -0.171168
H27   H     H_    0.846834 0.094195 0.114409 0.139902
C83   C     C_R   0.726174 0.150727 0.160279 -0.192823
H28   H     H_    0.861461 0.156520 0.177297 0.193053
C84   C     C_R   0.563176 0.178634 0.174477 -0.062034
O19   O     O_R   0.699050 0.038480 0.960880 -0.541277
O20   O     O_R   0.366680 0.052470 0.047720 -0.611948
O21   O     O_R   0.193410 0.961530 0.039110 -0.610758
C85   C     C_R   0.535398 0.065753 0.063290 0.905504
O22   O     O_R   0.369510 0.044100 0.961740 -0.559185
O23   O     O_R   0.196260 0.953110 0.952520 -0.554705
C86   C     C_R   0.538275 0.054121 0.948074 1.063335
O24   O     O_R   0.696210 0.046900 0.047470 -0.617103
O25   O     O_3   0.528780 0.970170 0.997070 -0.243432
V3    V     V_3+5 0.255080 0.005530 0.000540 1.236879
O26   O     O_R   0.866350 0.947520 0.952280 -0.561696
C87   C     C_R   0.036515 0.934893 0.936110 1.015522
O27   O     O_R   0.863520 0.955880 0.038260 -0.563913
C88   C     C_R   0.031489 0.946096 0.052141 0.941353
V4    V     V_3+5 0.754720 0.994440 0.999470 1.254007
O28   O     O_3   0.030880 0.029830 0.002930 -0.262879
N13   N     N_R   0.141797 0.617698 0.191467 0.269066
O29   O     O_R   0.269532 0.600590 0.162570 -0.333714
O30   O     O_R   0.995238 0.591544 0.198079 -0.302142
O31   O     O_3   0.703767 0.930086 0.106174 -0.633501
C89   C     C_3   0.697033 0.972656 0.136522 0.262315
H29   H     H_    0.791817 0.999569 0.126021 0.085893
H30   H     H_    0.742710 0.967867 0.168804 0.113312
C90   C     C_3   0.490543 0.990969 0.140387 -0.862485
H31   H     H_    0.396188 0.966528 0.154277 0.257892
H32   H     H_    0.486073 0.026364 0.161404 0.218092
H33   H     H_    0.434860 0.993702 0.108543 0.256461
N14   N     N_R   0.469569 0.675529 0.375168 0.249128
O32   O     O_R   0.516836 0.679762 0.336611 -0.411244
O33   O     O_R   0.580048 0.695097 0.406388 -0.333000
O34   O     O_3   0.468136 0.621703 0.440400 -0.599140
C91   C     C_3   0.428881 0.651754 0.479976 0.369085
H34   H     H_    0.315091 0.636460 0.498106 0.035605
H35   H     H_    0.380884 0.687282 0.475579 0.126069
C92   C     C_3   0.612053 0.658006 0.506519 -0.798635
H36   H     H_    0.728409 0.673638 0.489444 0.271491
H37   H     H_    0.583112 0.681779 0.537576 0.196967
H38   H     H_    0.661242 0.623412 0.512570 0.250821
O35   O     O_3   0.771973 0.651796 0.683217 -0.642546
C93   C     C_3   0.751587 0.616523 0.708028 0.246430
H39   H     H_    0.875714 0.617262 0.730194 0.097188
H40   H     H_    0.740926 0.580877 0.687373 0.096290
C94   C     C_3   0.567399 0.625320 0.734669 -0.848254
H41   H     H_    0.439280 0.621559 0.713627 0.247944
H42   H     H_    0.555474 0.599221 0.755920 0.218168
H43   H     H_    0.569754 0.661401 0.754491 0.261830
O36   O     O_3   0.567730 0.121394 0.694300 -0.600103
C95   C     C_3   0.370503 0.107883 0.694795 0.341933
H44   H     H_    0.285892 0.128536 0.721939 0.076077
H45   H     H_    0.364983 0.070574 0.698848 0.176648
C96   C     C_3   0.273184 0.110685 0.652711 -0.908319
H46   H     H_    0.359920 0.091299 0.625584 0.284066
H47   H     H_    0.126750 0.094616 0.651922 0.254143
H48   H     H_    0.257636 0.148005 0.649351 0.254482
N15   N     N_R   0.973548 0.332893 0.627767 0.229501
O37   O     O_R   0.013511 0.323702 0.665007 -0.437145
O38   O     O_R   0.097420 0.320833 0.596760 -0.375888
N16   N     N_R   0.249971 0.053716 0.879728 0.245607
O39   O     O_R   0.110028 0.058431 0.907597 -0.348256
O40   O     O_R   0.218333 0.028866 0.841939 -0.326768
O41   O     O_3   0.838229 0.124671 0.952715 -0.589063
C97   C     C_3   0.764752 0.150446 0.991760 0.269780
H49   H     H_    0.828086 0.135379 0.017995 0.130878
H50   H     H_    0.604464 0.148126 0.995364 0.032715
C98   C     C_3   0.826307 0.202001 0.997703 -0.914148
H51   H     H_    0.758189 0.218893 0.973153 0.273507
H52   H     H_    0.780026 0.221080 0.029723 0.221172
H53   H     H_    0.986060 0.204557 0.995007 0.266330
O42   O     O_3   0.225847 0.196117 0.162816 -0.641258
C99   C     C_3   0.206893 0.229482 0.136117 0.229561
H54   H     H_    0.181977 0.211684 0.102469 0.095151
H55   H     H_    0.338249 0.252275 0.137660 0.100244
C100  C     C_3   0.034341 0.261046 0.150849 -0.827643
H56   H     H_    0.052311 0.278605 0.184686 0.264911
H57   H     H_    0.022563 0.288461 0.130979 0.216361
H58   H     H_    0.899270 0.239818 0.147609 0.243582
N17   N     N_R   0.372264 0.924102 0.875437 0.230744
O43   O     O_R   0.493678 0.921611 0.905707 -0.410880
O44   O     O_R   0.428254 0.944497 0.844502 -0.336549
N18   N     N_R   0.066436 0.827993 0.367019 0.270608
O45   O     O_R   0.221190 0.826169 0.389507 -0.284034
O46   O     O_R   0.933465 0.858764 0.381540 -0.320151

loop_
_geom_bond_atom_site_label_1
_geom_bond_atom_site_label_2
_geom_bond_distance
_ccdc_geom_bond_type
C77   C84   1.500268 S    
C24   N18   1.433603 S    
C33   C34   1.400647 A    
C40   O34   1.384222 S    
O27   C88   1.298670 A    
C3    C41   1.494334 S    
C19   N5    1.368592 A    
C71   H22   1.082801 S    
C6    C7    1.417281 A    
C20   C21   1.417255 A    
N18   O45   1.301371 A    
C26   C27   1.406944 A    
C65   C66   1.401971 A    
C66   C67   1.423104 A    
C54   C58   1.409831 A    
C89   H29   1.113107 S    
C31   O13   1.349402 S    
O42   C99   1.412528 S    
C21   C22   1.418706 A    
C100  H58   1.109593 S    
C80   C81   1.405035 A    
C11   N3    1.358281 A    
C50   O36   1.383811 S    
C45   C49   1.408469 A    
N16   O40   1.300925 A    
C47   C48   1.412051 A    
C39   N14   1.443500 S    
O31   C89   1.412922 S    
C16   C17   1.404065 A    
C82   C83   1.400066 A    
C28   C32   1.411662 A    
C39   C44   1.416348 A    
C69   C70   1.402095 A    
O5    C3    1.298660 A    
N4    C12   1.360463 A    
C45   N7    1.372072 A    
C99   H55   1.115302 S    
C11   C18   1.491215 S    
C67   C68   1.420343 A    
N8    C64   1.445556 S    
C98   H53   1.110694 S    
C62   H19   1.083101 S    
C59   C64   1.403688 A    
C14   H5    1.081746 S    
C40   C41   1.422714 A    
C1    O6    1.297763 A    
C37   C38   1.401471 A    
O21   V3    1.977077 S    
C63   C64   1.416480 A    
C94   H43   1.110831 S    
C59   H17   1.082292 S    
C20   O12   1.347967 S    
O1    C2    1.296028 A    
C52   C57   1.409077 A    
O8    V2    1.975662 S    
N15   O37   1.301241 A    
C91   C92   1.521487 S    
O25   V3    2.147041 S    
O34   C91   1.415024 S    
N14   O33   1.300601 A    
C77   N11   1.359330 A    
C34   C35   1.409644 A    
C5    H1    1.083395 S    
C24   C25   1.400551 A    
C61   C62   1.407905 A    
C66   N16   1.434781 S    
O1    V2    1.978607 S    
C97   H49   1.110798 S    
C45   O15   1.349185 S    
O7    V1    2.147146 S    
C57   O17   1.349234 S    
C14   C15   1.408168 A    
C68   O41   1.384383 S    
C21   C24   1.423106 A    
C56   H16   1.083041 S    
C51   H14   1.083316 S    
C90   H32   1.110546 S    
C48   C53   1.418920 A    
O24   V4    1.978834 S    
N1    C12   1.359101 A    
O27   V4    1.975276 S    
O22   V3    1.978632 S    
O23   C87   1.292618 A    
O9    C4    1.301320 A    
O22   C86   1.293847 A    
N8    C58   1.371665 A    
C55   H15   1.083041 S    
C35   C36   1.418815 A    
C65   H20   1.083659 S    
N13   O30   1.301381 A    
C49   C56   1.406450 A    
C71   C72   1.400596 A    
C27   C28   1.407156 A    
O20   C85   1.299508 A    
C43   C44   1.399884 A    
C17   H6    1.083381 S    
C1    C61   1.488302 S    
C81   C85   1.491057 S    
C94   H42   1.110373 S    
C41   C42   1.405024 A    
C33   H9    1.082915 S    
O26   V4    1.978081 S    
C28   C29   1.400347 A    
C95   C96   1.525987 S    
C90   H31   1.110501 S    
C82   H27   1.083108 S    
N16   O39   1.299808 A    
C6    O35   1.382842 S    
C55   C56   1.397207 A    
O4    C2    1.300888 A    
C58   O18   1.349015 S    
C36   C37   1.405945 A    
C100  H56   1.110799 S    
C43   H13   1.082835 S    
C29   H8    1.083614 S    
N7    C46   1.374064 A    
C71   C76   1.408333 A    
C95   H45   1.110490 S    
O25   V4    1.705912 S    
O2    C1    1.296157 A    
C42   H12   1.083172 S    
C75   C76   1.408108 A    
O35   C93   1.412768 S    
V3    O28   1.700126 S    
N3    N4    1.333857 A    
N17   O43   1.299422 A    
C60   C61   1.404530 A    
V4    O28   2.155648 S    
O20   V3    1.983077 S    
C19   C23   1.417774 A    
C7    C8    1.411591 A    
N6    C32   1.371133 A    
C98   H51   1.110158 S    
N1    N2    1.333255 A    
C59   C60   1.398942 A    
C57   N8    1.371539 A    
C29   C30   1.400903 A    
C48   C49   1.409837 A    
C42   C43   1.395114 A    
O19   C86   1.300742 A    
O3    C4    1.293738 A    
C50   C51   1.401169 A    
C25   C26   1.400320 A    
N9    C78   1.359699 A    
C33   C38   1.401929 A    
C34   H10   1.082834 S    
O6    V2    1.975353 S    
O9    V2    1.977662 S    
N11   N12   1.333735 A    
C46   O16   1.348633 S    
C83   C84   1.409172 A    
C100  H57   1.110372 S    
N5    C20   1.368264 A    
C72   C73   1.407100 A    
N10   C77   1.361055 A    
O2    V1    1.978858 S    
N2    C11   1.359898 A    
C13   C18   1.405296 A    
N14   O32   1.301183 A    
C15   C87   1.498084 S    
C25   H7    1.083629 S    
N15   O38   1.301523 A    
C79   O42   1.382278 S    
C60   H18   1.083100 S    
O36   C95   1.417801 S    
O41   C97   1.416506 S    
C31   N6    1.371370 A    
C91   H34   1.112814 S    
C26   C31   1.411091 A    
C73   C78   1.494111 S    
C63   N15   1.440480 S    
C32   O14   1.349228 S    
C85   O24   1.295980 A    
C39   C40   1.421021 A    
C99   C100  1.520778 S    
N18   O46   1.301160 A    
O5    V1    1.977292 S    
C65   C70   1.399586 A    
C81   C82   1.405054 A    
C62   C63   1.408161 A    
N12   C78   1.359590 A    
C92   H36   1.110776 S    
C89   C90   1.521026 S    
C15   C16   1.424420 A    
C80   H26   1.083376 S    
N7    C70   1.449924 S    
C93   C94   1.521322 S    
N17   O44   1.300624 A    
C5    C10   1.406236 A    
C13   H4    1.082792 S    
C92   H38   1.109329 S    
C8    C9    1.401544 A    
N9    N10   1.334792 A    
C53   C54   1.409526 A    
C36   O31   1.381763 S    
C16   N17   1.433120 S    
O4    V1    1.982581 S    
C79   C84   1.419207 A    
O3    V1    1.981470 S    
V1    O10   1.699988 S    
C69   H21   1.083039 S    
C95   H44   1.116720 S    
C17   C18   1.402582 A    
C97   C98   1.523731 S    
C30   N13   1.433722 S    
C54   C55   1.404974 A    
C74   H24   1.082630 S    
N13   O29   1.301164 A    
C22   C27   1.421888 A    
O19   V4    1.976652 S    
V2    O10   2.155657 S    
C99   H54   1.114051 S    
C23   C30   1.423322 A    
C91   H35   1.114847 S    
C5    C6    1.405845 A    
C93   H40   1.113635 S    
C68   C69   1.404734 A    
C35   C88   1.493535 S    
C97   H50   1.116595 S    
C9    C10   1.403075 A    
C4    C10   1.488876 S    
O7    V2    1.706323 S    
C37   H11   1.083370 S    
C2    C76   1.494130 S    
C9    H3    1.083232 S    
C19   O11   1.347877 S    
C96   H46   1.110517 S    
C96   H48   1.109643 S    
C22   C23   1.418692 A    
N5    C44   1.447224 S    
C47   C50   1.420548 A    
C52   C53   1.406523 A    
C94   H41   1.109387 S    
C51   C52   1.402251 A    
C89   H30   1.116091 S    
C46   C47   1.416092 A    
O23   V3    1.981355 S    
C67   C86   1.492970 S    
O26   C87   1.306359 A    
C74   C75   1.404543 A    
C98   H52   1.110609 S    
C83   H28   1.082431 S    
C79   C80   1.409264 A    
C93   H39   1.115414 S    
C90   H33   1.108804 S    
C92   H37   1.110558 S    
C72   H23   1.082631 S    
C8    H2    1.082557 S    
O21   C88   1.298256 A    
N6    C38   1.446895 S    
C75   H25   1.082706 S    
O8    C3    1.298101 A    
C13   C14   1.402254 A    
C73   C74   1.408853 A    
C96   H47   1.110511 S    
C7    C12   1.498444 S    
