data_mof_unit_13948.cif
_audit_creation_date              2012-12-10T17:10:26-0500
_audit_creation_method            fapswitch 2.2
_symmetry_space_group_name_H-M    P1
_symmetry_Int_Tables_number       1
_space_group_crystal_system       triclinic
_cell_length_a                    10.774592
_cell_length_b                    13.04639
_cell_length_c                    11.704708
_cell_angle_alpha                 99.15037
_cell_angle_beta                  93.937803
_cell_angle_gamma                 90.424266
_cell_volume                      1620.2721194

loop_
_atom_site_label
_atom_site_type_symbol
_atom_type_description
_atom_site_fract_x
_atom_site_fract_y
_atom_site_fract_z
_atom_type_partial_charge
C1    C     C_R   0.498407 0.299711 0.479844 0.805268
C2    C     C_R   0.501597 0.700289 0.520156 0.805291
C3    C     C_R   0.510237 0.812499 0.528515 -0.077424
C4    C     C_R   0.489772 0.187500 0.471484 -0.077439
C5    C     C_R   0.388231 0.027208 0.380573 -0.227235
C6    C     C_R   0.611784 0.972790 0.619426 -0.227286
C7    C     C_R   0.406090 0.132960 0.386906 -0.274704
C8    C     C_R   0.593929 0.867036 0.613087 -0.274714
C9    C     C_R   0.557641 0.135889 0.551868 0.176363
C10   C     C_R   0.442353 0.864113 0.448146 0.176366
C11   C     C_R   0.543095 0.027414 0.543172 0.084592
C12   C     C_R   0.456909 0.972586 0.456836 0.084600
C13   C     C_R   0.382149 0.403718 0.021649 -0.373261
C14   C     C_R   0.617849 0.596284 0.978352 -0.373256
C15   C     C_R   0.391328 0.413308 0.143921 0.478037
C16   C     C_R   0.608669 0.586694 0.856079 0.478054
C17   C     C_R   0.552100 0.540546 0.156447 -0.031726
C18   C     C_R   0.447898 0.459456 0.843554 -0.031693
C19   C     C_R   0.542970 0.534672 0.034068 0.027456
C20   C     C_R   0.457029 0.465329 0.965932 0.027454
C21   C     C_R   0.262954 0.500381 0.500284 0.799170
C22   C     C_R   0.737046 0.499617 0.499716 0.799164
C23   C     C_R   0.127114 0.309312 0.486785 -0.162538
C24   C     C_R   0.872889 0.690690 0.513228 -0.162539
C25   C     C_R   0.061212 0.215756 0.478010 -0.150943
C26   C     C_R   0.938792 0.784249 0.522012 -0.150933
C27   C     C_R   0.932045 0.215338 0.475900 -0.153414
C28   C     C_R   0.067958 0.784666 0.524125 -0.153392
C29   C     C_R   0.868369 0.308511 0.482883 -0.142191
C30   C     C_R   0.131632 0.691491 0.517134 -0.142187
C31   C     C_R   0.933482 0.404493 0.491889 0.063614
C32   C     C_R   0.066519 0.595504 0.508118 0.063605
C33   C     C_R   0.064251 0.404846 0.493304 0.064943
C34   C     C_R   0.935750 0.595151 0.506702 0.064942
C35   C     C_R   0.870775 0.499700 0.499097 -0.181180
C36   C     C_R   0.129225 0.500297 0.500903 -0.181181
Cu1   Cu    Cu3+1 0.509250 0.507730 0.615930 0.959730
Cu2   Cu    Cu3+1 0.490750 0.492270 0.384070 0.959713
H1    H     H_    0.119076 0.857428 0.531225 0.127195
H2    H     H_    0.880929 0.142584 0.468813 0.127210
H3    H     H_    0.316246 0.348608 0.970758 0.143376
H4    H     H_    0.683748 0.651396 0.029243 0.143372
H5    H     H_    0.227401 0.305905 0.487950 0.126785
H6    H     H_    0.772602 0.694100 0.512064 0.126785
H7    H     H_    0.110600 0.143368 0.472656 0.137039
H8    H     H_    0.889403 0.856645 0.527378 0.137027
H9    H     H_    0.767979 0.304464 0.480726 0.131615
H10   H     H_    0.232022 0.695540 0.519296 0.131628
H11   H     H_    0.649385 0.826964 0.672121 0.164575
H12   H     H_    0.350640 0.173030 0.327864 0.164571
H13   H     H_    0.319393 0.989609 0.315681 0.153156
H14   H     H_    0.680631 0.010386 0.684310 0.153161
H15   H     H_    0.380692 0.406876 0.790893 0.132388
H16   H     H_    0.619303 0.593130 0.209108 0.132417
N1    N     N_R   0.523180 0.519350 0.790130 -0.190598
N2    N     N_R   0.476820 0.480650 0.209870 -0.190616
O1    O     O_R   0.506570 0.354460 0.582000 -0.564296
O2    O     O_R   0.493430 0.645540 0.418000 -0.564297
O3    O     O_R   0.490940 0.341410 0.386200 -0.577623
O4    O     O_R   0.509060 0.658590 0.613800 -0.577627
O5    O     O_R   0.327470 0.506520 0.597900 -0.591387
O6    O     O_R   0.672530 0.493480 0.402100 -0.591382
O7    O     O_R   0.311840 0.493460 0.402100 -0.548287
O8    O     O_R   0.688160 0.506540 0.597900 -0.548284
N3    N     N_2   0.358829 0.806215 0.361060 -0.433611
H17   H     H_    0.268767 0.832314 0.359405 0.235403
C37   C     C_3   0.406086 0.782072 0.247049 -0.622769
H18   H     H_    0.401405 0.850572 0.201750 0.198385
H19   H     H_    0.349048 0.718027 0.194365 0.228384
H20   H     H_    0.504256 0.757079 0.253420 0.231739
N4    N     N_2   0.641137 0.193792 0.638981 -0.433556
H21   H     H_    0.731206 0.167704 0.640643 0.235402
C38   C     C_3   0.593857 0.217881 0.752987 -0.622848
H22   H     H_    0.598329 0.149308 0.798178 0.198429
H23   H     H_    0.495749 0.243025 0.746610 0.231799
H24   H     H_    0.651004 0.281802 0.805776 0.228321
N5    N     N_2   0.686087 0.650089 0.801830 -0.385709
H25   H     H_    0.668936 0.727901 0.825726 0.220320
C39   C     C_3   0.817731 0.629177 0.814747 -0.684260
H26   H     H_    0.868857 0.674247 0.759567 0.233651
H27   H     H_    0.835081 0.545309 0.787306 0.249146
H28   H     H_    0.854492 0.652772 0.906254 0.200797
N6    N     N_2   0.313899 0.349921 0.198171 -0.385696
H29   H     H_    0.331036 0.272104 0.174275 0.220312
C40   C     C_3   0.182254 0.370850 0.185256 -0.684243
H30   H     H_    0.131122 0.325788 0.240437 0.233654
H31   H     H_    0.145480 0.347260 0.093751 0.200789
H32   H     H_    0.164921 0.454721 0.212694 0.249134

loop_
_geom_bond_atom_site_label_1
_geom_bond_atom_site_label_2
_ccdc_geom_bond_type
C27   C29   A    
C38   H22   S    
C19   C20   A    
C13   H3    S    
C21   C36   S    
N5    H25   S    
C22   C35   S    
C29   H9    S    
C6    C8    A    
C32   C36   A    
C30   H10   S    
C24   C26   A    
C16   N5    S    
C1    O3    A    
C2    O4    A    
C10   N3    S    
C33   C36   A    
C23   H5    S    
C18   C20   A    
C34   C35   A    
C18   H15   S    
Cu2   O2    S    
N3    C37   S    
C31   C33   A    
C21   O5    A    
C14   H4    S    
C40   H31   S    
C38   H23   S    
C4    C7    A    
N5    C39   S    
C37   H18   S    
C5    C12   A    
C3    C8    A    
C6    C11   A    
N4    C38   S    
C15   N6    S    
C28   H1    S    
C23   C33   A    
C40   H30   S    
C24   C34   A    
Cu2   O3    S    
C37   H19   S    
C32   C34   A    
Cu1   Cu2   S    
C1    O1    A    
C22   O6    A    
N6    H29   S    
C27   H2    S    
C9    C11   A    
C17   N2    A    
C10   C12   A    
C18   N1    A    
N6    C40   S    
C13   C15   A    
C24   H6    S    
C38   H24   S    
C14   C16   A    
C25   H7    S    
Cu1   O8    S    
C5    C7    A    
Cu2   O7    S    
C40   H32   S    
C13   C20   A    
C14   C19   A    
C9    N4    S    
C7    H12   S    
C39   H28   S    
Cu1   O5    S    
C11   C12   A    
C2    O2    A    
C25   C27   A    
C26   C28   A    
C1    C4    S    
C15   N2    A    
C37   H20   S    
C28   C30   A    
C2    C3    S    
C16   N1    A    
N4    H21   S    
C29   C31   A    
C3    C10   A    
C30   C32   A    
C8    H11   S    
C17   C19   A    
C31   C35   A    
C23   C25   A    
C39   H27   S    
C21   O7    A    
Cu1   O4    S    
C26   H8    S    
C22   O8    A    
C39   H26   S    
Cu1   N1    S    
Cu2   N2    S    
N3    H17   S    
C5    H13   S    
C6    H14   S    
C4    C9    A    
C17   H16   S    
Cu1   O1    S    
Cu2   O6    S    
