data_mof_unit_36335.cif
_audit_creation_date              2012-12-10T20:48:20-0500
_audit_creation_method            fapswitch 2.2
_symmetry_space_group_name_H-M    P1
_symmetry_Int_Tables_number       1
_space_group_crystal_system       triclinic
_cell_length_a                    10.730497
_cell_length_b                    8.922727
_cell_length_c                    8.105096
_cell_angle_alpha                 89.996359
_cell_angle_beta                  90.237793
_cell_angle_gamma                 90.001207
_cell_volume                      776.018124857

loop_
_atom_site_label
_atom_site_type_symbol
_atom_type_description
_atom_site_fract_x
_atom_site_fract_y
_atom_site_fract_z
_atom_type_partial_charge
C1    C     C_R   0.499987 0.217997 0.500004 0.911679
C2    C     C_R   0.257481 0.491635 0.499631 0.993369
C3    C     C_R   0.742590 0.491016 0.500307 0.992284
C4    C     C_R   0.499948 0.781964 0.499997 0.907598
C5    C     C_1   0.499970 0.065198 0.500007 -0.128266
C6    C     C_3   0.072828 0.416189 0.667263 0.664966
C7    C     C_3   0.070899 0.395095 0.344954 0.592078
C8    C     C_3   0.929082 0.389861 0.651486 0.649332
C9    C     C_3   0.926439 0.414682 0.333731 0.619737
C10   C     C_1   0.499956 0.934767 0.499998 -0.141855
C11   C     C_3   0.073204 0.657227 0.488968 0.696213
C12   C     C_3   0.927432 0.655666 0.513965 0.612981
C13   C     C_3   0.121307 0.489072 0.499263 -0.457765
C14   C     C_3   0.879125 0.487985 0.500284 -0.348744
N1    N     N_1   0.500000 0.500030 0.073640 -0.004720
N2    N     N_1   0.500000 0.500030 0.926360 -0.003477
O1    O     O_R   0.500000 0.285340 0.636850 -0.621193
O2    O     O_R   0.500000 0.285340 0.363150 -0.622650
O3    O     O_R   0.314790 0.499970 0.636880 -0.608613
O4    O     O_R   0.314790 0.499970 0.363120 -0.561915
O5    O     O_R   0.685210 0.499970 0.636880 -0.567256
O6    O     O_R   0.685210 0.499970 0.363120 -0.606887
O7    O     O_R   0.500000 0.714650 0.636900 -0.613208
O8    O     O_R   0.500000 0.714650 0.363100 -0.602987
Zn1   Zn    Zn3+2 0.500000 0.499990 0.682780 1.056199
Zn2   Zn    Zn3+2 0.500000 0.499990 0.317220 1.058707
O9    O     O_3   0.091520 0.519329 0.798129 -0.625749
H1    H     H_    0.167945 0.492913 0.860909 0.397373
O10   O     O_3   0.124372 0.444993 0.195618 -0.706703
H2    H     H_    0.101219 0.371474 0.108691 0.372325
O11   O     O_3   0.872494 0.432609 0.801501 -0.659648
H3    H     H_    0.896993 0.357061 0.885641 0.350337
O12   O     O_3   0.897208 0.510253 0.199029 -0.714900
H4    H     H_    0.826214 0.468611 0.135125 0.384640
O13   O     O_3   0.138439 0.282861 0.709513 -0.766443
H5    H     H_    0.112696 0.197262 0.640645 0.411468
O14   O     O_3   0.100404 0.241926 0.364000 -0.736662
H6    H     H_    0.191774 0.230682 0.349667 0.348038
O15   O     O_3   0.902373 0.236847 0.623574 -0.736736
H7    H     H_    0.811088 0.222819 0.635925 0.351802
O16   O     O_3   0.868317 0.273657 0.309617 -0.710288
H8    H     H_    0.895951 0.234203 0.201137 0.363110
O17   O     O_3   0.127421 0.744573 0.616049 -0.660965
H9    H     H_    0.212626 0.774620 0.581963 0.352702
O18   O     O_3   0.108873 0.724813 0.337774 -0.689333
H10   H     H_    0.052308 0.695019 0.247448 0.436346
O19   O     O_3   0.897362 0.711033 0.672572 -0.648887
H11   H     H_    0.908298 0.821593 0.671005 0.391204
O20   O     O_3   0.869735 0.747792 0.393468 -0.709629
H12   H     H_    0.785402 0.775608 0.433012 0.340990

loop_
_geom_bond_atom_site_label_1
_geom_bond_atom_site_label_2
_ccdc_geom_bond_type
C6    C8    S    
C9    C14   S    
C11   O17   S    
O10   H2    S    
C7    O10   S    
C8    O15   S    
C2    O4    A    
O16   H8    S    
C9    O16   S    
O11   H3    S    
O2    Zn2   S    
C6    O9    S    
C11   C12   S    
O1    Zn1   S    
C12   O20   S    
C7    O14   S    
C5    C10   T    
O18   H10   S    
C6    C13   S    
C9    O12   S    
C11   C13   S    
C1    O2    A    
O14   H6    S    
C3    C14   S    
O4    Zn2   S    
C12   O19   S    
O3    Zn1   S    
O9    H1    S    
O8    Zn2   S    
O12   H4    S    
O7    Zn1   S    
O17   H9    S    
N2    Zn1   S    
C4    O8    A    
C1    C5    S    
C3    O5    A    
C11   O18   S    
C4    C10   S    
N1    N2    T    
C7    C13   S    
C6    O13   S    
O20   H12   S    
O6    Zn2   S    
O15   H7    S    
C7    C9    S    
C2    C13   S    
O5    Zn1   S    
N1    Zn2   S    
C8    C14   S    
C4    O7    A    
C2    O3    A    
C8    O11   S    
C1    O1    A    
O19   H11   S    
C12   C14   S    
C3    O6    A    
O13   H5    S    
