data_mof_unit_59982.cif
_audit_creation_date              2013-03-05T15:40:19-0500
_audit_creation_method            fapswitch 2.2
_symmetry_space_group_name_H-M    P1
_symmetry_Int_Tables_number       1
_space_group_crystal_system       triclinic
_cell_length_a                    7.805576
_cell_length_b                    8.580594
_cell_length_c                    12.78753
_cell_angle_alpha                 90.507701
_cell_angle_beta                  87.593318
_cell_angle_gamma                 93.668416
_cell_volume                      853.938591785

loop_
_atom_site_label
_atom_site_type_symbol
_atom_site_description
_atom_site_fract_x
_atom_site_fract_y
_atom_site_fract_z
_atom_type_partial_charge
O1    O     O_R   0.609680 0.261530 0.506880 -0.588474
O2    O     O_R   0.390320 0.738470 0.493120 -0.589992
O3    O     O_R   0.323330 0.288220 0.488910 -0.594382
O4    O     O_R   0.676670 0.711780 0.511090 -0.594705
C1    C     C_R   0.454848 0.205473 0.497135 0.962765
C2    C     C_R   0.545224 0.794533 0.502682 0.979789
O5    O     O_R   0.619510 0.488830 0.661140 -0.592859
O6    O     O_R   0.380490 0.511170 0.338860 -0.592797
O7    O     O_R   0.333160 0.515520 0.643180 -0.585398
O8    O     O_R   0.666840 0.484480 0.356820 -0.579887
C3    C     C_R   0.465777 0.505742 0.699094 0.973691
C4    C     C_R   0.534590 0.494553 0.300630 0.973135
Zn1   Zn    Zn3+2 0.691200 0.482180 0.511990 1.168375
Zn2   Zn    Zn3+2 0.308800 0.517820 0.488010 1.168152
N1    N     N_2   0.054030 0.541640 0.471970 0.035484
N2    N     N_2   0.945970 0.458360 0.528030 0.032674
C5    C     C_R   0.559228 0.488028 0.189188 -0.300109
C6    C     C_R   0.447586 0.526827 0.809492 -0.295485
C7    C     C_R   0.430688 0.704483 0.955735 0.437900
C8    C     C_R   0.627369 0.337610 0.035364 0.428437
C9    C     C_R   0.412355 0.673651 0.849602 0.282303
C10   C     C_R   0.634543 0.359488 0.142754 0.291313
C11   C     C_R   0.502669 0.409537 0.871553 0.274228
C12   C     C_R   0.492143 0.604426 0.130060 0.286255
C13   C     C_R   0.539173 0.442711 0.975658 -0.191653
C14   C     C_R   0.487342 0.586237 0.021033 -0.192366
C15   C     C_2   0.431595 0.041819 0.494673 -0.216944
C16   C     C_2   0.568612 0.958209 0.504903 -0.208740
H1    H     H_    0.302460 0.990737 0.484030 0.239651
H2    H     H_    0.697779 0.009293 0.515510 0.238187
N3    N     N_R   0.414182 0.731424 0.183574 0.249551
O9    O     O_R   0.506607 0.828352 0.240238 -0.322633
O10   O     O_R   0.247651 0.735472 0.188607 -0.262075
N4    N     N_R   0.493294 0.252222 0.832107 0.245254
O11   O     O_R   0.349021 0.168822 0.844707 -0.232749
O12   O     O_R   0.608965 0.206922 0.764131 -0.289934
Cl1   Cl    Cl    0.724456 0.216852 0.219814 -0.391319
Cl2   Cl    Cl    0.350760 0.821122 0.765147 -0.410458
Cl3   Cl    Cl    0.403495 0.898749 0.998439 -0.306772
Cl4   Cl    Cl    0.746472 0.187371 0.978009 -0.318896
N5    N     N_R   0.007839 0.693098 0.459053 0.303104
O13   O     O_R   0.027391 0.793752 0.534982 -0.326846
O14   O     O_R   0.980546 0.742359 0.365738 -0.280915
N6    N     N_R   0.991869 0.306902 0.541362 0.302632
O15   O     O_R   0.976349 0.207246 0.464531 -0.320452
O16   O     O_R   0.008685 0.255613 0.635504 -0.286044

loop_
_geom_bond_atom_site_label_1
_geom_bond_atom_site_label_2
_geom_bond_distance
_ccdc_geom_bond_type
C4    C5    1.431046 S    
O7    Zn2   2.001654 S    
N3    O10   1.301432 A    
C3    C6    1.423996 S    
C15   H1    1.086544 S    
C6    C9    1.395322 A    
N5    O14   1.299909 A    
N5    O13   1.301031 A    
N2    N6    1.383841 S    
C5    C10   1.398819 A    
C8    Cl4   1.772971 S    
O6    C4    1.295175 A    
C11   N4    1.435369 S    
C16   H2    1.086708 S    
C12   N3    1.436221 S    
O5    C3    1.291769 A    
O7    C3    1.290020 A    
O2    C2    1.282681 A    
O3    Zn2   1.980761 S    
C7    Cl3   1.772370 S    
O1    C1    1.282455 A    
N1    N2    1.271673 D    
O8    C4    1.290034 A    
C7    C9    1.391945 A    
C12   C14   1.403315 A    
N4    O12   1.301876 A    
C11   C13   1.396142 A    
O2    Zn2   1.959825 S    
C5    C12   1.398922 A    
O1    Zn1   1.959825 S    
C8    C13   1.416304 A    
C8    C10   1.387352 A    
C6    C11   1.387706 A    
O5    Zn1   1.966355 S    
N6    O15   1.301149 A    
N1    N5    1.383835 S    
O4    C2    1.293173 A    
N4    O11   1.299972 A    
Zn1   N2    2.031132 S    
C15   C16   1.336874 D    
C7    C14   1.423259 A    
Zn2   N1    2.031130 S    
O6    Zn2   1.966355 S    
C13   C14   1.431231 A    
C1    C15   1.404607 S    
C10   Cl1   1.775076 S    
C2    C16   1.404814 S    
C9    Cl2   1.773241 S    
N3    O9    1.301417 A    
O4    Zn1   1.980759 S    
N6    O16   1.300076 A    
O3    C1    1.293330 A    
O8    Zn1   2.001652 S    
