data_mof_unit_10355.cif
_audit_creation_date              2012-12-10T20:34:54-0500
_audit_creation_method            fapswitch 2.2
_symmetry_space_group_name_H-M    P1
_symmetry_Int_Tables_number       1
_space_group_crystal_system       triclinic
_cell_length_a                    10.630167
_cell_length_b                    10.654245
_cell_length_c                    9.885157
_cell_angle_alpha                 90.516732
_cell_angle_beta                  90.183886
_cell_angle_gamma                 90.64833
_cell_volume                      1119.43399115

loop_
_atom_site_label
_atom_site_type_symbol
_atom_type_description
_atom_site_fract_x
_atom_site_fract_y
_atom_site_fract_z
_atom_type_partial_charge
Br1   Br    Br    0.655446 0.141535 0.235957 -0.497241
Br2   Br    Br    0.871073 0.299591 0.714831 -0.507287
C1    C     C_R   0.506801 0.260272 0.499504 0.916334
C2    C     C_R   0.495661 0.937634 0.620848 0.182968
C3    C     C_3   0.382231 0.931617 0.709529 -0.462777
C4    C     C_R   0.257681 0.496681 0.500011 0.834212
C5    C     C_3   0.384235 0.073965 0.708575 -0.477433
C6    C     C_R   0.432931 0.411210 0.070048 0.276707
C7    C     C_R   0.575450 0.579462 0.074187 -0.144716
C8    C     C_R   0.575955 0.580052 0.930926 0.199612
C9    C     C_R   0.432754 0.411299 0.927585 0.199273
C10   C     C_3   0.293840 0.391508 0.922218 -0.513757
C11   C     C_3   0.294332 0.390544 0.075563 -0.509078
C12   C     C_3   0.878355 0.491897 0.501740 0.073063
C13   C     C_R   0.503626 0.739849 0.500579 0.907145
C14   C     C_R   0.742039 0.495397 0.500377 0.879394
C15   C     C_3   0.072129 0.469431 0.646154 -0.419058
C16   C     C_3   0.928957 0.462650 0.646543 0.127555
C17   C     C_3   0.072403 0.621917 0.451861 -0.399157
C18   C     C_3   0.070771 0.387447 0.406087 -0.407436
C19   C     C_3   0.121082 0.493765 0.500721 0.127200
C20   C     C_3   0.928314 0.622648 0.458010 -0.461033
C21   C     C_3   0.926462 0.391180 0.400502 -0.331475
C22   C     C_R   0.497406 0.065170 0.619546 0.151556
C23   C     C_R   0.527300 0.128832 0.501250 -0.191872
C24   C     C_R   0.580855 0.062936 0.391259 0.263945
C25   C     C_R   0.577059 0.932690 0.392886 -0.247608
C26   C     C_R   0.523006 0.871279 0.503521 -0.173246
H1    H     H_    0.103023 0.547338 0.714877 0.163132
H2    H     H_    0.634266 0.645131 0.130468 0.167264
H3    H     H_    0.112270 0.380900 0.685530 0.204846
H4    H     H_    0.244285 0.473753 0.880536 0.216386
H5    H     H_    0.267080 0.299485 0.876165 0.211076
H6    H     H_    0.244227 0.471687 0.120758 0.211801
H7    H     H_    0.269164 0.297550 0.118481 0.213575
H8    H     H_    0.895083 0.534533 0.719648 0.167369
H9    H     H_    0.111338 0.699348 0.516438 0.165606
H10   H     H_    0.897266 0.695947 0.531277 0.189440
H11   H     H_    0.108210 0.398252 0.301995 0.185097
H12   H     H_    0.896335 0.414198 0.295712 0.205152
H13   H     H_    0.101624 0.294564 0.443857 0.179110
H14   H     H_    0.886442 0.296968 0.423779 0.218223
H15   H     H_    0.103469 0.639251 0.346120 0.190929
H16   H     H_    0.890184 0.647843 0.356876 0.198252
H17   H     H_    0.610816 0.880330 0.306052 0.195691
H18   H     H_    0.298780 0.889484 0.657423 0.190883
H19   H     H_    0.403947 0.891794 0.810406 0.229433
H20   H     H_    0.301713 0.115109 0.656385 0.193406
H21   H     H_    0.407464 0.116235 0.808930 0.226726
I1    I     I_    0.697397 0.714215 0.841953 -0.359421
N1    N     N_R   0.499150 0.499140 0.142800 -0.123783
N2    N     N_R   0.499150 0.499180 0.857150 -0.127421
O1    O     O_R   0.500020 0.316790 0.614690 -0.601008
O2    O     O_R   0.500000 0.316760 0.385350 -0.580643
O3    O     O_R   0.314800 0.500000 0.614670 -0.635624
O4    O     O_R   0.314790 0.499960 0.385330 -0.630488
O5    O     O_R   0.500000 0.683240 0.614650 -0.593134
O6    O     O_R   0.499980 0.683210 0.385310 -0.628216
O7    O     O_R   0.685210 0.500040 0.614670 -0.581029
O8    O     O_R   0.685200 0.500000 0.385330 -0.620837
Zn1   Zn    Zn3+2 0.500010 0.500020 0.653130 0.990989
Zn2   Zn    Zn3+2 0.499990 0.499980 0.346870 0.971428

loop_
_geom_bond_atom_site_label_1
_geom_bond_atom_site_label_2
_ccdc_geom_bond_type
C12   C21   S    
O6    Zn2   S    
C20   H10   S    
C9    C10   S    
C22   C23   A    
O5    Zn1   S    
C6    C11   S    
C13   O6    A    
Br2   C16   S    
C15   H1    S    
C3    H18   S    
C12   C16   S    
C7    N1    A    
C18   C21   S    
C4    O3    A    
C8    N2    A    
C5    H20   S    
C18   C19   S    
C18   H13   S    
C24   C25   A    
C11   H6    S    
C4    C19   S    
C10   H4    S    
C13   O5    A    
C6    N1    A    
C1    O1    A    
C13   C26   S    
Br1   C24   S    
C21   H14   S    
O1    Zn1   S    
C7    H2    S    
C10   H5    S    
C6    C9    A    
N1    Zn2   S    
O3    Zn1   S    
C2    C26   A    
C17   H15   S    
C11   H7    S    
C12   C14   S    
N2    Zn1   S    
C15   C16   S    
C12   C20   S    
C15   H3    S    
C1    O2    A    
O4    Zn2   S    
O7    Zn1   S    
C17   H9    S    
C25   H17   S    
C21   H12   S    
C3    H19   S    
C2    C22   A    
C1    C23   S    
C17   C20   S    
C10   C11   S    
C5    H21   S    
O8    Zn2   S    
C7    C8    A    
C25   C26   A    
C3    C5    S    
C18   H11   S    
C20   H16   S    
C9    N2    A    
O2    Zn2   S    
C17   C19   S    
C23   C24   A    
C14   O8    A    
C16   H8    S    
C15   C19   S    
C5    C22   S    
C4    O4    A    
C2    C3    S    
C14   O7    A    
C8    I1    S    
