data_mof_unit_68000.cif
_audit_creation_date              2013-03-05T15:42:00-0500
_audit_creation_method            fapswitch 2.2
_symmetry_space_group_name_H-M    P1
_symmetry_Int_Tables_number       1
_space_group_crystal_system       triclinic
_cell_length_a                    11.889362
_cell_length_b                    11.90195
_cell_length_c                    18.735376
_cell_angle_alpha                 90.100881
_cell_angle_beta                  90.791379
_cell_angle_gamma                 120.486676
_cell_volume                      2284.30996982

loop_
_atom_site_label
_atom_site_type_symbol
_atom_site_description
_atom_site_fract_x
_atom_site_fract_y
_atom_site_fract_z
_atom_type_partial_charge
O1    O     O_R   0.910960 0.572410 0.171010 -0.434163
O2    O     O_R   0.427590 0.338550 0.171010 -0.462551
O3    O     O_R   0.661450 0.089040 0.171010 -0.490728
O4    O     O_R   0.572410 0.910960 0.828990 -0.479170
O5    O     O_R   0.338550 0.427590 0.828990 -0.397048
O6    O     O_R   0.089040 0.661450 0.828990 -0.502957
O7    O     O_R   0.639750 0.528530 0.175600 -0.468361
O8    O     O_R   0.471470 0.111220 0.175600 -0.491669
O9    O     O_R   0.888780 0.360250 0.175600 -0.494895
O10   O     O_R   0.528530 0.639750 0.824400 -0.500535
O11   O     O_R   0.111220 0.471470 0.824400 -0.429078
O12   O     O_R   0.360250 0.888780 0.824400 -0.464672
C1    C     C_R   0.521097 0.455502 0.148147 0.547293
C2    C     C_R   0.542238 0.065240 0.147583 0.510304
C3    C     C_R   0.930520 0.476932 0.147307 0.523441
C4    C     C_R   0.455990 0.523241 0.853173 0.568737
C5    C     C_R   0.068720 0.546777 0.852393 0.532178
C6    C     C_R   0.476086 0.922373 0.854967 0.562112
O13   O     O_R   0.909330 0.572400 0.331540 -0.480126
O14   O     O_R   0.427600 0.336930 0.331540 -0.485735
O15   O     O_R   0.663070 0.090670 0.331540 -0.508593
O16   O     O_R   0.572400 0.909330 0.668460 -0.455709
O17   O     O_R   0.336930 0.427600 0.668460 -0.482215
O18   O     O_R   0.090670 0.663070 0.668460 -0.515651
O19   O     O_R   0.638240 0.528520 0.324410 -0.429103
O20   O     O_R   0.471480 0.109720 0.324410 -0.423436
O21   O     O_R   0.890280 0.361760 0.324410 -0.411195
O22   O     O_R   0.528520 0.638240 0.675590 -0.406615
O23   O     O_R   0.109720 0.471480 0.675590 -0.387191
O24   O     O_R   0.361760 0.890280 0.675590 -0.424400
C7    C     C_R   0.518583 0.453833 0.352306 0.567568
C8    C     C_R   0.559441 0.079478 0.357274 0.566834
C9    C     C_R   0.934743 0.485290 0.352518 0.539816
C10   C     C_R   0.445203 0.519298 0.644154 0.543883
C11   C     C_R   0.068164 0.552933 0.645720 0.592438
C12   C     C_R   0.485758 0.938340 0.649580 0.608769
Cr1   Cr    Cr6+3 0.768550 0.541320 0.250660 1.223242
Cr2   Cr    Cr6+3 0.458680 0.227230 0.250660 1.193149
Cr3   Cr    Cr6+3 0.772770 0.231450 0.250660 1.178679
Cr4   Cr    Cr6+3 0.541320 0.768550 0.749340 1.204781
Cr5   Cr    Cr6+3 0.227230 0.458680 0.749340 1.239012
Cr6   Cr    Cr6+3 0.231450 0.772770 0.749340 1.179668
O25   O     O_3   0.666667 0.333333 0.250630 -0.394458
O26   O     O_3   0.333333 0.666667 0.749370 -0.400893
H1    H     H_    0.592223 0.894157 0.081721 0.223897
H2    H     H_    0.068466 0.697513 0.075092 0.234381
H3    H     H_    0.335318 0.301681 0.057176 0.215199
H4    H     H_    0.109941 0.724557 0.950856 0.170981
H5    H     H_    0.582748 0.850194 0.956681 0.136559
H6    H     H_    0.337972 0.312943 0.933012 0.218244
C13   C     C_R   0.494733 0.965589 0.929588 -0.017983
C14   C     C_R   0.021358 0.517146 0.926067 0.061006
C15   C     C_R   0.502262 0.505385 0.924787 0.069512
C16   C     C_R   0.984678 0.490837 0.075167 0.003015
C17   C     C_R   0.486740 0.993874 0.078186 0.055786
C18   C     C_R   0.504825 0.494355 0.075659 0.049603
C19   C     C_R   0.433536 0.029903 0.957527 -0.034155
C20   C     C_R   0.961296 0.390866 0.956450 0.020561
C21   C     C_R   0.610411 0.606679 0.964228 -0.045443
C22   C     C_R   0.954107 0.380053 0.031967 -0.006541
C23   C     C_R   0.404844 0.018293 0.031536 -0.018371
C24   C     C_R   0.604176 0.609509 0.040986 -0.029161
C25   C     C_R   0.543167 0.927370 0.048947 -0.125326
C26   C     C_R   0.040410 0.612225 0.043502 -0.114856
C27   C     C_R   0.410563 0.391332 0.033991 -0.102631
C28   C     C_R   0.060126 0.625931 0.971062 -0.110876
C29   C     C_R   0.542324 0.907752 0.976320 -0.185835
C30   C     C_R   0.413752 0.395287 0.961194 -0.069683
C31   C     C_R   0.382082 0.086220 0.911788 0.219738
C32   C     C_R   0.925486 0.274876 0.917165 0.249397
C33   C     C_R   0.726987 0.702467 0.931219 0.238393
C34   C     C_R   0.919332 0.256765 0.060412 0.269729
C35   C     C_R   0.286474 0.013657 0.050718 0.201128
C36   C     C_R   0.702056 0.724886 0.078292 0.244809
C37   C     C_R   0.264072 0.075007 0.929485 -0.133739
C38   C     C_R   0.824852 0.160671 0.946202 -0.155194
C39   C     C_R   0.821340 0.808624 0.969994 -0.154327
C40   C     C_R   0.835225 0.146529 0.019627 -0.096502
C41   C     C_R   0.214397 0.033758 0.997548 -0.142086
C42   C     C_R   0.809126 0.819565 0.041633 -0.139045
H7    H     H_    0.212591 0.100553 0.890912 0.217427
H8    H     H_    0.780263 0.072912 0.913672 0.170250
H9    H     H_    0.908789 0.882826 0.944697 0.200898
H10   H     H_    0.802740 0.050799 0.040248 0.159671
H11   H     H_    0.119310 0.017855 0.009465 0.223597
H12   H     H_    0.884004 0.906594 0.068288 0.235566
C43   C     C_R   0.537591 0.017158 0.584532 0.011860
C44   C     C_R   0.002555 0.545110 0.574113 0.053722
C45   C     C_R   0.459085 0.486086 0.569114 -0.012956
C46   C     C_R   0.992541 0.530761 0.424655 -0.030196
C47   C     C_R   0.557115 0.037844 0.433835 0.007260
C48   C     C_R   0.481328 0.491421 0.419234 0.024773
C49   C     C_R   0.656789 0.041742 0.553383 -0.047827
C50   C     C_R   0.009701 0.653273 0.536697 -0.066796
C51   C     C_R   0.354679 0.384951 0.526809 -0.017116
C52   C     C_R   0.017083 0.651544 0.458052 -0.073448
C53   C     C_R   0.663292 0.037960 0.474780 -0.056016
C54   C     C_R   0.361630 0.405850 0.450438 -0.026505
C55   C     C_R   0.451580 0.019353 0.470800 0.196840
C56   C     C_R   0.969198 0.431074 0.467689 0.183069
C57   C     C_R   0.577498 0.583372 0.461241 0.160475
C58   C     C_R   0.938721 0.432393 0.537240 0.202819
C59   C     C_R   0.447696 0.020309 0.542810 0.176809
C60   C     C_R   0.568092 0.578109 0.533491 0.175716
C61   C     C_R   0.765125 0.059166 0.598546 0.354928
C62   C     C_R   0.988727 0.750239 0.571018 0.316127
C63   C     C_R   0.247007 0.261585 0.551477 0.316372
C64   C     C_R   0.039384 0.766374 0.419039 0.291255
C65   C     C_R   0.769785 0.024785 0.445910 0.337358
C66   C     C_R   0.252526 0.328191 0.405694 0.349297
C67   C     C_R   0.856932 0.041893 0.566412 -0.033125
C68   C     C_R   0.982639 0.837043 0.526505 -0.069255
C69   C     C_R   0.172647 0.172899 0.498562 -0.056917
C70   C     C_R   0.022219 0.854120 0.456588 -0.045012
C71   C     C_R   0.855903 0.022208 0.494208 -0.063708
C72   C     C_R   0.173473 0.203359 0.427287 -0.016245
H13   H     H_    0.935557 0.052250 0.598687 0.205463
H14   H     H_    0.955751 0.899669 0.549693 0.152754
H15   H     H_    0.114982 0.076980 0.513923 0.127685
H16   H     H_    0.039642 0.938144 0.429203 0.163466
H17   H     H_    0.931943 0.014760 0.472943 0.095992
H18   H     H_    0.106700 0.133022 0.389224 0.202090
S1    S     S_3+6 0.475919 0.186832 0.840233 0.047290
O27   O     O_2   0.458998 0.112557 0.772445 -0.185722
O28   O     O_2   0.435663 0.283347 0.823577 -0.251387
O29   O     O_3   0.634245 0.268238 0.865076 -0.496877
H19   H     H_    0.661083 0.202200 0.864835 0.331310
S2    S     S_3+6 0.057733 0.250458 0.902926 0.025294
O30   O     O_2   0.175589 0.367648 0.934038 -0.285319
O31   O     O_2   0.037949 0.132114 0.941820 -0.380368
O32   O     O_3   0.079187 0.231169 0.816716 -0.397557
H20   H     H_    0.040528 0.136000 0.809561 0.382603
S3    S     S_3+6 0.782998 0.681118 0.849365 0.052157
O33   O     O_2   0.766983 0.763441 0.794375 -0.180421
O34   O     O_2   0.926049 0.731194 0.858393 -0.288893
O35   O     O_3   0.705777 0.523478 0.823777 -0.452380
H21   H     H_    0.659466 0.518533 0.778484 0.397895
S4    S     S_3+6 0.029840 0.244036 0.119580 0.132554
O36   O     O_2   0.964738 0.186269 0.188652 -0.139769
O37   O     O_2   0.071769 0.155672 0.088019 -0.229582
O38   O     O_3   0.163799 0.391247 0.133929 -0.489658
H22   H     H_    0.141148 0.432156 0.172830 0.371905
S5    S     S_3+6 0.206055 0.952846 0.132570 0.078545
O39   O     O_2   0.236744 0.064877 0.181809 -0.151443
O40   O     O_2   0.060724 0.877302 0.121562 -0.267383
O41   O     O_3   0.253968 0.853917 0.168126 -0.490295
H23   H     H_    0.303387 0.897968 0.212295 0.403550
S6    S     S_3+6 0.682536 0.781236 0.162192 0.024945
O42   O     O_2   0.740668 0.746040 0.223388 -0.122444
O43   O     O_2   0.755418 0.927462 0.160317 -0.304417
O44   O     O_3   0.522102 0.722095 0.174332 -0.574842
H24   H     H_    0.512592 0.735061 0.225435 0.395957
N1    N     N_R   0.333829 0.969990 0.434708 0.088980
O45   O     O_R   0.287653 0.046682 0.425025 -0.327061
O46   O     O_R   0.302988 0.870849 0.393457 -0.353330
N2    N     N_R   0.049070 0.380872 0.456080 0.104075
O47   O     O_R   0.992295 0.260345 0.437355 -0.356837
O48   O     O_R   0.158774 0.436024 0.491703 -0.379621
N3    N     N_R   0.652803 0.706051 0.432060 0.101280
O49   O     O_R   0.761222 0.735275 0.401817 -0.273258
O50   O     O_R   0.593040 0.769864 0.419686 -0.288506
N4    N     N_R   0.892696 0.321800 0.575987 0.035784
O51   O     O_R   0.979665 0.289564 0.590025 -0.285766
O52   O     O_R   0.804343 0.305430 0.621614 -0.334964
N5    N     N_R   0.370737 0.062068 0.573224 0.126085
O53   O     O_R   0.246805 0.980316 0.572187 -0.295921
O54   O     O_R   0.417267 0.186094 0.567175 -0.382474
N6    N     N_R   0.680201 0.658981 0.572229 0.069477
O55   O     O_R   0.708565 0.778234 0.582167 -0.325316
O56   O     O_R   0.709975 0.599009 0.619243 -0.275981
S7    S     S_3+6 0.797381 0.104157 0.695797 0.137441
O57   O     O_2   0.796778 0.994512 0.735576 -0.198857
O58   O     O_2   0.924723 0.223675 0.713304 -0.188029
O59   O     O_3   0.684157 0.131921 0.731043 -0.472799
H25   H     H_    0.730188 0.225245 0.745101 0.393450
S8    S     S_3+6 0.957347 0.772403 0.665121 0.189457
O60   O     O_2   0.083048 0.853380 0.706668 -0.167803
O61   O     O_2   0.883779 0.842871 0.672200 -0.152757
O62   O     O_3   0.872267 0.625506 0.704596 -0.435590
H26   H     H_    0.922528 0.627079 0.746923 0.407490
S9    S     S_3+6 0.204494 0.186907 0.639926 0.136076
O63   O     O_2   0.129445 0.236742 0.678153 -0.163371
O64   O     O_2   0.114107 0.045017 0.635615 -0.246320
O65   O     O_3   0.329947 0.208636 0.692883 -0.354328
H27   H     H_    0.411755 0.281235 0.674124 0.374883
S10   S     S_3+6 0.078181 0.812593 0.324145 0.183215
O66   O     O_2   0.955976 0.784699 0.284785 -0.103137
O67   O     O_2   0.171201 0.954858 0.313231 -0.161885
O68   O     O_3   0.137453 0.726636 0.283841 -0.452126
H28   H     H_    0.166370 0.688736 0.321665 0.363080
S11   S     S_3+6 0.811856 0.000750 0.355064 0.169295
O69   O     O_2   0.881038 0.129068 0.317770 -0.159548
O70   O     O_2   0.903699 0.951129 0.350836 -0.228334
O71   O     O_3   0.677104 0.893296 0.309103 -0.402004
H29   H     H_    0.671523 0.938724 0.266744 0.399902
S12   S     S_3+6 0.225164 0.375072 0.318505 0.102752
O72   O     O_2   0.209034 0.273338 0.265019 -0.174780
O73   O     O_2   0.104152 0.381749 0.315734 -0.211857
O74   O     O_3   0.346884 0.522451 0.294393 -0.524311
H30   H     H_    0.356614 0.513637 0.242680 0.379541

loop_
_geom_bond_atom_site_label_1
_geom_bond_atom_site_label_2
_geom_bond_distance
_ccdc_geom_bond_type
O19   C7    1.351387 A    
S5    O41   1.681522 S    
C55   C59   1.350777 A    
S7    O57   1.500855 D    
Cr6   O26   2.148072 S    
O20   C8    1.402603 A    
N5    O53   1.289438 A    
C54   C66   1.410819 A    
C49   C53   1.477554 A    
O18   Cr6   2.123199 S    
S6    O44   1.683983 S    
C41   H11   1.074131 S    
C2    C17   1.500342 S    
S2    O30   1.496703 D    
C68   C70   1.378237 A    
C15   C21   1.431968 A    
C51   C54   1.449010 A    
C48   C54   1.399555 A    
S1    O27   1.497829 D    
C16   C22   1.423925 A    
S9    O63   1.487983 D    
O21   C9    1.385414 A    
S7    O58   1.490860 D    
O29   H19   0.986983 S    
C72   H18   1.071225 S    
C63   S9    1.834121 S    
C71   H17   1.036855 S    
C36   S6    1.771676 S    
N2    O47   1.282844 A    
C38   C40   1.397548 A    
N4    O51   1.296511 A    
S1    O28   1.483582 D    
C8    C47   1.514428 S    
O22   Cr4   2.021118 S    
C20   C22   1.420721 A    
C18   C27   1.395374 A    
C17   C23   1.435605 A    
O9    Cr3   2.036120 S    
C53   C65   1.462991 A    
O65   H27   0.986875 S    
O10   Cr4   2.031676 S    
C55   N1    1.378498 S    
C64   C70   1.358255 A    
C19   C23   1.422656 A    
C15   C30   1.383306 A    
O2    C1    1.342396 A    
H4    C28   1.083656 S    
C4    C15   1.499093 S    
C63   C69   1.379799 A    
O5    C4    1.348603 A    
C34   C40   1.396197 A    
O13   Cr1   2.129389 S    
O19   Cr1   2.037920 S    
O59   H25   0.990361 S    
S8    O62   1.690477 S    
C50   C62   1.449613 A    
O4    Cr4   2.139283 S    
O21   Cr3   2.001756 S    
C17   C25   1.387125 A    
S3    O35   1.682191 S    
C42   H12   1.079392 S    
O44   H24   0.986639 S    
N3    O50   1.295808 A    
O11   Cr5   2.041836 S    
O1    C3    1.346053 A    
N1    O46   1.293828 A    
C61   S7    1.876836 S    
C24   C36   1.442612 A    
C31   S1    1.779694 S    
O1    Cr1   2.160238 S    
C1    C18   1.476961 S    
C49   C61   1.454746 A    
C27   C30   1.365151 A    
N6    O56   1.288667 A    
O71   H29   0.981331 S    
C52   C64   1.453812 A    
O3    Cr3   2.124093 S    
O74   H30   0.988999 S    
N5    O54   1.292908 A    
C36   C42   1.390456 A    
O8    Cr2   2.029610 S    
S12   O74   1.679399 S    
C5    C14   1.472548 S    
C46   C56   1.345441 A    
S7    O59   1.683013 S    
C6    C13   1.463376 S    
N4    O52   1.299964 A    
S9    O64   1.472746 D    
C12   C43   1.477571 S    
C35   C41   1.403298 A    
C14   C20   1.420607 A    
O15   C8    1.272136 A    
C44   C50   1.431683 A    
O18   C11   1.269016 A    
O12   Cr6   2.004334 S    
S11   O69   1.497403 D    
C3    C16   1.478332 S    
N6    O55   1.294066 A    
S6    O42   1.497085 D    
S12   O73   1.480880 D    
O13   C9    1.279330 A    
C38   H8    1.081872 S    
O20   Cr2   2.026174 S    
S1    O29   1.680000 S    
C62   C68   1.358449 A    
O8    C2    1.327161 A    
C64   S10   1.856032 S    
C23   C35   1.431103 A    
H1    C25   1.048040 S    
H2    C26   1.068097 S    
C26   C28   1.376329 A    
C45   C51   1.439225 A    
S11   O70   1.484591 D    
C25   C29   1.379223 A    
C60   N6    1.377985 S    
O14   Cr2   2.153017 S    
C11   C44   1.521179 S    
O2    Cr2   2.146533 S    
C44   C58   1.342433 A    
N3    O49   1.292117 A    
O15   Cr3   2.156589 S    
O7    C1    1.320732 A    
C58   N4    1.357385 S    
O17   C10   1.283752 A    
O16   Cr4   2.153228 S    
C56   C58   1.359520 A    
O7    Cr1   2.012227 S    
C69   H15   1.033722 S    
C47   C53   1.467508 A    
C50   C52   1.477994 A    
O3    C2    1.362634 A    
C51   C63   1.455942 A    
C48   C57   1.351614 A    
C43   C59   1.331329 A    
S8    O60   1.507328 D    
C59   N5    1.372510 S    
C57   C60   1.358729 A    
C45   C60   1.382342 A    
C66   S12   1.805062 S    
S3    O33   1.498389 D    
Cr5   O26   2.133211 S    
C18   C24   1.441302 A    
Cr1   O25   2.133668 S    
C37   C41   1.394537 A    
C32   C38   1.394816 A    
S10   O67   1.496433 D    
O32   H20   0.990830 S    
S2    O32   1.672146 S    
C66   C72   1.360211 A    
C33   C39   1.385148 A    
C14   C28   1.406906 A    
O41   H23   0.988628 S    
C35   S5    1.769735 S    
S9    O65   1.686076 S    
C32   S2    1.761478 S    
S5    O40   1.499891 D    
O6    C5    1.335603 A    
O5    Cr5   2.135378 S    
O11   C5    1.341247 A    
C21   C24   1.442231 A    
C62   S8    1.852981 S    
H5    C29   1.083387 S    
O23   Cr5   2.011894 S    
C20   C32   1.421339 A    
S6    O43   1.500615 D    
S12   O72   1.503952 D    
S4    O38   1.683384 S    
S2    O31   1.497471 D    
C33   S3    1.748823 S    
Cr3   O25   2.148011 S    
C46   C52   1.452377 A    
S4    O37   1.497392 D    
C37   H7    1.080150 S    
O16   C12   1.287141 A    
O23   C11   1.406202 A    
O17   Cr5   2.162472 S    
O24   C12   1.379584 A    
C67   H13   1.059194 S    
C19   C31   1.400529 A    
C69   C72   1.383185 A    
S10   O68   1.690261 S    
N2    O48   1.297398 A    
O9    C3    1.329071 A    
C10   C45   1.493552 S    
O4    C6    1.319042 A    
Cr2   O25   2.130980 S    
O10   C4    1.326380 A    
C9    C46   1.478542 S    
C68   H14   1.044498 S    
C39   C42   1.365081 A    
C56   N2    1.373707 S    
C13   C29   1.394361 A    
C16   C26   1.385946 A    
C65   S11   1.842797 S    
C43   C49   1.427343 A    
S8    O61   1.494399 D    
C31   C37   1.385408 A    
C22   C34   1.414707 A    
C61   C67   1.357039 A    
O68   H28   0.987734 S    
C34   S4    1.772107 S    
S11   O71   1.680139 S    
S4    O36   1.495763 D    
C65   C71   1.369103 A    
O22   C10   1.374857 A    
O62   H26   0.980717 S    
C40   H10   1.075060 S    
C13   C19   1.401262 A    
Cr4   O26   2.131376 S    
C57   N3    1.386473 S    
C7    C48   1.477537 S    
O6    Cr6   2.156301 S    
O12   C6    1.342849 A    
S3    O34   1.496543 D    
C39   H9    1.081195 S    
O24   Cr6   2.032951 S    
C67   C71   1.371328 A    
C47   C55   1.358975 A    
S10   O66   1.498380 D    
O38   H22   0.988936 S    
H6    C30   1.067766 S    
H3    C27   1.082287 S    
C70   H16   1.049195 S    
O35   H21   0.990343 S    
S5    O39   1.501602 D    
C21   C33   1.423403 A    
N1    O45   1.293755 A    
O14   C7    1.310232 A    
