data_mof_unit_54544.cif
_audit_creation_date              2012-12-11T16:08:58-0500
_audit_creation_method            fapswitch 2.2
_symmetry_space_group_name_H-M    P1
_symmetry_Int_Tables_number       1
_space_group_crystal_system       triclinic
_cell_length_a                    12.970879
_cell_length_b                    13.307688
_cell_length_c                    27.742751
_cell_angle_alpha                 95.200505
_cell_angle_beta                  89.607
_cell_angle_gamma                 119.183101
_cell_volume                      4159.83735398

loop_
_atom_site_label
_atom_site_type_symbol
_atom_type_description
_atom_site_fract_x
_atom_site_fract_y
_atom_site_fract_z
_atom_type_partial_charge
C1    C     C_R   0.628960 0.895200 0.427716 0.543883
C2    C     C_R   0.259101 0.796788 0.291700 -0.000326
C3    C     C_R   0.291432 0.121258 0.952196 -0.097564
C4    C     C_R   0.295020 0.203485 0.923226 -0.112685
C5    C     C_R   0.390720 0.259687 0.893844 -0.076132
C6    C     C_R   0.223053 0.784055 0.191931 0.012464
C7    C     C_R   0.601286 0.222127 0.440635 0.547402
C8    C     C_R   0.275025 0.724289 0.210478 -0.128992
C9    C     C_R   0.293061 0.730894 0.260184 -0.140242
C10   C     C_R   0.191640 0.766883 0.142892 -0.134722
C11   C     C_R   0.130218 0.818742 0.125351 -0.004802
C12   C     C_R   0.194799 0.932249 0.355459 -0.134404
C13   C     C_R   0.179574 0.929870 0.305372 0.013812
C14   C     C_R   0.211775 0.861551 0.273507 0.061076
C15   C     C_R   0.577710 0.317144 0.227041 -0.104101
C16   C     C_R   0.133236 0.994442 0.286455 -0.127833
C17   C     C_R   0.115169 0.988087 0.236452 -0.129797
C18   C     C_R   0.143092 0.917036 0.204929 0.008235
C19   C     C_R   0.274986 0.878478 0.424307 0.547731
C20   C     C_R   0.194334 0.855709 0.223400 0.061544
C21   C     C_R   0.113182 0.899714 0.155635 -0.134190
C22   C     C_R   0.239994 0.865741 0.373357 0.005721
C23   C     C_R   0.754248 0.940030 0.357620 -0.132910
C24   C     C_R   0.759908 0.927529 0.307842 0.009206
C25   C     C_R   0.756569 0.913888 0.207163 0.019612
C26   C     C_R   0.569639 0.303095 0.276413 -0.105018
C27   C     C_R   0.842349 0.013458 0.234284 -0.132299
C28   C     C_R   0.846130 0.018750 0.284390 -0.136871
C29   C     C_R   0.757627 0.906039 0.157104 -0.130094
C30   C     C_R   0.684630 0.800682 0.129796 -0.003571
C31   C     C_R   0.626526 0.899302 0.565226 0.545321
C32   C     C_R   0.577867 0.751657 0.354993 -0.125046
C33   C     C_R   0.586712 0.733641 0.304773 0.044408
C34   C     C_R   0.673571 0.826034 0.280994 0.039266
C35   C     C_R   0.507965 0.628576 0.277393 0.096732
C36   C     C_R   0.511713 0.620543 0.226534 -0.120673
C37   C     C_R   0.667282 0.317425 0.303725 0.034115
C38   C     C_R   0.592292 0.715375 0.202957 -0.011330
C39   C     C_R   0.673738 0.818332 0.230367 0.056569
C40   C     C_R   0.598199 0.706967 0.152499 -0.137039
C41   C     C_R   0.657083 0.857898 0.380607 -0.014259
C42   C     C_R   0.734920 0.329438 0.650876 -0.138382
C43   C     C_R   0.600339 0.223351 0.579051 0.541346
C44   C     C_R   0.751542 0.349998 0.701235 -0.008404
C45   C     C_R   0.782309 0.393284 0.802230 0.029035
C46   C     C_R   0.880638 0.446728 0.772805 0.098556
C47   C     C_R   0.863993 0.424143 0.722371 -0.110969
C48   C     C_R   0.683435 0.345134 0.204191 0.025900
C49   C     C_R   0.793980 0.420847 0.852050 -0.138477
C50   C     C_R   0.695369 0.375148 0.880978 -0.020353
C51   C     C_R   0.524767 0.203822 0.659756 -0.124342
C52   C     C_R   0.540360 0.220586 0.709612 0.006476
C53   C     C_R   0.653820 0.295077 0.730766 0.050988
C54   C     C_R   0.444075 0.162954 0.738375 -0.142488
C55   C     C_R   0.272043 0.879753 0.563559 0.545126
C56   C     C_R   0.458785 0.181411 0.788429 -0.135465
C57   C     C_R   0.569837 0.260986 0.810645 0.005312
C58   C     C_R   0.668893 0.315773 0.781293 0.021523
C59   C     C_1   0.693413 0.368080 0.154056 -0.056959
C60   C     C_R   0.583754 0.290233 0.861166 -0.030571
C61   C     C_R   0.621383 0.257936 0.630437 0.011309
C62   C     C_1   0.225286 0.864360 0.610914 -0.020435
C63   C     C_R   0.074276 0.827685 0.723059 -0.110999
C64   C     C_R   0.058998 0.820567 0.772825 -0.094530
C65   C     C_R   0.259258 0.854876 0.784298 -0.115490
C66   C     C_R   0.274350 0.861560 0.734541 -0.117106
C67   C     C_1   0.633508 0.269722 0.395012 -0.011151
C68   C     C_R   0.181944 0.847822 0.703814 0.024642
C69   C     C_R   0.151395 0.834057 0.803511 0.042428
C70   C     C_1   0.651962 0.296820 0.354202 -0.051155
C71   C     C_1   0.131330 0.818579 0.853985 -0.039139
C72   C     C_1   0.199950 0.855395 0.652763 -0.067795
C73   C     C_1   0.104702 0.799031 0.895121 -0.008809
C74   C     C_1   0.640088 0.867823 0.611992 -0.010973
C75   C     C_R   0.610912 0.892389 0.737998 -0.106527
C76   C     C_R   0.614366 0.879701 0.787407 -0.108464
C77   C     C_R   0.692075 0.748299 0.769135 -0.108322
C78   C     C_R   0.688473 0.760879 0.719723 -0.108579
C79   C     C_R   0.774953 0.345564 0.280982 0.009288
C80   C     C_R   0.648280 0.833333 0.704031 0.037773
C81   C     C_1   0.702706 0.395307 0.113250 -0.015414
C82   C     C_R   0.655330 0.807848 0.803131 0.036911
C83   C     C_1   0.666687 0.799310 0.854065 -0.060868
C84   C     C_1   0.645758 0.849025 0.653376 -0.057096
C85   C     C_1   0.683937 0.790364 0.895764 -0.015877
C86   C     C_R   0.065078 0.773511 0.078839 0.545590
C87   C     C_R   0.716854 0.441679 0.067369 0.546632
C88   C     C_R   0.720507 0.781908 0.081309 0.545180
C89   C     C_R   0.057247 0.766354 0.941451 0.536824
C90   C     C_R   0.710814 0.432915 0.929638 0.547212
C91   C     C_R   0.781765 0.359924 0.231114 -0.106999
C92   C     C_R   0.272232 0.798940 0.341226 -0.130300
C93   C     C_R   0.716628 0.776143 0.942988 0.545391
C94   C     C_R   0.881346 0.362287 0.308320 0.028393
C95   C     C_R   0.991200 0.461745 0.304396 -0.093401
C96   C     C_R   0.091246 0.477962 0.330174 -0.104900
C97   C     C_R   0.082951 0.396040 0.360275 -0.102951
C98   C     C_R   0.974550 0.296888 0.364353 -0.120148
C99   C     C_R   0.874475 0.279157 0.338076 -0.091895
C100  C     C_R   0.483358 0.233481 0.893241 0.041661
C101  C     C_R   0.479757 0.151593 0.922719 -0.096070
C102  C     C_R   0.383825 0.095495 0.952006 -0.111002
Cr1   Cr    Cr6+3 0.416430 0.829200 0.492370 1.023357
Cr2   Cr    Cr6+3 0.674630 0.087020 0.504170 1.023928
Cr3   Cr    Cr6+3 0.408920 0.083740 0.503490 1.024844
Cr4   Cr    Cr6+3 0.914010 0.832750 0.013970 1.007930
Cr5   Cr    Cr6+3 0.922310 0.578600 0.003000 1.019901
Cr6   Cr    Cr6+3 0.656280 0.574630 0.003870 1.027465
H1    H     H_    0.076743 0.036395 0.222483 0.107640
H2    H     H_    0.863756 0.382610 0.213210 0.107415
H3    H     H_    0.505714 0.687116 0.373676 0.142642
H4    H     H_    0.879201 0.485796 0.868169 0.176384
H5    H     H_    0.809235 0.368484 0.627697 0.111585
H6    H     H_    0.938674 0.465451 0.699580 0.110460
H7    H     H_    0.381735 0.134969 0.809277 0.132391
H8    H     H_    0.356882 0.104394 0.722101 0.125309
H9    H     H_    0.437367 0.144463 0.643631 0.135305
H10   H     H_    0.002242 0.816806 0.699686 0.111311
H11   H     H_    0.501664 0.307263 0.206765 0.110644
H12   H     H_    0.109108 0.048086 0.310294 0.108541
H13   H     H_    0.974698 0.803138 0.787312 0.115778
H14   H     H_    0.330925 0.864586 0.807581 0.110374
H15   H     H_    0.358076 0.877429 0.719965 0.113483
H16   H     H_    0.580221 0.949182 0.726309 0.109957
H17   H     H_    0.586653 0.926921 0.813275 0.105889
H18   H     H_    0.724897 0.693221 0.780906 0.113292
H19   H     H_    0.717877 0.715053 0.693918 0.110103
H20   H     H_    0.486656 0.280776 0.293383 0.123922
H21   H     H_    0.206727 0.706317 0.119171 0.124814
H22   H     H_    0.312850 0.751821 0.354647 0.129241
H23   H     H_    0.173265 0.986379 0.380305 0.116857
H24   H     H_    0.298331 0.669828 0.186732 0.111156
H25   H     H_    0.330799 0.682278 0.274075 0.111358
H26   H     H_    0.066824 0.941208 0.141920 0.131723
H27   H     H_    0.999340 0.527219 0.281747 0.117219
H28   H     H_    0.175276 0.554120 0.326946 0.098531
H29   H     H_    0.160632 0.409216 0.380276 0.113393
H30   H     H_    0.968360 0.233042 0.387460 0.103394
H31   H     H_    0.792117 0.199924 0.340625 0.120808
H32   H     H_    0.382888 0.457067 0.276153 0.223692
H33   H     H_    0.360974 0.547433 0.315381 0.205032
H34   H     H_    0.823913 0.978938 0.139768 0.126347
H35   H     H_    0.026026 0.476491 0.811086 0.227219
H36   H     H_    0.056235 0.565184 0.767467 0.237987
H37   H     H_    0.550556 0.130506 0.922600 0.100683
H38   H     H_    0.380900 0.031788 0.974439 0.107945
H39   H     H_    0.217102 0.077517 0.974786 0.118706
H40   H     H_    0.223489 0.223439 0.923443 0.107895
H41   H     H_    0.392511 0.322904 0.871365 0.114171
H42   H     H_    0.818553 0.020473 0.377523 0.126266
H43   H     H_    0.908012 0.086176 0.216732 0.100969
H44   H     H_    0.914701 0.095368 0.304764 0.109654
H45   H     H_    0.541694 0.625198 0.131439 0.127458
H46   H     H_    0.451357 0.540376 0.205338 0.098810
N1    N     N_3   0.426111 0.530150 0.301181 -0.638867
N2    N     N_3   0.996442 0.525430 0.794183 -0.638572
O1    O     O_R   0.296680 0.802170 0.437540 -0.522045
O2    O     O_R   0.637200 0.461990 0.052510 -0.510847
O3    O     O_R   0.664790 0.681920 0.057970 -0.502912
O4    O     O_R   0.525380 0.838530 0.443500 -0.506596
O5    O     O_R   0.815840 0.852920 0.961840 -0.509367
O6    O     O_R   0.012100 0.822630 0.963670 -0.501905
O7    O     O_R   0.037010 0.668460 0.953040 -0.511776
O8    O     O_R   0.813390 0.478970 0.949660 -0.512519
O9    O     O_R   0.632250 0.456930 0.945520 -0.497962
O10   O     O_R   0.660200 0.677230 0.958780 -0.495031
O11   O     O_3   0.830870 0.661990 0.006950 -0.243097
O12   O     O_R   0.662610 0.183990 0.557860 -0.496854
O13   O     O_R   0.702130 0.995190 0.446810 -0.521775
O14   O     O_R   0.661770 0.181390 0.458760 -0.496680
O15   O     O_R   0.499820 0.198480 0.455280 -0.505628
O16   O     O_R   0.311660 0.976250 0.449080 -0.498918
O17   O     O_R   0.297580 0.804960 0.544440 -0.502218
O18   O     O_R   0.526220 0.841130 0.542590 -0.494605
O19   O     O_R   0.703030 0.997990 0.553710 -0.505793
O20   O     O_R   0.500730 0.201280 0.562180 -0.518443
O21   O     O_R   0.312500 0.978850 0.548170 -0.501222
O22   O     O_3   0.499990 0.999990 0.500010 -0.249129
O23   O     O_R   0.820790 0.857990 0.068830 -0.524191
O24   O     O_R   0.016700 0.827330 0.062850 -0.508968
O25   O     O_R   0.041970 0.673520 0.060040 -0.515055
O26   O     O_R   0.817980 0.483660 0.048840 -0.493091

loop_
_geom_bond_atom_site_label_1
_geom_bond_atom_site_label_2
_ccdc_geom_bond_type
C47   H6    S    
C66   C68   A    
Cr6   O9    S    
C3    H39   S    
C101  C102  A    
C32   H3    S    
C7    O15   A    
C18   C21   A    
C89   O6    A    
C95   C96   A    
C51   C61   A    
Cr3   O22   S    
C80   C84   S    
C87   O26   A    
C97   C98   A    
C57   C58   A    
C36   H46   S    
C96   H28   S    
Cr6   O3    S    
C31   O19   A    
C77   C78   A    
C37   C79   A    
C101  H37   S    
Cr5   O25   S    
C77   C82   A    
C91   H2    S    
Cr3   O16   S    
C35   N1    S    
Cr5   O7    S    
C16   H12   S    
C38   C39   A    
C78   C80   A    
Cr1   O4    S    
Cr4   O5    S    
Cr6   O2    S    
Cr4   O23   S    
C11   C86   S    
C64   H13   S    
C4    H40   S    
C55   C62   S    
C12   C22   A    
Cr1   O17   S    
C5    H41   S    
C56   C57   A    
C88   O3    A    
Cr4   O24   S    
C69   C71   S    
C55   O17   A    
C33   C35   A    
C46   C47   A    
C85   C93   S    
C44   C53   A    
C50   C90   S    
Cr2   O22   S    
C35   C36   A    
H33   N1    S    
C16   C17   A    
Cr3   O20   S    
C54   H8    S    
C8    H24   S    
C86   O25   A    
C32   C41   A    
C15   H11   S    
C93   O5    A    
C24   C28   A    
C75   C80   A    
C79   C91   A    
C44   C47   A    
C68   C72   S    
C37   C70   S    
C76   H17   S    
C55   O21   A    
C99   H31   S    
C42   C44   A    
C15   C48   A    
C78   H19   S    
C97   H29   S    
C52   C54   A    
C17   C18   A    
Cr2   O19   S    
C54   C56   A    
C25   C29   A    
Cr5   O11   S    
C45   C58   A    
Cr5   O26   S    
C30   C40   A    
C34   C39   A    
C19   O1    A    
C14   C20   A    
C19   C22   S    
C19   O16   A    
C79   C94   S    
C12   H23   S    
C76   C82   A    
C71   C73   T    
C63   H10   S    
C8    C9    A    
C57   C60   A    
C6    C8    A    
C43   O12   A    
C48   C91   A    
Cr1   O18   S    
C24   C34   A    
C31   C74   S    
C51   C52   A    
C90   O8    A    
H36   N2    S    
C92   H22   S    
C75   C76   A    
C29   C30   A    
Cr2   O12   S    
Cr3   O21   S    
C43   O20   A    
C42   H5    S    
C5    C100  A    
C45   C49   A    
C23   C24   A    
C96   C97   A    
C95   H27   S    
C33   C34   A    
C62   C72   T    
C26   H20   S    
C64   C69   A    
C12   C13   A    
Cr4   O11   S    
C2    C92   A    
C42   C61   A    
C81   C87   S    
C49   H4    S    
C3    C102  A    
C1    C41   S    
C83   C85   T    
C23   H42   S    
C98   H30   S    
C93   O10   A    
C49   C50   A    
C90   O9    A    
C40   H45   S    
C13   C16   A    
C30   C88   S    
C3    C4    A    
C21   H26   S    
C46   N2    S    
C52   C53   A    
C43   C61   S    
C48   C59   S    
Cr2   O14   S    
Cr6   O10   S    
C63   C68   A    
C27   H43   S    
C65   H14   S    
Cr3   O15   S    
Cr6   O11   S    
C1    O4    A    
Cr1   O1    S    
C59   C81   T    
C74   C84   T    
C4    C5    A    
C60   C100  S    
C17   H1    S    
C6    C10   A    
C53   C58   A    
C15   C26   A    
C26   C37   A    
C28   H44   S    
C25   C27   A    
C6    C20   A    
C88   O23   A    
C23   C41   A    
C87   O2    A    
Cr1   O22   S    
C50   C60   A    
C32   C33   A    
C67   C70   T    
C36   C38   A    
C86   O24   A    
C10   H21   S    
C73   C89   S    
C65   C66   A    
C25   C39   A    
C38   C40   A    
H35   N2    S    
C94   C99   A    
C65   C69   A    
C29   H34   S    
C1    O13   A    
C100  C101  A    
C51   H9    S    
C56   H7    S    
C11   C21   A    
C18   C20   A    
Cr4   O6    S    
C94   C95   A    
C2    C14   A    
C10   C11   A    
H32   N1    S    
C7    C67   S    
C63   C64   A    
C45   C46   A    
Cr5   O8    S    
C98   C99   A    
C7    O14   A    
C75   H16   S    
C27   C28   A    
C22   C92   A    
C66   H15   S    
C82   C83   S    
C13   C14   A    
C2    C9    A    
C89   O7    A    
C102  H38   S    
C77   H18   S    
Cr2   O13   S    
C31   O18   A    
C9    H25   S    
