data_mof_unit_15947.cif
_audit_creation_date              2013-03-05T16:35:37-0500
_audit_creation_method            fapswitch 2.2
_symmetry_space_group_name_H-M    P1
_symmetry_Int_Tables_number       1
_space_group_crystal_system       triclinic
_cell_length_a                    7.772971
_cell_length_b                    9.085105
_cell_length_c                    17.309007
_cell_angle_alpha                 89.753161
_cell_angle_beta                  84.669369
_cell_angle_gamma                 90.008418
_cell_volume                      1217.03406527

loop_
_atom_site_label
_atom_site_type_symbol
_atom_site_description
_atom_site_fract_x
_atom_site_fract_y
_atom_site_fract_z
_atom_type_partial_charge
O1    O     O_R   0.357240 0.711600 0.500000 -0.580049
O2    O     O_R   0.642760 0.288400 0.500000 -0.573398
O3    O     O_R   0.642760 0.711600 0.500000 -0.581431
O4    O     O_R   0.357240 0.288400 0.500000 -0.576503
C1    C     C_R   0.499874 0.779991 0.500508 0.839947
C2    C     C_R   0.499894 0.219983 0.500355 0.850269
O5    O     O_R   0.340660 0.500000 0.613590 -0.590877
O6    O     O_R   0.659340 0.500000 0.386410 -0.584038
O7    O     O_R   0.626230 0.500000 0.613600 -0.591705
O8    O     O_R   0.373770 0.500000 0.386400 -0.578015
C3    C     C_R   0.475000 0.498323 0.651002 0.801752
C4    C     C_R   0.524538 0.504894 0.349776 0.802701
Cu1   Cu    Cu3+1 0.330920 0.500000 0.500000 0.987277
Cu2   Cu    Cu3+1 0.669080 0.500000 0.500000 0.983707
H1    H     H_    0.422780 0.280686 0.123494 0.171795
H2    H     H_    0.719867 0.379522 0.872881 0.189354
N1    N     N_1   0.923170 0.500000 0.500010 -0.061284
N2    N     N_1   0.076830 0.500000 0.499990 -0.056745
C5    C     C_R   0.457673 0.483584 0.736498 -0.095754
C6    C     C_R   0.544540 0.501575 0.265374 -0.072506
C7    C     C_R   0.606354 0.439622 0.770619 -0.235613
C8    C     C_R   0.464604 0.386348 0.229385 -0.216209
C9    C     C_R   0.602716 0.416636 0.849607 -0.177015
C10   C     C_R   0.484237 0.372652 0.149542 -0.167741
C11   C     C_R   0.451213 0.440864 0.897824 0.052479
C12   C     C_R   0.582081 0.475751 0.103862 0.044146
C13   C     C_R   0.298704 0.483084 0.865575 0.355425
C14   C     C_R   0.667354 0.590848 0.139258 0.354380
C15   C     C_R   0.299145 0.504083 0.784360 -0.026272
C16   C     C_R   0.647878 0.605790 0.220857 -0.029703
C17   C     C_2   0.452940 0.427977 0.982623 -0.156703
C18   C     C_2   0.591324 0.466481 0.018757 -0.117847
C19   C     C_1   0.499639 0.934586 0.500958 -0.180183
C20   C     C_1   0.499649 0.065354 0.500896 -0.186183
H3    H     H_    0.727275 0.419868 0.735836 0.172588
H4    H     H_    0.388336 0.305162 0.263508 0.156150
H5    H     H_    0.706631 0.507752 0.985465 0.228639
H6    H     H_    0.333068 0.400857 0.016868 0.208828
N3    N     N_R   0.145242 0.511006 0.916006 0.092390
O9    O     O_R   0.055231 0.401788 0.947301 -0.390157
O10   O     O_R   0.089340 0.645042 0.926436 -0.304150
N4    N     N_R   0.766673 0.696200 0.092030 0.106563
O11   O     O_R   0.690330 0.786238 0.047587 -0.327520
O12   O     O_R   0.934531 0.693830 0.088655 -0.306088
C21   C     C_3   0.723084 0.739386 0.258678 -0.384091
C22   C     C_3   0.583949 0.857039 0.277144 -0.352261
C23   C     C_3   0.662267 0.999223 0.304963 -0.801939
H7    H     H_    0.733732 0.977399 0.356472 0.256900
H8    H     H_    0.752166 0.047943 0.258085 0.269342
H9    H     H_    0.557869 0.079860 0.321072 0.232050
H10   H     H_    0.517951 0.881864 0.224276 0.251460
H11   H     H_    0.485816 0.815755 0.322886 0.210798
H12   H     H_    0.782410 0.707720 0.312106 0.213734
H13   H     H_    0.830302 0.788835 0.220511 0.250361
C24   C     C_3   0.130240 0.546108 0.751441 -0.356256
C25   C     C_3   0.128851 0.708878 0.727236 -0.312492
C26   C     C_3   0.961888 0.748115 0.691924 -0.779197
H14   H     H_    0.948916 0.681321 0.639214 0.263687
H15   H     H_    0.848375 0.727857 0.734548 0.259690
H16   H     H_    0.963901 0.866340 0.675334 0.239617
H17   H     H_    0.140185 0.778981 0.778987 0.252194
H18   H     H_    0.240023 0.734532 0.684331 0.218153
H19   H     H_    0.103481 0.472112 0.703289 0.209620
H20   H     H_    0.017275 0.527036 0.794349 0.223931

loop_
_geom_bond_atom_site_label_1
_geom_bond_atom_site_label_2
_geom_bond_distance
_ccdc_geom_bond_type
C25   H17   1.111463 S    
C11   C17   1.473261 S    
O7    Cu2   1.963566 S    
C12   C18   1.470923 S    
C7    H3    1.083498 S    
C13   C15   1.417497 A    
C24   H19   1.107638 S    
C8    H4    1.084141 S    
C16   C21   1.523539 S    
C12   C14   1.410279 A    
C17   C18   1.340654 D    
C17   H6    1.084565 S    
O6    C4    1.274831 A    
C24   H20   1.109186 S    
C4    C6    1.455169 S    
C24   C25   1.535567 S    
C14   C16   1.413573 A    
C19   C20   1.188041 T    
C21   H12   1.107995 S    
C23   H8    1.110885 S    
C6    C16   1.419106 A    
Cu1   Cu2   2.628508 S    
C25   C26   1.526626 S    
O5    C3    1.278880 A    
O7    C3    1.288286 A    
Cu2   N1    1.975049 S    
C3    C5    1.478935 S    
C26   H14   1.110249 S    
O2    C2    1.272040 A    
O3    Cu2   1.933294 S    
N4    O12   1.300813 A    
Cu1   N2    1.975050 S    
O1    C1    1.271610 A    
O8    C4    1.280205 A    
C14   N4    1.433915 S    
H1    C10   1.082916 S    
C5    C7    1.403170 A    
C10   C12   1.400938 A    
C21   H13   1.108079 S    
N1    N2    1.194363 T    
C23   H9    1.110331 S    
C8    C10   1.382389 A    
C9    C11   1.396727 A    
C7    C9    1.379858 A    
O2    Cu2   1.933235 S    
C25   H18   1.109852 S    
C26   H15   1.111092 S    
O4    C2    1.271753 A    
C11   C13   1.408981 A    
N4    O11   1.300997 A    
C6    C8    1.395477 A    
N3    O9    1.300868 A    
C5    C15   1.432181 A    
C23   H7    1.110554 S    
C22   H11   1.111090 S    
O5    Cu1   1.974603 S    
O1    Cu1   1.933234 S    
H2    C9    1.082725 S    
N3    O10   1.300673 A    
O4    Cu1   1.933294 S    
C22   C23   1.526657 S    
C26   H16   1.110348 S    
O6    Cu2   1.974603 S    
C18   H5    1.085379 S    
C15   C24   1.526893 S    
C21   C22   1.534071 S    
C22   H10   1.112170 S    
C2    C20   1.404816 S    
C13   N3    1.434491 S    
O3    C1    1.272049 A    
O8    Cu1   1.963567 S    
C1    C19   1.404566 S    
