data_mof_unit_54209.cif
_audit_creation_date              2013-03-05T16:08:05-0500
_audit_creation_method            fapswitch 2.2
_symmetry_space_group_name_H-M    P1
_symmetry_Int_Tables_number       1
_space_group_crystal_system       triclinic
_cell_length_a                    23.162576
_cell_length_b                    11.572674
_cell_length_c                    10.74026
_cell_angle_alpha                 89.994279
_cell_angle_beta                  89.986614
_cell_angle_gamma                 89.014625
_cell_volume                      2878.53244097

loop_
_atom_site_label
_atom_site_type_symbol
_atom_site_description
_atom_site_fract_x
_atom_site_fract_y
_atom_site_fract_z
_atom_type_partial_charge
O1    O     O_R   0.500000 0.334450 0.602530 -0.614480
O2    O     O_R   0.500000 0.665550 0.397470 -0.601243
O3    O     O_R   0.500000 0.665550 0.602530 -0.614336
O4    O     O_R   0.500000 0.334450 0.397470 -0.601144
C1    C     C_R   0.499607 0.281074 0.500012 0.881004
C2    C     C_R   0.500390 0.718927 0.500002 0.880900
O5    O     O_R   0.416150 0.500000 0.602560 -0.599591
O6    O     O_R   0.583850 0.500000 0.397440 -0.600421
O7    O     O_R   0.583850 0.500000 0.602560 -0.599620
O8    O     O_R   0.416150 0.500000 0.397440 -0.600415
C3    C     C_R   0.388849 0.502677 0.499655 0.977077
C4    C     C_R   0.611150 0.497337 0.499630 0.977424
Zn1   Zn    Zn3+2 0.500000 0.500000 0.636920 0.990004
Zn2   Zn    Zn3+2 0.500000 0.500000 0.363080 1.002464
C5    C     C_R   0.875270 0.586853 0.373079 0.636252
C6    C     C_R   0.124796 0.412786 0.373389 0.635916
C7    C     C_R   0.884602 0.384538 0.411484 0.604501
C8    C     C_R   0.115440 0.615255 0.410702 0.605560
N1    N     N_R   0.851545 0.483663 0.405365 -0.324366
N2    N     N_R   0.148512 0.516125 0.405118 -0.323913
C9    C     C_R   0.943756 0.387406 0.383624 -0.176089
C10   C     C_R   0.056299 0.612221 0.382859 -0.176172
C11   C     C_R   0.935419 0.597936 0.369619 -0.156748
C12   C     C_R   0.064646 0.401659 0.370098 -0.157461
C13   C     C_R   0.969814 0.496236 0.374340 -0.156812
C14   C     C_R   0.030243 0.503357 0.374287 -0.156482
C15   C     C_R   0.977613 0.285568 0.369484 0.396221
C16   C     C_R   0.022457 0.713970 0.368047 0.396178
C17   C     C_R   0.961785 0.707145 0.365608 0.364859
C18   C     C_R   0.038280 0.292431 0.366766 0.363560
O9    O     O_2   0.840490 0.678198 0.346544 -0.534192
O10   O     O_2   0.159584 0.321339 0.347302 -0.534644
O11   O     O_2   0.860829 0.284858 0.449251 -0.513569
O12   O     O_2   0.139174 0.715115 0.447989 -0.513439
C19   C     C_R   0.245881 0.596712 0.380354 0.402560
C20   C     C_R   0.754188 0.403024 0.380707 0.402844
C21   C     C_R   0.230731 0.441373 0.529529 0.363361
C22   C     C_R   0.769227 0.558950 0.529196 0.363313
C23   C     C_R   0.302610 0.604230 0.421367 0.331179
C24   C     C_R   0.697427 0.395652 0.421619 0.331312
C25   C     C_R   0.290597 0.429790 0.545685 0.308689
C26   C     C_R   0.709361 0.570487 0.545284 0.309569
C27   C     C_R   0.326437 0.514458 0.494643 -0.436742
C28   C     C_R   0.673563 0.485608 0.494582 -0.437074
C29   C     C_R   0.208641 0.518347 0.438260 -0.097811
C30   C     C_R   0.791391 0.481583 0.438378 -0.098815
C31   C     C_1   0.499472 0.160996 0.500068 -0.212116
C32   C     C_1   0.500507 0.839005 0.500041 -0.212154
C33   C     C_1   0.499727 0.059132 0.500099 -0.012885
C34   C     C_1   0.500242 0.940869 0.500085 -0.012888
N3    N     N_1   0.500000 0.500000 0.180630 -0.073142
N4    N     N_1   0.500000 0.500000 0.819370 -0.075146
C35   C     C_1   0.500000 0.500000 0.069658 0.047282
C36   C     C_1   0.500000 0.500000 0.930343 0.046858
O13   O     O_3   0.951501 0.178819 0.363501 -0.618407
C37   C     C_3   0.954555 0.134658 0.240561 0.085644
H1    H     H_    0.950441 0.039445 0.246592 0.174578
H2    H     H_    0.996634 0.150715 0.193865 0.149260
C38   C     C_3   0.904824 0.182132 0.160568 -0.339174
H3    H     H_    0.863100 0.163442 0.206809 0.269671
H4    H     H_    0.908666 0.277214 0.150598 0.207782
C39   C     C_3   0.905608 0.127608 0.031116 -0.985365
H5    H     H_    0.947248 0.144684 0.983765 0.265554
H6    H     H_    0.870130 0.165282 0.973848 0.275333
H7    H     H_    0.899611 0.032782 0.037994 0.274364
O14   O     O_3   0.048604 0.820607 0.360825 -0.618907
C40   C     C_3   0.045633 0.863474 0.237336 0.083348
H8    H     H_    0.050074 0.958685 0.242133 0.173339
H9    H     H_    0.003451 0.847484 0.191081 0.149327
C41   C     C_3   0.095181 0.814513 0.157759 -0.339114
H10   H     H_    0.136976 0.833137 0.203676 0.270087
H11   H     H_    0.091029 0.719399 0.148940 0.207332
C42   C     C_3   0.094559 0.867675 0.027647 -0.984933
H12   H     H_    0.052865 0.850596 0.980565 0.265687
H13   H     H_    0.129938 0.828965 0.970836 0.275267
H14   H     H_    0.100846 0.962480 0.033329 0.274008
O15   O     O_3   0.928296 0.807436 0.359264 -0.614902
C43   C     C_3   0.927347 0.862431 0.476864 0.129405
H15   H     H_    0.966785 0.914839 0.487997 0.166441
H16   H     H_    0.924924 0.799273 0.555161 0.116991
C44   C     C_3   0.874210 0.942361 0.484269 -0.268671
H17   H     H_    0.873439 0.002054 0.403330 0.259187
H18   H     H_    0.834657 0.889629 0.480671 0.245639
C45   C     C_3   0.873786 0.013227 0.604062 -0.911122
H19   H     H_    0.872933 0.955292 0.686488 0.242591
H20   H     H_    0.834793 0.070325 0.606083 0.283277
H21   H     H_    0.912634 0.068063 0.608706 0.283656
O16   O     O_3   0.071724 0.192092 0.360657 -0.614556
C46   C     C_3   0.073759 0.139018 0.479207 0.128812
H22   H     H_    0.033753 0.089235 0.494568 0.162529
H23   H     H_    0.078413 0.203402 0.555738 0.121149
C47   C     C_3   0.125846 0.056186 0.484252 -0.267053
H24   H     H_    0.124521 0.995381 0.404424 0.261777
H25   H     H_    0.166084 0.106474 0.476758 0.244199
C48   C     C_3   0.127110 0.987049 0.605213 -0.913266
H26   H     H_    0.129996 0.046028 0.686479 0.243355
H27   H     H_    0.165339 0.927866 0.605503 0.284369
H28   H     H_    0.087604 0.934483 0.613568 0.280552
O17   O     O_3   0.226832 0.671302 0.287991 -0.587370
C49   C     C_3   0.224464 0.611651 0.173037 0.105399
H29   H     H_    0.178926 0.588238 0.154519 0.140493
H30   H     H_    0.251442 0.530544 0.170179 0.125544
C50   C     C_3   0.245718 0.691396 0.069811 -0.294095
H31   H     H_    0.221825 0.775285 0.073838 0.230596
H32   H     H_    0.292294 0.708551 0.084551 0.241854
C51   C     C_3   0.237623 0.637932 0.941246 -1.009807
H33   H     H_    0.261685 0.554309 0.934728 0.272158
H34   H     H_    0.254288 0.697253 0.868871 0.274785
H35   H     H_    0.191101 0.623608 0.923077 0.266314
O18   O     O_3   0.773275 0.328157 0.288627 -0.587352
C52   C     C_3   0.776198 0.387729 0.173683 0.106090
H36   H     H_    0.821832 0.410996 0.156007 0.140119
H37   H     H_    0.749275 0.468888 0.170271 0.125656
C53   C     C_3   0.755333 0.307998 0.070114 -0.294669
H38   H     H_    0.779089 0.223995 0.074774 0.230688
H39   H     H_    0.708664 0.291104 0.083878 0.241486
C54   C     C_3   0.764121 0.361293 0.941668 -1.009663
H40   H     H_    0.740128 0.444946 0.934517 0.271763
H41   H     H_    0.747790 0.301928 0.868996 0.274792
H42   H     H_    0.810743 0.375527 0.924527 0.266804
O19   O     O_3   0.194158 0.368586 0.592631 -0.602001
C55   C     C_3   0.181886 0.418005 0.710025 0.104702
H43   H     H_    0.163585 0.507362 0.699690 0.131594
H44   H     H_    0.221848 0.420552 0.767609 0.173708
C56   C     C_3   0.137494 0.344295 0.777111 -0.333127
H45   H     H_    0.096901 0.343611 0.722003 0.210522
H46   H     H_    0.154311 0.254052 0.785154 0.232104
C57   C     C_3   0.124271 0.391191 0.907113 -0.963657
H47   H     H_    0.164141 0.391922 0.964592 0.273398
H48   H     H_    0.092239 0.335307 0.953499 0.271201
H49   H     H_    0.105934 0.480345 0.901032 0.259823
O20   O     O_3   0.805698 0.632196 0.591882 -0.601786
C58   C     C_3   0.818596 0.582610 0.708879 0.104922
H50   H     H_    0.837830 0.494098 0.697766 0.132171
H51   H     H_    0.778748 0.577972 0.766694 0.172000
C59   C     C_3   0.862219 0.657873 0.776236 -0.331454
H52   H     H_    0.902685 0.660867 0.720809 0.210835
H53   H     H_    0.844386 0.747299 0.785186 0.232700
C60   C     C_3   0.876179 0.610586 0.905719 -0.964013
H54   H     H_    0.836437 0.607631 0.963525 0.273437
H55   H     H_    0.907647 0.667564 0.952319 0.271220
H56   H     H_    0.895481 0.522275 0.898716 0.259901
O21   O     O_3   0.334735 0.697789 0.383211 -0.595301
C61   C     C_3   0.347318 0.769015 0.487114 0.110928
H57   H     H_    0.376478 0.837605 0.454066 0.160775
H58   H     H_    0.371513 0.720984 0.560562 0.127381
C62   C     C_3   0.293085 0.827663 0.543499 -0.355843
H59   H     H_    0.270914 0.881038 0.471574 0.256023
H60   H     H_    0.262359 0.761756 0.576705 0.222284
C63   C     C_3   0.308803 0.903146 0.654596 -0.966519
H61   H     H_    0.327513 0.848912 0.730331 0.270917
H62   H     H_    0.269433 0.947866 0.690586 0.270316
H63   H     H_    0.340664 0.969038 0.627228 0.270311
O22   O     O_3   0.665288 0.302101 0.383559 -0.595125
C64   C     C_3   0.652712 0.230924 0.487525 0.110477
H64   H     H_    0.623453 0.162466 0.454619 0.160814
H65   H     H_    0.628632 0.279044 0.561100 0.127391
C65   C     C_3   0.706938 0.172048 0.543619 -0.355420
H66   H     H_    0.729044 0.118755 0.471520 0.256151
H67   H     H_    0.737714 0.237834 0.576845 0.222639
C66   C     C_3   0.691227 0.096386 0.654608 -0.966548
H68   H     H_    0.672558 0.150506 0.730491 0.271081
H69   H     H_    0.730591 0.051544 0.690420 0.270055
H70   H     H_    0.659337 0.030587 0.627173 0.270323
O23   O     O_3   0.312712 0.336968 0.613326 -0.605068
C67   C     C_3   0.337296 0.253143 0.531525 0.121476
H71   H     H_    0.366254 0.195880 0.587398 0.157519
H72   H     H_    0.364950 0.291570 0.458379 0.115220
C68   C     C_3   0.291224 0.178268 0.470295 -0.355793
H73   H     H_    0.269140 0.126691 0.542685 0.238915
H74   H     H_    0.258545 0.233577 0.422825 0.272838
C69   C     C_3   0.318062 0.098034 0.372592 -0.942065
H75   H     H_    0.337412 0.149433 0.296353 0.271579
H76   H     H_    0.284195 0.042766 0.331978 0.277382
H77   H     H_    0.352203 0.042243 0.414810 0.264269
O24   O     O_3   0.687198 0.663452 0.612625 -0.604515
C70   C     C_3   0.662634 0.747056 0.530547 0.121136
H78   H     H_    0.633604 0.804365 0.586209 0.157567
H79   H     H_    0.635063 0.708423 0.457414 0.115224
C71   C     C_3   0.708718 0.821903 0.469256 -0.355631
H80   H     H_    0.730835 0.873406 0.541625 0.238768
H81   H     H_    0.741366 0.766567 0.421685 0.272543
C72   C     C_3   0.681881 0.902259 0.371679 -0.941467
H82   H     H_    0.662467 0.850958 0.295470 0.271533
H83   H     H_    0.715760 0.957489 0.331002 0.277420
H84   H     H_    0.647792 0.958099 0.414044 0.264234

loop_
_geom_bond_atom_site_label_1
_geom_bond_atom_site_label_2
_geom_bond_distance
_ccdc_geom_bond_type
C65   H67   1.110832 S    
O13   C37   1.417216 S    
O23   C67   1.420605 S    
C21   C29   1.414425 A    
C64   H65   1.111234 S    
C48   H26   1.110794 S    
C42   H13   1.109811 S    
C42   H12   1.110964 S    
C19   C23   1.390103 A    
C52   H36   1.111521 S    
C45   H21   1.111098 S    
O3    C2    1.262654 A    
C57   H47   1.111116 S    
C66   H70   1.109846 S    
C53   H38   1.109930 S    
C48   H28   1.111110 S    
C31   C33   1.178758 T    
O15   C43   1.414403 S    
C71   H80   1.110221 S    
O5    C3    1.273585 A    
C1    C31   1.389674 S    
C7    O11   1.349114 S    
C21   C25   1.401645 A    
O1    C1    1.262664 A    
C11   C17   1.413741 A    
C16   C17   1.409126 A    
C62   H60   1.110828 S    
C45   H20   1.110093 S    
C22   C26   1.401431 A    
C54   H41   1.110604 S    
C60   H56   1.110992 S    
C43   H16   1.116157 S    
C51   H33   1.110633 S    
O21   C61   1.420671 S    
C37   H1    1.109503 S    
C68   H73   1.110246 S    
C37   C38   1.531480 S    
O7    Zn1   1.976847 S    
O18   C52   1.416099 S    
C49   H29   1.111522 S    
C39   H6    1.109765 S    
C65   C66   1.526659 S    
C44   H18   1.110158 S    
C5    N1    1.367742 A    
C52   H37   1.119024 S    
C62   H59   1.109591 S    
C69   H76   1.110035 S    
O20   C58   1.411265 S    
C70   H79   1.111212 S    
C63   H63   1.109819 S    
C25   O23   1.387501 S    
C56   C57   1.527123 S    
C20   C30   1.407149 A    
C41   H10   1.110970 S    
C46   H23   1.115950 S    
N2    C29   1.438259 S    
O3    Zn1   1.951100 S    
C71   C72   1.526348 S    
O6    C4    1.266910 A    
C51   H34   1.110587 S    
C5    C11   1.401763 A    
O14   C40   1.417269 S    
C9    C15   1.412523 A    
C38   H3    1.111029 S    
C6    C12   1.401838 A    
C10   C16   1.412297 A    
C64   C65   1.541290 S    
C67   H72   1.111171 S    
C25   C27   1.406195 A    
C24   O22   1.386106 S    
C67   H71   1.110841 S    
O2    C2    1.262798 A    
C26   C28   1.406152 A    
C61   C62   1.541364 S    
C19   O17   1.382323 S    
C47   H25   1.110146 S    
C66   H69   1.110151 S    
N4    C36   1.191878 T    
C44   H17   1.110265 S    
C38   H4    1.110623 S    
C40   H8    1.109594 S    
C20   C24   1.390118 A    
C62   C63   1.526674 S    
C45   H19   1.110835 S    
C61   H58   1.111180 S    
O8    Zn2   1.976849 S    
C54   H42   1.110499 S    
C43   H15   1.111640 S    
C61   H57   1.109291 S    
C23   C27   1.408402 A    
C13   C14   1.403524 A    
C35   C36   1.496283 S    
C47   C48   1.525718 S    
C7    C9    1.403318 A    
N3    C35   1.191867 T    
C59   C60   1.527079 S    
C65   H66   1.109606 S    
C16   O14   1.386155 S    
C72   H82   1.110885 S    
C39   H5    1.110966 S    
C58   C59   1.527647 S    
Zn1   N4    1.959559 S    
C53   H39   1.111654 S    
Zn2   N3    1.959560 S    
C24   C28   1.408387 A    
C6    N2    1.367781 A    
C70   C71   1.534387 S    
C41   C42   1.526778 S    
C49   H30   1.119040 S    
O22   C64   1.420598 S    
C50   H32   1.111653 S    
C46   C47   1.528936 S    
C3    C27   1.450717 S    
C8    O12   1.349128 S    
O19   C55   1.411379 S    
C2    C32   1.389673 S    
C21   O19   1.382265 S    
C59   H53   1.111831 S    
O24   C70   1.420582 S    
C23   O21   1.386143 S    
C33   C34   1.368460 S    
C20   O18   1.382385 S    
C56   H45   1.111282 S    
C42   H14   1.110942 S    
C63   H62   1.110158 S    
C72   H84   1.109244 S    
O1    Zn1   1.951173 S    
C52   C53   1.529071 S    
C18   O16   1.386297 S    
C19   C29   1.407058 A    
C57   H49   1.110891 S    
C64   H64   1.109277 S    
C44   C45   1.525764 S    
C69   H75   1.110887 S    
C56   H46   1.111684 S    
C68   H74   1.107258 S    
C9    C13   1.409461 A    
C48   H27   1.110094 S    
C38   C39   1.526860 S    
O6    Zn2   1.977016 S    
C71   H81   1.107347 S    
C39   H7    1.110959 S    
C8    C10   1.403214 A    
C12   C14   1.410626 A    
C59   H52   1.111294 S    
C57   H48   1.110500 S    
N1    C30   1.438240 S    
C60   H54   1.111222 S    
C69   H77   1.109226 S    
C5    O9    1.348494 S    
C6    O10   1.348463 S    
C15   O13   1.386294 S    
O17   C49   1.416118 S    
C40   C41   1.531632 S    
C55   C56   1.527658 S    
C72   H83   1.110050 S    
C46   H22   1.111790 S    
C4    C28   1.450677 S    
C26   O24   1.387469 S    
C54   H40   1.110609 S    
C60   H55   1.110551 S    
C43   C44   1.528931 S    
C58   H50   1.116359 S    
C66   H68   1.110904 S    
O4    C1    1.262787 A    
C32   C34   1.178756 T    
C47   H24   1.109985 S    
C7    N1    1.369805 A    
C37   H2    1.114451 S    
C50   C51   1.526085 S    
C8    N2    1.369755 A    
C49   C50   1.529163 S    
O4    Zn2   1.951100 S    
O2    Zn2   1.951172 S    
O7    C4    1.273559 A    
C12   C18   1.413747 A    
C22   C30   1.414478 A    
C53   C54   1.526099 S    
O8    C3    1.266905 A    
O5    Zn1   1.977018 S    
C11   C13   1.410748 A    
C17   O15   1.386522 S    
O16   C46   1.414044 S    
C67   C68   1.534390 S    
C70   H78   1.110838 S    
C10   C14   1.409312 A    
C50   H31   1.110021 S    
C58   H51   1.114339 S    
C63   H61   1.110898 S    
C41   H11   1.110621 S    
C68   C69   1.526361 S    
C40   H9    1.114509 S    
C55   H43   1.116371 S    
C55   H44   1.114174 S    
C22   O20   1.382186 S    
C15   C18   1.409086 A    
C51   H35   1.110390 S    
