data_mof_unit_51368.cif
_audit_creation_date              2012-12-11T15:33:38-0500
_audit_creation_method            fapswitch 2.2
_symmetry_space_group_name_H-M    P1
_symmetry_Int_Tables_number       1
_space_group_crystal_system       triclinic
_cell_length_a                    27.603783
_cell_length_b                    7.177472
_cell_length_c                    22.337804
_cell_angle_alpha                 90.000183
_cell_angle_beta                  101.298833
_cell_angle_gamma                 90.000021
_cell_volume                      4339.91012626

loop_
_atom_site_label
_atom_site_type_symbol
_atom_type_description
_atom_site_fract_x
_atom_site_fract_y
_atom_site_fract_z
_atom_type_partial_charge
O1    O     O_R   0.207310 0.594030 0.676830 -0.531576
O2    O     O_R   0.792690 0.405970 0.323170 -0.531725
O3    O     O_R   0.292690 0.094030 0.823170 -0.531577
O4    O     O_R   0.707310 0.905970 0.176830 -0.531725
O5    O     O_R   0.197320 0.262370 0.795700 -0.498501
O6    O     O_R   0.802680 0.737630 0.204300 -0.492976
O7    O     O_R   0.302680 0.762370 0.704300 -0.498501
O8    O     O_R   0.697320 0.237630 0.295700 -0.492976
C1    C     C_R   0.183089 0.433503 0.810029 0.751109
C2    C     C_R   0.816807 0.566504 0.189830 0.755304
C3    C     C_R   0.316911 0.933503 0.689970 0.751108
C4    C     C_R   0.683193 0.066504 0.310170 0.755304
O9    O     O_R   0.201410 0.264250 0.675590 -0.542667
O10   O     O_R   0.798590 0.735750 0.324410 -0.542454
O11   O     O_R   0.298590 0.764250 0.824410 -0.542667
O12   O     O_R   0.701410 0.235750 0.175590 -0.542453
O13   O     O_R   0.296810 0.094940 0.702210 -0.516096
O14   O     O_R   0.703190 0.905060 0.297790 -0.519731
O15   O     O_R   0.203190 0.594940 0.797790 -0.516097
O16   O     O_R   0.796810 0.405060 0.202210 -0.519731
C5    C     C_R   0.189524 0.432044 0.652686 0.678723
C6    C     C_R   0.810473 0.567959 0.347320 0.677907
C7    C     C_R   0.310476 0.932045 0.847314 0.678724
C8    C     C_R   0.689527 0.067959 0.152679 0.677906
O17   O     O_3   0.281300 0.427390 0.758870 -0.352784
O18   O     O_3   0.718700 0.572610 0.241130 -0.352381
O19   O     O_3   0.218700 0.927390 0.741130 -0.352784
O20   O     O_3   0.781300 0.072610 0.258870 -0.352381
V1    V     V_3+5 0.244190 0.152150 0.748350 1.622642
V2    V     V_3+5 0.755810 0.847850 0.251650 1.624488
V3    V     V_3+5 0.255810 0.652150 0.751650 1.622643
V4    V     V_3+5 0.744190 0.347850 0.248350 1.624488
C9    C     C_R   0.654510 0.067410 0.092135 -0.133842
C10   C     C_R   0.345493 0.932609 0.907853 -0.135774
C11   C     C_R   0.845490 0.567412 0.407865 -0.133841
C12   C     C_R   0.154507 0.432607 0.592147 -0.135774
C13   C     C_R   0.635201 0.152383 0.983610 -0.049693
C14   C     C_R   0.364784 0.847796 0.016388 -0.043777
C15   C     C_R   0.864799 0.652394 0.516389 -0.049692
C16   C     C_R   0.135215 0.347784 0.483612 -0.043777
C17   C     C_R   0.669466 0.137921 0.039622 -0.089210
C18   C     C_R   0.330519 0.862307 0.960379 -0.086421
C19   C     C_R   0.830535 0.637929 0.460378 -0.089208
C20   C     C_R   0.169481 0.362299 0.539621 -0.086420
C21   C     C_R   0.604987 0.013002 0.088102 -0.174856
C22   C     C_R   0.395024 0.986842 0.911870 -0.174842
C23   C     C_R   0.895012 0.513000 0.411898 -0.174855
C24   C     C_R   0.104976 0.486843 0.588130 -0.174842
C25   C     C_R   0.569032 0.030774 0.032805 0.090744
C26   C     C_R   0.430976 0.969102 0.967170 0.090136
C27   C     C_R   0.930968 0.530775 0.467195 0.090744
C28   C     C_R   0.069024 0.469100 0.532830 0.090136
C29   C     C_R   0.585046 0.101151 0.980456 0.039397
C30   C     C_R   0.414953 0.898835 0.019528 0.042748
C31   C     C_R   0.914954 0.601159 0.519544 0.039398
C32   C     C_R   0.085047 0.398827 0.480472 0.042748
C33   C     C_R   0.517400 0.985862 0.028127 0.064019
C34   C     C_R   0.482609 0.013967 0.971845 0.060277
C35   C     C_R   0.982600 0.485860 0.471873 0.064019
C36   C     C_R   0.017391 0.513969 0.528155 0.060277
C37   C     C_R   0.500632 0.085862 0.921958 -0.143155
C38   C     C_R   0.499374 0.913978 0.078013 -0.150818
C39   C     C_R   0.999368 0.585870 0.578041 -0.143156
C40   C     C_R   0.000625 0.413970 0.421987 -0.150818
C41   C     C_R   0.550147 0.127418 0.926128 -0.167507
C42   C     C_R   0.449854 0.872506 0.073850 -0.176093
C43   C     C_R   0.949854 0.627429 0.573871 -0.167508
C44   C     C_R   0.050145 0.372495 0.426150 -0.176093
H1    H     H_    0.560319 0.184977 0.885612 0.135144
H2    H     H_    0.439678 0.814981 0.114369 0.124878
H3    H     H_    0.939682 0.684993 0.614387 0.135145
H4    H     H_    0.060321 0.314964 0.385632 0.124878
H5    H     H_    0.404495 0.035550 0.870061 0.121203
H6    H     H_    0.595526 0.964133 0.129898 0.117952
H7    H     H_    0.095505 0.535555 0.629939 0.121203
H8    H     H_    0.904474 0.464127 0.370103 0.117952
H9    H     H_    0.477274 0.114245 0.878421 0.145385
H10   H     H_    0.522733 0.885590 0.121550 0.137971
H11   H     H_    0.022727 0.614256 0.621578 0.145385
H12   H     H_    0.977266 0.385579 0.378451 0.137971
C45   C     C_R   0.636010 0.895596 0.381744 0.359267
C46   C     C_R   0.364571 0.104681 0.619038 0.368700
C47   C     C_R   0.863990 0.395595 0.118256 0.359266
C48   C     C_R   0.135429 0.604682 0.880962 0.368699
C49   C     C_R   0.601836 0.895553 0.420143 -0.153403
C50   C     C_R   0.399052 0.105404 0.581100 -0.090523
C51   C     C_R   0.898164 0.395552 0.079857 -0.153403
C52   C     C_R   0.100948 0.605405 0.918899 -0.090523
H13   H     H_    0.598585 0.771718 0.446888 0.207894
H14   H     H_    0.402175 0.228961 0.554164 0.180947
H15   H     H_    0.901415 0.271717 0.053113 0.207894
H16   H     H_    0.097824 0.728963 0.945836 0.180947
C53   C     C_R   0.570886 0.047302 0.423577 -0.122031
C54   C     C_R   0.430449 0.954762 0.578320 -0.178786
C55   C     C_R   0.929114 0.547301 0.076423 -0.122031
C56   C     C_R   0.069550 0.454762 0.921679 -0.178786
C57   C     C_R   0.573346 0.203355 0.385139 -0.067609
C58   C     C_R   0.428523 0.799644 0.617216 -0.100945
C59   C     C_R   0.926654 0.703355 0.114861 -0.067609
C60   C     C_R   0.071477 0.299644 0.882784 -0.100944
C61   C     C_R   0.606822 0.201212 0.344023 0.314929
C62   C     C_R   0.394085 0.799672 0.657421 0.399150
C63   C     C_R   0.893178 0.701212 0.155978 0.314929
C64   C     C_R   0.105915 0.299672 0.842579 0.399151
C65   C     C_R   0.641733 0.054198 0.345562 -0.201087
C66   C     C_R   0.358765 0.945965 0.655132 -0.246259
C67   C     C_R   0.858267 0.554197 0.154438 -0.201086
C68   C     C_R   0.141235 0.445966 0.844868 -0.246259
N1    N     N_R   0.486907 0.086695 0.446627 -0.245583
N2    N     N_R   0.514320 0.914265 0.554974 -0.257767
N3    N     N_R   0.013093 0.586696 0.053373 -0.245583
N4    N     N_R   0.985680 0.414264 0.945026 -0.257767
N5    N     N_R   0.454058 0.061148 0.482444 -0.253587
N6    N     N_R   0.547176 0.939958 0.519190 -0.238899
N7    N     N_R   0.045942 0.561149 0.017556 -0.253587
N8    N     N_R   0.952824 0.439957 0.980810 -0.238899
C69   C     C_R   0.466906 0.973187 0.537225 0.530896
C70   C     C_R   0.534357 0.028282 0.464482 0.616693
C71   C     C_R   0.033094 0.473187 0.962775 0.530897
C72   C     C_R   0.965643 0.528282 0.035518 0.616693
C73   C     C_2   0.278686 0.802910 0.956341 0.537389
H17   H     H_    0.261841 0.709466 0.920182 0.062530
O21   O     O_2   0.254614 0.858294 0.993193 -0.472510
C74   C     C_2   0.721277 0.197590 0.043668 0.547108
H18   H     H_    0.738094 0.291032 0.079843 0.060361
O22   O     O_2   0.745362 0.142454 0.006796 -0.464616
C75   C     C_2   0.221313 0.302899 0.543660 0.537389
H19   H     H_    0.238158 0.209458 0.579819 0.062529
O23   O     O_2   0.245385 0.358279 0.506806 -0.472510
C76   C     C_2   0.778724 0.697601 0.456331 0.547107
H20   H     H_    0.761906 0.791040 0.420156 0.060361
O24   O     O_2   0.754639 0.642470 0.493205 -0.464616
C77   C     C_2   0.651371 0.228856 0.928666 0.491588
H21   H     H_    0.641625 0.157502 0.885151 0.062951
O25   O     O_2   0.674653 0.374311 0.931394 -0.489228
C78   C     C_2   0.348598 0.771512 0.071347 0.477798
H22   H     H_    0.358389 0.842861 0.114858 0.052249
O26   O     O_2   0.325250 0.626215 0.068636 -0.495453
C79   C     C_2   0.848630 0.728874 0.571333 0.491587
H23   H     H_    0.858376 0.657523 0.614849 0.062951
O27   O     O_2   0.825349 0.874330 0.568604 -0.489229
C80   C     C_2   0.151400 0.271494 0.428654 0.477798
H24   H     H_    0.141609 0.342840 0.385142 0.052249
O28   O     O_2   0.174748 0.126196 0.431366 -0.495454
Cl1   Cl    Cl    0.667137 0.682973 0.378848 -0.579262
Cl2   Cl    Cl    0.332973 0.316603 0.621256 -0.586208
Cl3   Cl    Cl    0.832864 0.182971 0.121152 -0.579263
Cl4   Cl    Cl    0.167026 0.816605 0.878743 -0.586208
C81   C     C_2   0.543054 0.372820 0.388850 0.494667
H25   H     H_    0.529713 0.456400 0.348574 0.102774
O29   O     O_2   0.534424 0.425879 0.437631 -0.512452
C82   C     C_2   0.460415 0.635015 0.612465 0.571329
H26   H     H_    0.469746 0.599970 0.568847 0.053083
O30   O     O_2   0.477536 0.539262 0.656688 -0.462787
C83   C     C_2   0.956946 0.872821 0.111150 0.494668
H27   H     H_    0.970286 0.956400 0.151427 0.102774
O31   O     O_2   0.965576 0.925879 0.062370 -0.512452
C84   C     C_2   0.039585 0.135014 0.887535 0.571328
H28   H     H_    0.030254 0.099970 0.931153 0.053083
O32   O     O_2   0.022465 0.039258 0.843312 -0.462786
Cl5   Cl    Cl    0.600922 0.373768 0.286230 -0.622924
Cl6   Cl    Cl    0.398599 0.626601 0.714909 -0.523533
Cl7   Cl    Cl    0.899078 0.873769 0.213771 -0.622924
Cl8   Cl    Cl    0.101401 0.126601 0.785090 -0.523532

loop_
_geom_bond_atom_site_label_1
_geom_bond_atom_site_label_2
_ccdc_geom_bond_type
O17   V3    S    
C59   C63   A    
C52   C56   A    
C20   C75   S    
O1    C5    A    
C16   C80   S    
O19   V1    S    
C9    C21   A    
C56   C71   S    
O3    C7    A    
C10   C18   A    
C60   C64   A    
O15   V3    S    
C33   C34   A    
C25   C33   A    
C33   C38   A    
C5    C12   S    
C39   H11   S    
C1    C68   S    
O7    C3    A    
C6    C11   S    
C35   C40   A    
C26   C30   A    
C36   C39   A    
C40   C44   A    
C17   C74   S    
O9    V1    S    
C23   H8    S    
C14   C18   A    
C51   H15   S    
C81   O29   D    
C4    C65   S    
O4    C8    A    
C54   C69   S    
C55   C59   A    
C44   H4    S    
N4    N8    A    
C83   O31   D    
C54   C58   A    
O1    V3    S    
O13   V1    S    
O2    V4    S    
O3    V1    S    
C50   C54   A    
C49   C53   A    
C1    O15   A    
C15   C31   A    
C52   H16   S    
C37   H9    S    
C16   C32   A    
C51   C55   A    
O2    C6    A    
C12   C24   A    
C10   C22   A    
C14   C78   S    
C11   C19   A    
N2    N6    A    
C16   C20   A    
C43   H3    S    
N1    N5    A    
C13   C29   A    
C34   C37   A    
O11   C7    A    
C11   C23   A    
C35   C36   A    
O12   C8    A    
C84   O32   D    
C40   H12   S    
C24   H7    S    
C2    C67   S    
O10   V2    S    
N2    C69   A    
C46   Cl2   S    
N1    C70   A    
O5    V1    S    
C48   Cl4   S    
C61   C65   A    
C39   C43   A    
O7    V3    S    
C38   C42   A    
C26   C34   A    
C78   O26   D    
C50   H14   S    
C2    O16   A    
C49   H13   S    
O18   V4    S    
C15   C19   A    
C32   C44   A    
O4    V2    S    
N8    C72   A    
C59   C83   S    
C21   H6    S    
O8    V4    S    
C76   O24   D    
C75   O23   D    
O5    C1    A    
C37   C41   A    
N3    N7    A    
C31   C43   A    
C22   H5    S    
C14   C30   A    
C21   C25   A    
O8    C4    A    
C7    C10   S    
C3    C66   S    
O9    C5    A    
C82   H26   S    
C73   H17   S    
N6    C70   A    
N5    C69   A    
O6    V2    S    
C82   O30   D    
C45   Cl1   S    
C77   H21   S    
C47   Cl3   S    
C12   C20   A    
C27   C35   A    
C53   C70   S    
C75   H19   S    
C53   C57   A    
C64   C68   A    
C80   O28   D    
C29   C41   A    
C62   Cl6   S    
C74   O22   D    
O16   V4    S    
C45   C65   A    
C3    O13   A    
C63   Cl7   S    
C38   H10   S    
C19   C76   S    
C48   C52   A    
C78   H22   S    
C47   C51   A    
O6    C2    A    
N4    C71   A    
C23   C27   A    
C79   H23   S    
O11   V3    S    
C30   C42   A    
C55   C72   S    
O12   V4    S    
C22   C26   A    
C58   C82   S    
N7    C71   A    
C8    C9    S    
C9    C17   A    
O10   C6    A    
O20   V2    S    
C76   H20   S    
C58   C62   A    
C81   H25   S    
C46   C50   A    
C79   O27   D    
C64   Cl8   S    
C84   H28   S    
C41   H1    S    
C56   C60   A    
C61   Cl5   S    
C48   C68   A    
C47   C67   A    
C62   C66   A    
C27   C31   A    
C46   C66   A    
C13   C17   A    
C13   C77   S    
C57   C61   A    
C73   O21   D    
C25   C29   A    
O14   V2    S    
C60   C84   S    
C24   C28   A    
C42   H2    S    
C28   C36   A    
C4    O14   A    
C83   H27   S    
C77   O25   D    
C57   C81   S    
C80   H24   S    
N3    C72   A    
C63   C67   A    
C15   C79   S    
C45   C49   A    
C28   C32   A    
C18   C73   S    
C74   H18   S    
