data_mof_unit_23724.cif
_audit_creation_date              2012-12-10T18:12:34-0500
_audit_creation_method            fapswitch 2.2
_symmetry_space_group_name_H-M    P1
_symmetry_Int_Tables_number       1
_space_group_crystal_system       triclinic
_cell_length_a                    9.444168
_cell_length_b                    10.746112
_cell_length_c                    17.2612
_cell_angle_alpha                 90.386053
_cell_angle_beta                  85.149301
_cell_angle_gamma                 90.292387
_cell_volume                      1745.47425563

loop_
_atom_site_label
_atom_site_type_symbol
_atom_type_description
_atom_site_fract_x
_atom_site_fract_y
_atom_site_fract_z
_atom_type_partial_charge
C1    C     C_R   0.500579 0.739959 0.498781 0.862464
C2    C     C_R   0.334469 0.513968 0.776860 -0.168758
C3    C     C_R   0.430492 0.598063 0.153202 -0.034860
C4    C     C_R   0.431336 0.586730 0.232835 -0.185815
C5    C     C_R   0.637942 0.449928 0.215646 -0.039235
C6    C     C_R   0.640302 0.466171 0.133995 0.002000
C7    C     C_R   0.531563 0.536133 0.103919 0.089912
C8    C     C_2   0.429447 0.471371 0.982521 -0.008608
C9    C     C_2   0.519437 0.543270 0.020234 -0.282173
C10   C     C_R   0.532144 0.511907 0.264918 -0.121345
C11   C     C_3   0.407894 0.926171 0.434842 -0.496911
C12   C     C_R   0.480318 0.499290 0.650124 0.906249
C13   C     C_3   0.401373 0.069512 0.437174 -0.358224
C14   C     C_3   0.442550 0.928828 0.578446 0.387508
C15   C     C_3   0.655000 0.927540 0.478897 -0.359407
C16   C     C_3   0.501592 0.877754 0.497911 -0.062278
C17   C     C_3   0.501580 0.121578 0.496806 -0.131865
C18   C     C_3   0.448614 0.072662 0.578935 0.423204
C19   C     C_3   0.656119 0.070753 0.476152 -0.229061
C20   C     C_3   0.916259 0.373513 0.482247 -0.251757
C21   C     C_3   0.083548 0.372123 0.479617 0.654662
C22   C     C_3   0.927688 0.581015 0.436803 -0.294192
C23   C     C_R   0.500240 0.259885 0.498175 0.807322
C24   C     C_3   0.906234 0.540760 0.574972 -0.128848
C25   C     C_3   0.094150 0.585370 0.440723 -0.472963
C26   C     C_3   0.073074 0.535189 0.575678 0.564634
C27   C     C_R   0.519842 0.499929 0.349844 0.755879
C28   C     C_R   0.466713 0.493959 0.735113 -0.121107
C29   C     C_R   0.585515 0.465860 0.775123 -0.109731
C30   C     C_R   0.572287 0.457511 0.855615 -0.212188
C31   C     C_R   0.440304 0.477591 0.897318 -0.067349
C32   C     C_R   0.321078 0.505615 0.857617 0.630015
Cu1   Cu    Cu3+1 0.357600 0.500140 0.499960 1.021600
Cu2   Cu    Cu3+1 0.642400 0.499860 0.500040 0.932986
H1    H     H_    0.688383 0.449022 0.744314 0.183861
H2    H     H_    0.297975 0.888202 0.444306 0.193356
H3    H     H_    0.452201 0.894422 0.376259 0.196944
H4    H     H_    0.429922 0.107166 0.378109 0.162403
H5    H     H_    0.290008 0.098654 0.453849 0.262597
H6    H     H_    0.330494 0.897245 0.590791 0.139065
H7    H     H_    0.724124 0.897391 0.524254 0.213116
H8    H     H_    0.700216 0.886158 0.422833 0.189384
H9    H     H_    0.351023 0.635626 0.269737 0.145468
H10   H     H_    0.725138 0.104772 0.521185 0.167829
H11   H     H_    0.522654 0.105155 0.621791 0.119049
H12   H     H_    0.882450 0.337852 0.426117 0.141998
H13   H     H_    0.872043 0.307983 0.527769 0.202307
H14   H     H_    0.127894 0.342839 0.420549 0.055549
H15   H     H_    0.904186 0.546540 0.378348 0.179915
H16   H     H_    0.145577 0.563951 0.381972 0.202020
H17   H     H_    0.860771 0.475709 0.620551 0.197178
H18   H     H_    0.117435 0.626966 0.592128 0.053465
H19   H     H_    0.883702 0.676561 0.440904 0.174162
H20   H     H_    0.126734 0.681913 0.454810 0.179828
H21   H     H_    0.594140 0.604567 0.987567 0.177854
H22   H     H_    0.348902 0.653510 0.129663 0.162404
H23   H     H_    0.241694 0.537150 0.747247 0.220351
H24   H     H_    0.665070 0.434927 0.885494 0.171620
N1    N     N_3   0.856560 0.499750 0.498270 -0.210014
N2    N     N_3   0.143860 0.496700 0.498910 -0.215013
O1    O     O_R   0.379740 0.682430 0.499960 -0.627096
O2    O     O_R   0.620260 0.682190 0.500020 -0.576581
O3    O     O_R   0.365800 0.500150 0.613560 -0.514721
O4    O     O_R   0.606310 0.499910 0.613620 -0.578302
O5    O     O_R   0.379740 0.317810 0.499980 -0.467710
O6    O     O_R   0.620260 0.317570 0.500040 -0.638402
O7    O     O_R   0.393690 0.500090 0.386380 -0.598295
O8    O     O_R   0.634200 0.499850 0.386440 -0.615288
C33   C     C_2   0.755033 0.412547 0.079284 0.464384
H25   H     H_    0.733483 0.386292 0.020652 0.059575
O9    O     O_2   0.876223 0.401995 0.097957 -0.479170
F1    F     F_    0.315150 0.119329 0.602649 -0.594461
C34   C     C_2   0.723282 0.115357 0.398481 0.424274
H26   H     H_    0.662446 0.167912 0.359669 0.085093
O10   O     O_2   0.847787 0.092776 0.378827 -0.531523
F2    F     F_    0.520017 0.882764 0.636672 -0.650203
F3    F     F_    0.121357 0.282131 0.531015 -0.563698
C35   C     C_2   0.855941 0.670116 0.598803 0.441169
H27   H     H_    0.891240 0.749952 0.564213 0.030955
O11   O     O_2   0.781228 0.687163 0.659131 -0.477068
C36   C     C_2   0.735709 0.359942 0.248248 0.414548
H28   H     H_    0.790382 0.382885 0.299010 0.069988
O12   O     O_2   0.754835 0.257285 0.218540 -0.492020
F4    F     F_    0.104414 0.452589 0.633112 -0.602158
F5    F     F_    0.193047 0.527832 0.897015 -0.651375
C37   C     C_2   0.325472 0.381208 0.020745 0.510310
H29   H     H_    0.259222 0.326236 0.984994 0.107248
O13   O     O_2   0.312774 0.365778 0.090968 -0.517926

loop_
_geom_bond_atom_site_label_1
_geom_bond_atom_site_label_2
_ccdc_geom_bond_type
C10   C27   S    
C6    C33   S    
C34   H26   S    
C14   C18   S    
C1    O2    A    
Cu2   O6    S    
C36   H28   S    
C2    H23   S    
Cu1   O5    S    
C15   C19   S    
C17   C23   S    
C12   C28   S    
C23   O6    A    
C28   C29   A    
C24   C26   S    
C3    C7    A    
C5    C6    A    
C12   O4    A    
C35   O11   D    
C15   C16   S    
Cu2   O2    S    
C2    C32   A    
C3    H22   S    
C33   O9    D    
C25   H16   S    
C27   O8    A    
C8    C9    D    
C22   C25   S    
C9    H21   S    
C25   N2    S    
C8    C37   S    
C21   H14   S    
C24   H17   S    
C34   O10   D    
C36   O12   D    
Cu1   Cu2   S    
C22   H19   S    
C18   F1    S    
C19   C34   S    
C25   H20   S    
C15   H7    S    
C21   N2    S    
Cu2   O8    S    
C22   N1    S    
C12   O3    A    
C35   H27   S    
C14   F2    S    
C29   C30   A    
C26   H18   S    
C5    C36   S    
C11   C16   S    
C31   C32   A    
Cu1   O3    S    
Cu2   O4    S    
C17   C18   S    
C1    C16   S    
C20   N1    S    
C13   H4    S    
C22   H15   S    
C24   C35   S    
Cu1   N2    S    
Cu2   N1    S    
C14   C16   S    
C4    C10   A    
C3    C4    A    
C18   H11   S    
C19   H10   S    
Cu1   O7    S    
C11   H3    S    
C7    C9    S    
C11   H2    S    
C26   F4    S    
C37   H29   S    
C8    C31   S    
C15   H8    S    
C1    O1    A    
C6    C7    A    
C4    H9    S    
C29   H1    S    
C13   C17   S    
C23   O5    A    
C5    C10   A    
C11   C13   S    
C30   C31   A    
C24   N1    S    
C32   F5    S    
C30   H24   S    
C17   C19   S    
C37   O13   D    
C33   H25   S    
C13   H5    S    
C20   H13   S    
C27   O7    A    
C14   H6    S    
C20   C21   S    
Cu1   O1    S    
C21   F3    S    
C2    C28   A    
C26   N2    S    
C20   H12   S    
