data_mof_unit_58723.cif
_audit_creation_date              2012-12-10T16:45:59-0500
_audit_creation_method            fapswitch 2.2
_symmetry_space_group_name_H-M    P1
_symmetry_Int_Tables_number       1
_space_group_crystal_system       triclinic
_cell_length_a                    10.710333
_cell_length_b                    8.682923
_cell_length_c                    7.4517
_cell_angle_alpha                 102.844078
_cell_angle_beta                  94.637453
_cell_angle_gamma                 92.572313
_cell_volume                      672.024318501

loop_
_atom_site_label
_atom_site_type_symbol
_atom_type_description
_atom_site_fract_x
_atom_site_fract_y
_atom_site_fract_z
_atom_type_partial_charge
C1    C     C_R   0.496146 0.199747 0.453321 0.871739
C2    C     C_3   0.877469 0.500155 0.496912 -0.053749
C3    C     C_3   0.939080 0.658645 0.617464 -0.439115
C4    C     C_3   0.916397 0.481032 0.297886 -0.413257
C5    C     C_2   0.494262 0.031895 0.427005 -0.341760
C6    C     C_2   0.505529 0.968095 0.573015 -0.324505
C7    C     C_R   0.259815 0.499792 0.501225 0.869893
C8    C     C_R   0.503765 0.800249 0.546685 0.903385
C9    C     C_R   0.739896 0.500233 0.498370 0.807964
C10   C     C_3   0.070080 0.359786 0.577900 0.418103
C11   C     C_3   0.926035 0.361160 0.576989 -0.414955
C12   C     C_3   0.083581 0.659692 0.621042 1.128822
C13   C     C_3   0.059305 0.480950 0.300390 -0.482089
C14   C     C_3   0.121567 0.500577 0.501912 -0.153187
Cu1   Cu    Cu3+1 0.514070 0.517380 0.684380 1.005723
Cu2   Cu    Cu3+1 0.485930 0.482620 0.315620 0.991392
H1    H     H_    0.882855 0.579651 0.237198 0.205831
H2    H     H_    0.904450 0.759323 0.561772 0.163133
H3    H     H_    0.483626 0.960458 0.286222 0.187650
H4    H     H_    0.516149 0.039529 0.713798 0.178832
H5    H     H_    0.400911 0.378403 0.948352 0.263467
H6    H     H_    0.599103 0.621577 0.051648 0.216878
H7    H     H_    0.094574 0.246385 0.488880 0.108002
H8    H     H_    0.881899 0.246617 0.492657 0.136512
H9    H     H_    0.899097 0.372313 0.720313 0.223749
H10   H     H_    0.911399 0.675905 0.761065 0.188183
H11   H     H_    0.094011 0.578617 0.238831 0.276848
H12   H     H_    0.084327 0.367766 0.211303 0.223760
H13   H     H_    0.873251 0.368156 0.208017 0.204131
N1    N     N_2   0.464720 0.456420 0.038520 -0.194397
N2    N     N_2   0.535280 0.543580 0.961480 -0.216081
O1    O     O_R   0.509140 0.286130 0.619770 -0.590415
O2    O     O_R   0.485380 0.256770 0.308360 -0.586813
O3    O     O_R   0.329570 0.514650 0.655700 -0.497428
O4    O     O_R   0.305810 0.485300 0.344290 -0.582261
O5    O     O_R   0.514620 0.743230 0.691640 -0.580223
O6    O     O_R   0.490860 0.713870 0.380230 -0.581897
O7    O     O_R   0.694190 0.514700 0.655710 -0.599781
O8    O     O_R   0.670430 0.485350 0.344300 -0.604831
F1    F     F_    0.123105 0.366810 0.755894 -0.624032
F2    F     F_    0.127933 0.785253 0.551691 -0.680269
F3    F     F_    0.135185 0.681916 0.802492 -0.612953

loop_
_geom_bond_atom_site_label_1
_geom_bond_atom_site_label_2
_ccdc_geom_bond_type
C2    C4    S    
Cu1   O7    S    
Cu1   N2    S    
C12   F2    S    
C5    H3    S    
Cu2   O2    S    
C7    C14   S    
C6    H4    S    
H5    N1    S    
Cu1   O5    S    
Cu1   O3    S    
C4    H13   S    
Cu2   O6    S    
H6    N2    S    
C2    C3    S    
C1    O2    A    
Cu1   O1    S    
C13   H12   S    
C13   C14   S    
C5    C6    D    
C1    C5    S    
C2    C11   S    
C6    C8    S    
C9    O7    A    
C12   C14   S    
C8    O5    A    
Cu2   O4    S    
C10   C14   S    
N1    N2    D    
C10   H7    S    
C7    O3    A    
C8    O6    A    
C4    H1    S    
Cu2   O8    S    
Cu2   N1    S    
Cu1   Cu2   S    
C11   H8    S    
C9    O8    A    
C3    H2    S    
C10   F1    S    
C10   C11   S    
C4    C13   S    
C11   H9    S    
C13   H11   S    
C12   F3    S    
C3    C12   S    
C2    C9    S    
C7    O4    A    
C3    H10   S    
C1    O1    A    
