data_mof_unit_63885.cif
_audit_creation_date              2013-03-05T16:24:10-0500
_audit_creation_method            fapswitch 2.2
_symmetry_space_group_name_H-M    P1
_symmetry_Int_Tables_number       1
_space_group_crystal_system       triclinic
_cell_length_a                    30.668523
_cell_length_b                    30.484213
_cell_length_c                    24.717987
_cell_angle_alpha                 89.999806
_cell_angle_beta                  128.409131
_cell_angle_gamma                 90.000059
_cell_volume                      18108.0757795

loop_
_atom_site_label
_atom_site_type_symbol
_atom_site_description
_atom_site_fract_x
_atom_site_fract_y
_atom_site_fract_z
_atom_type_partial_charge
O1    O     O_R   0.821670 0.769930 0.500000 -0.623653
O2    O     O_R   0.178330 0.769930 0.500000 -0.623636
O3    O     O_R   0.321670 0.269930 0.500000 -0.627352
O4    O     O_R   0.678330 0.269930 0.500000 -0.627354
O5    O     O_R   0.769920 0.821660 0.500020 -0.621708
O6    O     O_R   0.230080 0.821660 0.499980 -0.621710
O7    O     O_R   0.269920 0.321660 0.500020 -0.615475
O8    O     O_R   0.730080 0.321660 0.499980 -0.615491
C1    C     C_R   0.809495 0.810173 0.499220 0.875244
C2    C     C_R   0.190505 0.810172 0.500780 0.875234
C3    C     C_R   0.310283 0.310177 0.500791 0.875521
C4    C     C_R   0.689717 0.310177 0.499209 0.875521
O9    O     O_R   0.724940 0.724130 0.398140 -0.605327
O10   O     O_R   0.275060 0.724130 0.601860 -0.605478
O11   O     O_R   0.224940 0.224130 0.398140 -0.625891
O12   O     O_R   0.775060 0.224130 0.601860 -0.625910
O13   O     O_R   0.673180 0.775850 0.398150 -0.627497
O14   O     O_R   0.326820 0.775850 0.601850 -0.627464
O15   O     O_R   0.173180 0.275850 0.398150 -0.622607
O16   O     O_R   0.826820 0.275850 0.601850 -0.622617
C5    C     C_R   0.682571 0.749909 0.365358 0.851459
C6    C     C_R   0.317428 0.749910 0.634642 0.851335
C7    C     C_R   0.182668 0.250022 0.365344 0.855301
C8    C     C_R   0.817332 0.250022 0.634656 0.855297
Zn1   Zn    Zn3+2 0.784540 0.715450 0.500000 1.028050
Zn2   Zn    Zn3+2 0.215460 0.715450 0.500000 1.028203
Zn3   Zn    Zn3+2 0.284540 0.215450 0.500000 0.966816
Zn4   Zn    Zn3+2 0.715460 0.215450 0.500000 0.966985
Zn5   Zn    Zn3+2 0.715430 0.784520 0.500010 0.956233
Zn6   Zn    Zn3+2 0.284570 0.784520 0.499990 0.956212
Zn7   Zn    Zn3+2 0.215430 0.284520 0.500010 0.985302
Zn8   Zn    Zn3+2 0.784570 0.284520 0.499990 0.985183
O17   O     O_R   0.730060 0.678320 0.499990 -0.574016
O18   O     O_R   0.269940 0.678320 0.500010 -0.574013
O19   O     O_R   0.230060 0.178320 0.499990 -0.626355
O20   O     O_R   0.769940 0.178320 0.500010 -0.626265
O21   O     O_R   0.678300 0.730040 0.500010 -0.630056
O22   O     O_R   0.321700 0.730040 0.499990 -0.630068
O23   O     O_R   0.178300 0.230040 0.500010 -0.610869
O24   O     O_R   0.821700 0.230040 0.499990 -0.610990
O25   O     O_R   0.826790 0.724120 0.601860 -0.618365
O26   O     O_R   0.173210 0.724120 0.398140 -0.618270
O27   O     O_R   0.326790 0.224120 0.601860 -0.608585
O28   O     O_R   0.673210 0.224120 0.398140 -0.608427
O29   O     O_R   0.775040 0.775850 0.601880 -0.625533
O30   O     O_R   0.224960 0.775850 0.398120 -0.625556
O31   O     O_R   0.275040 0.275850 0.601880 -0.627166
O32   O     O_R   0.724960 0.275850 0.398120 -0.627195
C9    C     C_R   0.690128 0.689974 0.500031 0.875345
C10   C     C_R   0.309871 0.689973 0.499963 0.875299
C11   C     C_R   0.189975 0.189977 0.499719 0.908180
C12   C     C_R   0.810028 0.189976 0.500286 0.908207
C13   C     C_R   0.817338 0.749984 0.634661 0.854985
C14   C     C_R   0.182662 0.749985 0.365338 0.855035
C15   C     C_R   0.317252 0.249868 0.634662 0.887074
C16   C     C_R   0.682748 0.249867 0.365337 0.887096
C17   C     C_R   0.610837 0.786196 0.253427 -0.190457
C18   C     C_R   0.389171 0.786193 0.746574 -0.190449
C19   C     C_R   0.110585 0.286397 0.253583 -0.186287
C20   C     C_R   0.889414 0.286398 0.746417 -0.186303
H1    H     H_    0.612469 0.814944 0.280396 0.155310
H2    H     H_    0.387548 0.814937 0.719605 0.155297
H3    H     H_    0.111605 0.314787 0.280703 0.160230
H4    H     H_    0.888395 0.314787 0.719296 0.160211
C21   C     C_R   0.575199 0.786175 0.181602 -0.156124
C22   C     C_R   0.424807 0.786172 0.818399 -0.156146
C23   C     C_R   0.075045 0.286608 0.181754 -0.156176
C24   C     C_R   0.924953 0.286608 0.818246 -0.156180
H5    H     H_    0.549615 0.814793 0.154431 0.151032
H6    H     H_    0.450399 0.814787 0.845570 0.151023
H7    H     H_    0.048914 0.315012 0.154723 0.152069
H8    H     H_    0.951085 0.315011 0.845276 0.152061
C25   C     C_R   0.572229 0.749332 0.145417 0.081737
C26   C     C_R   0.427764 0.749334 0.854584 0.081804
C27   C     C_R   0.072754 0.250187 0.145374 0.084350
C28   C     C_R   0.927245 0.250188 0.854626 0.084357
C29   C     C_R   0.605586 0.712603 0.181998 -0.156281
C30   C     C_R   0.394396 0.712610 0.818003 -0.156299
C31   C     C_R   0.106821 0.213728 0.181717 -0.157939
C32   C     C_R   0.893177 0.213729 0.818284 -0.157940
H9    H     H_    0.604134 0.683874 0.155140 0.156754
H10   H     H_    0.395839 0.683884 0.844860 0.156666
H11   H     H_    0.105922 0.185357 0.154662 0.149889
H12   H     H_    0.894076 0.185357 0.845339 0.149886
C33   C     C_R   0.641906 0.712920 0.253828 -0.181232
C34   C     C_R   0.358078 0.712926 0.746172 -0.181487
C35   C     C_R   0.143063 0.213839 0.253541 -0.191997
C36   C     C_R   0.856936 0.213839 0.746459 -0.191993
H13   H     H_    0.667434 0.684287 0.281121 0.182904
H14   H     H_    0.332542 0.684298 0.718880 0.182418
H15   H     H_    0.169133 0.185411 0.280624 0.156054
H16   H     H_    0.830866 0.185411 0.719377 0.156047
C37   C     C_R   0.644622 0.749679 0.289914 -0.039178
C38   C     C_R   0.355375 0.749680 0.710087 -0.039008
C39   C     C_R   0.144955 0.250087 0.289870 -0.034376
C40   C     C_R   0.855044 0.250087 0.710130 -0.034357
N1    N     N_R   0.517088 0.710945 0.034307 -0.171807
N2    N     N_R   0.482893 0.710945 0.965693 -0.171827
N3    N     N_R   0.017249 0.211853 0.034302 -0.174410
N4    N     N_R   0.982749 0.211853 0.965698 -0.174408
C41   C     C_R   0.465366 0.749296 0.930189 0.285087
C42   C     C_R   0.534627 0.749295 0.069812 0.285112
C43   C     C_R   0.965061 0.250202 0.930200 0.284635
C44   C     C_R   0.034938 0.250202 0.069800 0.284637
N5    N     N_R   0.483060 0.787639 0.965702 -0.173379
N6    N     N_R   0.516946 0.787639 0.034300 -0.173376
N7    N     N_R   0.982910 0.288553 0.965695 -0.172728
N8    N     N_R   0.017088 0.288554 0.034304 -0.172723
C45   C     C_R   0.899361 0.844419 0.551978 0.105041
C46   C     C_R   0.100644 0.844432 0.448003 0.105013
C47   C     C_R   0.347513 0.344291 0.448165 0.113185
C48   C     C_R   0.652490 0.344292 0.551838 0.113161
C49   C     C_R   0.842048 0.843913 0.500206 -0.083548
C50   C     C_R   0.157953 0.843912 0.499795 -0.083518
C51   C     C_R   0.341802 0.343935 0.499729 -0.092045
C52   C     C_R   0.658198 0.343934 0.500271 -0.092058
C53   C     C_R   0.815684 0.879184 0.453989 -0.209461
C54   C     C_R   0.184318 0.879172 0.546036 -0.209479
C55   C     C_R   0.361384 0.379378 0.545594 -0.199901
C56   C     C_R   0.638612 0.379376 0.454402 -0.199929
H17   H     H_    0.770747 0.880596 0.416152 0.155637
H18   H     H_    0.229254 0.880574 0.583890 0.155608
H19   H     H_    0.354131 0.380913 0.583231 0.161076
H20   H     H_    0.645863 0.380910 0.416763 0.161102
C57   C     C_R   0.847839 0.911281 0.453750 -0.215698
C58   C     C_R   0.152163 0.911269 0.546275 -0.215662
C59   C     C_R   0.393730 0.411496 0.545785 -0.200413
C60   C     C_R   0.606265 0.411494 0.454211 -0.200303
H21   H     H_    0.827632 0.937433 0.415912 0.160352
H22   H     H_    0.172370 0.937411 0.584130 0.160347
H23   H     H_    0.411185 0.437773 0.583398 0.162158
H24   H     H_    0.588807 0.437769 0.416595 0.162227
C61   C     C_R   0.905987 0.908460 0.501214 -0.094892
C62   C     C_R   0.094015 0.908461 0.498787 -0.094924
C63   C     C_R   0.404635 0.408523 0.498611 -0.099612
C64   C     C_R   0.595365 0.408522 0.501389 -0.099667
C65   C     C_R   0.931023 0.876736 0.552966 0.149297
C66   C     C_R   0.068983 0.876750 0.447016 0.149312
C67   C     C_R   0.378131 0.376632 0.447110 0.153701
C68   C     C_R   0.621872 0.376633 0.552892 0.153671
C69   C     C_3   0.976940 0.845552 0.574936 -0.495742
C70   C     C_3   0.023049 0.845572 0.425004 -0.495692
C71   C     C_3   0.402371 0.345407 0.425628 -0.503360
C72   C     C_3   0.597635 0.345408 0.574380 -0.503344
C73   C     C_3   0.941803 0.809808 0.573605 -0.469325
C74   C     C_3   0.058186 0.809827 0.426335 -0.469365
C75   C     C_3   0.368641 0.309637 0.427046 -0.470573
C76   C     C_3   0.631366 0.309638 0.572962 -0.470567
H25   H     H_    0.982720 0.841241 0.535083 0.192013
H26   H     H_    0.017250 0.841249 0.464838 0.192008
H27   H     H_    0.388289 0.352565 0.372857 0.214212
H28   H     H_    0.611719 0.352567 0.627151 0.214201
H29   H     H_    0.015584 0.852880 0.627725 0.212989
H30   H     H_    0.984418 0.852913 0.372212 0.212988
H31   H     H_    0.448059 0.341252 0.465682 0.191046
H32   H     H_    0.551947 0.341252 0.534328 0.191048
H33   H     H_    0.927096 0.784754 0.532852 0.219920
H34   H     H_    0.072873 0.784762 0.467067 0.219927
H35   H     H_    0.335126 0.296101 0.375098 0.205965
H36   H     H_    0.664883 0.296104 0.624910 0.205954
H37   H     H_    0.960191 0.796460 0.625619 0.202073
H38   H     H_    0.039809 0.796492 0.374317 0.202076
H39   H     H_    0.394789 0.284731 0.468052 0.216891
H40   H     H_    0.605218 0.284731 0.531958 0.216895
C77   C     C_R   0.836930 0.765743 0.746380 -0.189924
C78   C     C_R   0.163069 0.765745 0.253620 -0.189875
C79   C     C_R   0.336737 0.264971 0.746534 -0.139549
C80   C     C_R   0.663254 0.264992 0.253464 -0.139986
H41   H     H_    0.794936 0.777938 0.719242 0.154237
H42   H     H_    0.205062 0.777941 0.280757 0.154237
H43   H     H_    0.294831 0.277335 0.719506 0.161103
H44   H     H_    0.705153 0.277373 0.280492 0.161080
C81   C     C_R   0.872688 0.765347 0.818199 -0.157746
C82   C     C_R   0.127310 0.765350 0.181801 -0.157735
C83   C     C_R   0.372450 0.264097 0.818369 -0.139511
C84   C     C_R   0.627542 0.264118 0.181629 -0.139599
H45   H     H_    0.857778 0.777612 0.845190 0.149346
H46   H     H_    0.142219 0.777615 0.154809 0.149346
H47   H     H_    0.357622 0.276223 0.845518 0.151544
H48   H     H_    0.642362 0.276262 0.154480 0.151548
C85   C     C_R   0.927338 0.749853 0.854610 0.085042
C86   C     C_R   0.072661 0.749854 0.145390 0.085032
C87   C     C_R   0.427003 0.248387 0.854601 0.079494
C88   C     C_R   0.572998 0.248386 0.145398 0.079494
C89   C     C_R   0.945629 0.734427 0.818280 -0.155924
C90   C     C_R   0.054371 0.734426 0.181721 -0.155905
C91   C     C_R   0.445168 0.233087 0.818088 -0.142443
C92   C     C_R   0.554842 0.233064 0.181910 -0.142465
H49   H     H_    0.987565 0.722133 0.845338 0.150763
H50   H     H_    0.012435 0.722132 0.154662 0.150770
H51   H     H_    0.486993 0.220582 0.844985 0.151424
H52   H     H_    0.513024 0.220541 0.155014 0.151449
C93   C     C_R   0.909566 0.734135 0.746450 -0.186761
C94   C     C_R   0.090434 0.734134 0.253550 -0.186715
C95   C     C_R   0.409169 0.233274 0.746285 -0.151171
C96   C     C_R   0.590842 0.233250 0.253714 -0.150952
H53   H     H_    0.924447 0.721988 0.719362 0.155481
H54   H     H_    0.075553 0.721986 0.280638 0.155499
H55   H     H_    0.423990 0.221208 0.719092 0.153107
H56   H     H_    0.576027 0.221167 0.280906 0.153183
C97   C     C_R   0.855093 0.749955 0.710119 -0.029494
C98   C     C_R   0.144906 0.749955 0.289881 -0.029501
C99   C     C_R   0.354871 0.249461 0.710116 -0.012992
C100  C     C_R   0.645130 0.249459 0.289883 -0.013137
N9    N     N_R   0.021021 0.749718 0.965789 -0.174800
N10   N     N_R   0.978978 0.749717 0.034211 -0.174803
N11   N     N_R   0.520821 0.248073 0.965565 -0.172949
N12   N     N_R   0.479180 0.248050 0.034434 -0.172925
N13   N     N_R   0.055305 0.749874 0.034394 -0.174125
N14   N     N_R   0.944694 0.749872 0.965606 -0.174133
N15   N     N_R   0.555284 0.248229 0.034172 -0.163730
N16   N     N_R   0.444717 0.248206 0.965827 -0.163690
C101  C     C_R   0.034883 0.749802 0.069804 0.285702
C102  C     C_R   0.965116 0.749801 0.930195 0.285692
C103  C     C_R   0.535064 0.248155 0.069807 0.291543
C104  C     C_R   0.464937 0.248156 0.930191 0.291533
C105  C     C_R   0.636560 0.622494 0.456206 0.051442
C106  C     C_R   0.363212 0.622370 0.543556 0.051572
C107  C     C_R   0.180352 0.122480 0.543447 0.048443
C108  C     C_R   0.819654 0.122406 0.456698 0.048597
C109  C     C_R   0.658331 0.657291 0.501794 -0.090435
C110  C     C_R   0.341675 0.657289 0.498203 -0.090670
C111  C     C_R   0.156408 0.157293 0.497931 -0.093323
C112  C     C_R   0.843599 0.157292 0.502072 -0.093577
C113  C     C_R   0.647311 0.660143 0.549077 -0.194311
C114  C     C_R   0.352944 0.660263 0.451165 -0.194156
C115  C     C_R   0.098038 0.160262 0.451018 -0.198987
C116  C     C_R   0.901969 0.160335 0.548831 -0.198890
H57   H     H_    0.663847 0.686912 0.585764 0.154273
H58   H     H_    0.336597 0.687125 0.414661 0.154436
H59   H     H_    0.077777 0.187073 0.414420 0.158142
H60   H     H_    0.922234 0.187203 0.585316 0.158263
C117  C     C_R   0.615150 0.627659 0.549312 -0.207979
C118  C     C_R   0.385105 0.627779 0.450930 -0.208126
C119  C     C_R   0.065714 0.127813 0.451003 -0.200392
C120  C     C_R   0.934291 0.127886 0.548845 -0.200460
H61   H     H_    0.607096 0.629720 0.586156 0.158985
H62   H     H_    0.393347 0.629931 0.414271 0.158798
H63   H     H_    0.020756 0.129906 0.414329 0.164763
H64   H     H_    0.979251 0.130033 0.585403 0.164691
C121  C     C_R   0.592797 0.593282 0.500829 -0.067901
C122  C     C_R   0.407212 0.593279 0.499177 -0.067572
C123  C     C_R   0.091992 0.093419 0.499461 -0.070274
C124  C     C_R   0.908007 0.093416 0.500533 -0.070122
C125  C     C_R   0.604130 0.592204 0.454764 0.078522
C126  C     C_R   0.395647 0.592079 0.545010 0.078411
C127  C     C_R   0.149474 0.092316 0.545329 0.080706
C128  C     C_R   0.850525 0.092240 0.454808 0.080657
C129  C     C_3   0.594418 0.567268 0.396229 -0.541072
C130  C     C_3   0.405038 0.566970 0.603224 -0.541610
C131  C     C_3   0.198563 0.067576 0.604016 -0.539163
C132  C     C_3   0.801431 0.067394 0.396320 -0.539543
C133  C     C_3   0.631013 0.602560 0.397115 0.131892
C134  C     C_3   0.368435 0.602257 0.602330 0.132313
C135  C     C_3   0.234108 0.102512 0.602128 0.137256
C136  C     C_3   0.765893 0.102332 0.398217 0.137481
H65   H     H_    0.550137 0.568500 0.349224 0.189602
H66   H     H_    0.449263 0.568069 0.650385 0.189634
H67   H     H_    0.201786 0.034386 0.588140 0.170866
H68   H     H_    0.798336 0.034232 0.412394 0.170870
H69   H     H_    0.608505 0.623883 0.350500 0.096481
H70   H     H_    0.390876 0.623443 0.649093 0.096451
H71   H     H_    0.259258 0.089671 0.587204 0.113417
H72   H     H_    0.740875 0.089518 0.413349 0.113400
O33   O     O_R   0.425360 0.545810 0.442460 -0.620779
O34   O     O_R   0.574640 0.545810 0.557540 -0.620870
O35   O     O_R   0.925360 0.045810 0.442460 -0.615631
O36   O     O_R   0.074640 0.045810 0.557540 -0.615665
O37   O     O_R   0.482840 0.545830 0.557470 -0.625671
O38   O     O_R   0.517160 0.545830 0.442530 -0.625658
O39   O     O_R   0.982840 0.045830 0.557470 -0.624939
O40   O     O_R   0.017160 0.045830 0.442530 -0.624971
C137  C     C_R   0.439866 0.560067 0.499866 0.886236
C138  C     C_R   0.560134 0.560071 0.500134 0.886227
C139  C     C_R   0.939958 0.060110 0.499980 0.883811
C140  C     C_R   0.060039 0.060114 0.500019 0.883804
O41   O     O_R   0.925420 0.954200 0.442500 -0.623788
O42   O     O_R   0.074580 0.954200 0.557500 -0.623801
O43   O     O_R   0.425420 0.454200 0.442500 -0.614634
O44   O     O_R   0.574580 0.454200 0.557500 -0.614644
O45   O     O_R   0.982890 0.954220 0.557510 -0.618026
O46   O     O_R   0.017110 0.954220 0.442490 -0.618021
O47   O     O_R   0.482890 0.454220 0.557510 -0.625804
O48   O     O_R   0.517110 0.454220 0.442490 -0.625799
C141  C     C_R   0.939910 0.939848 0.500084 0.873367
C142  C     C_R   0.060090 0.939848 0.499916 0.873375
C143  C     C_R   0.439788 0.439865 0.499868 0.878939
C144  C     C_R   0.560212 0.439865 0.500132 0.878969
Zn9   Zn    Zn3+2 0.461590 0.500000 0.423210 0.964778
Zn10  Zn    Zn3+2 0.538410 0.500000 0.576790 0.964714
Zn11  Zn    Zn3+2 0.961590 0.000000 0.423210 0.970055
Zn12  Zn    Zn3+2 0.038410 0.000000 0.576790 0.970029
H73   H     H_    0.613011 0.533885 0.411931 0.228910
H74   H     H_    0.386337 0.533631 0.587205 0.228913
H75   H     H_    0.201237 0.068416 0.650965 0.245924
H76   H     H_    0.798625 0.068149 0.349274 0.245953
N17   N     N_R   0.683888 0.585522 0.417415 0.250129
O49   O     O_R   0.699708 0.595270 0.380755 -0.389442
O50   O     O_R   0.716210 0.561775 0.472833 -0.365046
N18   N     N_R   0.315407 0.585267 0.581599 0.250152
O51   O     O_R   0.299402 0.594881 0.618100 -0.389154
O52   O     O_R   0.283140 0.561695 0.525963 -0.365040
N19   N     N_R   0.265283 0.130938 0.663017 0.232493
O53   O     O_R   0.317911 0.138000 0.694985 -0.387439
O54   O     O_R   0.240765 0.150441 0.684476 -0.379534
N20   N     N_R   0.734545 0.130651 0.337208 0.232546
O55   O     O_R   0.681942 0.137698 0.305426 -0.387353
O56   O     O_R   0.758891 0.150089 0.315468 -0.379472

loop_
_geom_bond_atom_site_label_1
_geom_bond_atom_site_label_2
_geom_bond_distance
_ccdc_geom_bond_type
C18   H2    1.083231 S    
C35   H15   1.083203 S    
N17   O50   1.302246 A    
O38   C138  1.273227 A    
C44   N8    1.356281 A    
C64   C68   1.393046 A    
C31   C35   1.391192 A    
C47   C67   1.372880 A    
N19   O54   1.302235 A    
C61   C65   1.393101 A    
O35   C139  1.273182 A    
C121  C125  1.382038 A    
C105  C125  1.341292 A    
C8    C40   1.461844 S    
C95   C99   1.402113 A    
C109  C113  1.406602 A    
C93   C97   1.402059 A    
Zn6   O22   2.013674 S    
C76   H36   1.111568 S    
C70   C74   1.518418 S    
C11   C111  1.413481 S    
O43   Zn9   2.016023 S    
C124  C139  1.416992 S    
C85   C102  1.464009 S    
O36   Zn12  2.016947 S    
C3    C51   1.423225 S    
C69   C73   1.518415 S    
C28   C43   1.463780 S    
C71   H27   1.111550 S    
C108  C128  1.341324 A    
O33   Zn9   2.016951 S    
C112  C116  1.406487 A    
C77   H41   1.083223 S    
C78   C82   1.391123 A    
C46   C66   1.372798 A    
C34   H14   1.083340 S    
Zn1   O25   2.008564 S    
C88   C103  1.464128 S    
C79   H43   1.083179 S    
Zn3   O19   2.017987 S    
Zn4   O28   2.008564 S    
N13   C101  1.356293 A    
Zn5   O29   2.008129 S    
C121  C138  1.416822 S    
C90   H50   1.083070 S    
C63   C67   1.393048 A    
C73   H33   1.112159 S    
C30   H10   1.083057 S    
O11   Zn3   2.007961 S    
N19   O53   1.300429 A    
C24   H8    1.083087 S    
C15   C99   1.461519 S    
N20   O55   1.300427 A    
O9    C5    1.286197 A    
O2    Zn2   2.013672 S    
O10   Zn2   2.007961 S    
C119  C123  1.408566 A    
C26   C41   1.464398 S    
O6    Zn6   2.018414 S    
C135  H71   1.112545 S    
N9    C102  1.356233 A    
C12   C112  1.413562 S    
C136  H72   1.112555 S    
O19   C11   1.275688 A    
N18   O51   1.300441 A    
C132  H68   1.111605 S    
C83   C87   1.403131 A    
C133  H69   1.112820 S    
C84   C88   1.403130 A    
C10   C110  1.413749 S    
C13   C97   1.461522 S    
C45   C73   1.492862 S    
C17   H1    1.083232 S    
C55   H19   1.083635 S    
C19   H3    1.083201 S    
C20   H4    1.083199 S    
C20   C24   1.391326 A    
C113  C117  1.400216 A    
C32   C36   1.391192 A    
N14   C102  1.356291 A    
C22   H6    1.083065 S    
C5    C37   1.461298 S    
N11   C104  1.356415 A    
C62   C142  1.426488 S    
C7    C39   1.461844 S    
C135  N19   1.463642 S    
C59   H23   1.083591 S    
O3    C3    1.279103 A    
C16   C100  1.461531 S    
C88   C92   1.402549 A    
C58   C62   1.401566 A    
C25   C29   1.402986 A    
C43   N7    1.356282 A    
C27   C31   1.402725 A    
O16   C8    1.286602 A    
C128  C132  1.491986 S    
C115  H59   1.083500 S    
C48   C68   1.372884 A    
C67   C71   1.493742 S    
C82   C86   1.402815 A    
O38   Zn9   2.018195 S    
N1    N2    1.328970 A    
C107  C135  1.490325 S    
C90   C94   1.391285 A    
C118  H62   1.083457 S    
C111  C115  1.406450 A    
C22   C26   1.403038 A    
C54   H18   1.083654 S    
C117  H61   1.083449 S    
C19   C23   1.391323 A    
C33   C37   1.402117 A    
C35   C39   1.402136 A    
N7    N8    1.328890 A    
C81   H45   1.083074 S    
C133  N17   1.462915 S    
C46   C50   1.390143 A    
O20   C12   1.275717 A    
O29   C13   1.286469 A    
N11   N15   1.328851 A    
C6    C38   1.461307 S    
N12   N16   1.328851 A    
C95   H55   1.083200 S    
O47   Zn10  2.016360 S    
C76   H40   1.112167 S    
C114  H58   1.083516 S    
O41   C141  1.276276 A    
C80   C100  1.401865 A    
O43   C143  1.272591 A    
C72   H32   1.111672 S    
O5    C1    1.275123 A    
C57   H21   1.083574 S    
C73   H37   1.111609 S    
N10   N14   1.328812 A    
C71   H31   1.111673 S    
O8    C4    1.275118 A    
C17   C21   1.391219 A    
O36   C140  1.273215 A    
C106  C134  1.490979 S    
O34   Zn10  2.016947 S    
C70   H30   1.111553 S    
O25   C13   1.286506 A    
C118  C122  1.408306 A    
C49   C53   1.402569 A    
O27   C15   1.285981 A    
C78   H42   1.083221 S    
N12   C103  1.356414 A    
C51   C55   1.402626 A    
C96   C100  1.402119 A    
C48   C52   1.390231 A    
Zn2   O26   2.008564 S    
C79   C83   1.391637 A    
O16   Zn8   2.008564 S    
O33   C137  1.271177 A    
C80   C84   1.391639 A    
C125  C129  1.491480 S    
C120  H64   1.083454 S    
C9    C109  1.413611 S    
O14   C6    1.286599 A    
Zn6   O30   2.008130 S    
C28   C32   1.402725 A    
C122  C137  1.416684 S    
C89   H49   1.083069 S    
C74   H34   1.112157 S    
C127  C131  1.491985 S    
C24   C28   1.402739 A    
C129  H73   1.111945 S    
C114  C118  1.400219 A    
C92   H52   1.083076 S    
C1    C49   1.422998 S    
O10   C6    1.286199 A    
O3    Zn3   2.013670 S    
C72   H28   1.111552 S    
C78   C98   1.402032 A    
C69   H29   1.111553 S    
C94   H54   1.083250 S    
C108  C136  1.490319 S    
C134  N18   1.462921 S    
C84   H48   1.083048 S    
C23   C27   1.402739 A    
C134  H70   1.112811 S    
C46   C74   1.492863 S    
C53   C57   1.391804 A    
C14   C98   1.461522 S    
C4    C52   1.423222 S    
C64   C144  1.426383 S    
C130  C134  1.544987 S    
C36   C40   1.402134 A    
O13   Zn5   2.008564 S    
O23   C11   1.273973 A    
C32   H12   1.083094 S    
O15   Zn7   2.008564 S    
C74   H38   1.111608 S    
C122  C126  1.381990 A    
C59   C63   1.401513 A    
C60   C64   1.401514 A    
O40   Zn11  2.018195 S    
C52   C56   1.402622 A    
C136  N20   1.463640 S    
C58   H22   1.083575 S    
O17   C9    1.275751 A    
C94   C98   1.402060 A    
C86   C90   1.402912 A    
C77   C97   1.402030 A    
C131  H67   1.111603 S    
C86   C101  1.464009 S    
N20   O56   1.302254 A    
C79   C99   1.401864 A    
O4    C4    1.279102 A    
C82   H46   1.083074 S    
N1    C42   1.356363 A    
C2    C50   1.422989 S    
C96   H56   1.083199 S    
N3    C44   1.356232 A    
C81   C85   1.402815 A    
Zn7   O31   2.008129 S    
C105  C109  1.380542 A    
Zn8   O32   2.008130 S    
N18   O52   1.302252 A    
C71   C75   1.518367 S    
O47   C143  1.276192 A    
O48   C144  1.276195 A    
O1    C1    1.278986 A    
C66   C70   1.493805 S    
C33   H13   1.083341 S    
N4    C43   1.356231 A    
O44   Zn10  2.016027 S    
C124  C128  1.382300 A    
O7    C3    1.275118 A    
O44   C144  1.272594 A    
C47   C75   1.492863 S    
O21   C9    1.274016 A    
O28   C16   1.285982 A    
C131  C135  1.545283 S    
C29   H9    1.083054 S    
O40   C140  1.271337 A    
O30   C14   1.286467 A    
C105  C133  1.490940 S    
O41   Zn11  2.016023 S    
C20   C40   1.402163 A    
N10   C101  1.356230 A    
C25   C42   1.464396 S    
O48   Zn9   2.016358 S    
C123  C127  1.382319 A    
C27   C44   1.463782 S    
C107  C127  1.341321 A    
O39   Zn12  2.018195 S    
C116  H60   1.083495 S    
O42   Zn12  2.016027 S    
C87   C104  1.464126 S    
C65   C69   1.493801 S    
O42   C142  1.276280 A    
C119  H63   1.083455 S    
C68   C72   1.493743 S    
C129  H65   1.111327 S    
O6    C2    1.275121 A    
C56   C60   1.391737 A    
N2    C41   1.356362 A    
N5    N6    1.328748 A    
O37   C137  1.273181 A    
C131  H75   1.111692 S    
C70   H26   1.111794 S    
O35   Zn11  2.016951 S    
O26   C14   1.286508 A    
C31   H11   1.083093 S    
O34   C138  1.271200 A    
C21   H5    1.083065 S    
C23   H7    1.083087 S    
O13   C5    1.286599 A    
O45   Zn12  2.016360 S    
C107  C111  1.380111 A    
Zn3   O27   2.008564 S    
O46   Zn11  2.016358 S    
C80   H44   1.083181 S    
Zn4   O20   2.017993 S    
C26   C30   1.402981 A    
Zn5   O21   2.013670 S    
C75   H39   1.112166 S    
O12   Zn4   2.007961 S    
N15   C103  1.356147 A    
C130  H74   1.111953 S    
N17   O49   1.300439 A    
O15   C7    1.286605 A    
C72   C76   1.518367 S    
C75   H35   1.111567 S    
C69   H25   1.111794 S    
O39   C139  1.271329 A    
C106  C126  1.341300 A    
C87   C91   1.402551 A    
C110  C114  1.406674 A    
C77   C81   1.391123 A    
C129  C133  1.544989 S    
C21   C25   1.403036 A    
C45   C65   1.372800 A    
C53   H17   1.083653 S    
C34   C38   1.402118 A    
C18   C22   1.391222 A    
C36   H16   1.083203 S    
O14   Zn6   2.008564 S    
C91   H51   1.083075 S    
C45   C49   1.390148 A    
C132  C136  1.545293 S    
C30   C34   1.391347 A    
O11   C7    1.286467 A    
O12   C8    1.286467 A    
C17   C37   1.401799 A    
O1    Zn1   2.013670 S    
O9    Zn1   2.007961 S    
C19   C39   1.402161 A    
C60   H24   1.083589 S    
O4    Zn4   2.013672 S    
Zn2   O18   2.017993 S    
C106  C110  1.380593 A    
O5    Zn5   2.018415 S    
C41   N5    1.356235 A    
O18   C10   1.275788 A    
O7    Zn7   2.018415 S    
O8    Zn8   2.018414 S    
N16   C104  1.356149 A    
C85   C89   1.402910 A    
C83   H47   1.083047 S    
O24   C12   1.273979 A    
C48   C76   1.492864 S    
N3    N4    1.328796 A    
N9    N13   1.328814 A    
C50   C54   1.402563 A    
C117  C121  1.408383 A    
O46   C142  1.272573 A    
C63   C143  1.426380 S    
O2    C2    1.278980 A    
C108  C112  1.380136 A    
O31   C15   1.287020 A    
C126  C130  1.491446 S    
C57   C61   1.401560 A    
O32   C16   1.287026 A    
C91   C95   1.390767 A    
C132  H76   1.111693 S    
C89   C93   1.391287 A    
C62   C66   1.393105 A    
O22   C10   1.274043 A    
C115  C119  1.400252 A    
C61   C141  1.426474 S    
C120  C124  1.408526 A    
C18   C38   1.401804 A    
O37   Zn10  2.018195 S    
C93   H53   1.083248 S    
Zn7   O23   2.013670 S    
C42   N6    1.356233 A    
Zn8   O24   2.013674 S    
C116  C120  1.400248 A    
C29   C33   1.391350 A    
C92   C96   1.390769 A    
C113  H57   1.083526 S    
Zn1   O17   2.017987 S    
C47   C51   1.390231 A    
C54   C58   1.391804 A    
C123  C140  1.417072 S    
C130  H66   1.111329 S    
C56   H20   1.083635 S    
C55   C59   1.391738 A    
O45   C141  1.272566 A    
