data_mof_unit_25685.cif
_audit_creation_date              2013-03-05T16:31:07-0500
_audit_creation_method            fapswitch 2.2
_symmetry_space_group_name_H-M    P1
_symmetry_Int_Tables_number       1
_space_group_crystal_system       triclinic
_cell_length_a                    10.880312
_cell_length_b                    10.877687
_cell_length_c                    9.533097
_cell_angle_alpha                 90.992374
_cell_angle_beta                  88.127134
_cell_angle_gamma                 90.589349
_cell_volume                      1127.4418985

loop_
_atom_site_label
_atom_site_type_symbol
_atom_site_description
_atom_site_fract_x
_atom_site_fract_y
_atom_site_fract_z
_atom_type_partial_charge
O1    O     O_R   0.500000 0.319640 0.618810 -0.534570
O2    O     O_R   0.500010 0.319680 0.381230 -0.519815
C1    C     C_R   0.494833 0.262227 0.498574 0.904584
O3    O     O_R   0.319640 0.499980 0.618820 -0.618035
O4    O     O_R   0.319650 0.500020 0.381230 -0.534296
C2    C     C_R   0.261466 0.502325 0.503284 0.823345
Cu1   Cu    Cu3+1 0.499990 0.499980 0.640670 1.045333
Cu2   Cu    Cu3+1 0.500010 0.500020 0.359330 1.108891
O5    O     O_R   0.499990 0.680320 0.618770 -0.590729
O6    O     O_R   0.500000 0.680360 0.381190 -0.541424
O7    O     O_R   0.680350 0.499980 0.618770 -0.526690
O8    O     O_R   0.680360 0.500020 0.381180 -0.560143
C3    C     C_R   0.493559 0.737778 0.500876 0.856310
C4    C     C_R   0.737161 0.487380 0.496982 0.882581
H1    H     H_    0.122589 0.536714 0.288131 0.224565
C5    C     C_R   0.100696 0.456560 0.766522 -0.185058
H2    H     H_    0.182057 0.505080 0.797412 0.197596
C6    C     C_R   0.038149 0.390577 0.870924 -0.186700
H3    H     H_    0.078656 0.382790 0.972643 0.235025
C7    C     C_R   0.925947 0.333071 0.843666 0.308072
C8    C     C_R   0.870532 0.355401 0.715753 0.559019
C9    C     C_R   0.930268 0.429720 0.613017 -0.065272
C10   C     C_R   0.054395 0.463685 0.630166 0.030299
C11   C     C_R   0.126028 0.499911 0.509533 -0.127218
C12   C     C_R   0.068644 0.514628 0.382040 -0.183044
C13   C     C_R   0.943040 0.497792 0.370307 0.307320
C14   C     C_R   0.870970 0.466285 0.490818 -0.160531
C15   C     C_R   0.463926 0.066726 0.621490 -0.078622
C16   C     C_R   0.475799 0.129291 0.495371 -0.342007
C17   C     C_R   0.459468 0.060600 0.369223 0.230862
C18   C     C_R   0.455362 0.931824 0.373203 0.573685
C19   C     C_R   0.472857 0.870441 0.500427 -0.311917
C20   C     C_R   0.463165 0.940280 0.624458 -0.059473
C21   C     C_3   0.532196 0.940137 0.757153 0.439536
C22   C     C_3   0.532534 0.079413 0.753592 0.547733
H4    H     H_    0.625693 0.900541 0.744398 0.014855
H5    H     H_    0.625442 0.120868 0.739240 0.123216
C23   C     C_R   0.599180 0.543836 0.070899 0.162609
N1    N     N_R   0.500790 0.500930 0.147930 -0.248958
C24   C     C_R   0.410792 0.439668 0.076065 0.748425
C25   C     C_R   0.411043 0.439766 0.927201 -0.079852
H6    H     H_    0.339853 0.390400 0.872881 0.176954
N2    N     N_R   0.500790 0.500890 0.852020 -0.267174
C26   C     C_R   0.601142 0.539951 0.923456 0.229970
C27   C     C_3   0.660254 0.663042 0.915359 0.414945
C28   C     C_3   0.651772 0.670752 0.074342 -0.448759
H7    H     H_    0.603481 0.729020 0.861898 0.144804
H8    H     H_    0.741895 0.676855 0.124435 0.270661
H9    H     H_    0.584302 0.739753 0.113618 0.248253
F1    F     F_    0.460956 0.132772 0.860484 -0.521866
F2    F     F_    0.319932 0.378141 0.146345 -0.619427
F3    F     F_    0.780343 0.655743 0.863499 -0.607232
N3    N     N_R   0.869344 0.252467 0.945460 0.174413
O9    O     O_R   0.935421 0.201342 0.039333 -0.270419
O10   O     O_R   0.751393 0.231362 0.947339 -0.246293
F4    F     F_    0.765866 0.293399 0.684664 -0.669773
N4    N     N_R   0.893520 0.502359 0.232679 0.112481
O11   O     O_R   0.825657 0.411359 0.188863 -0.281297
O12   O     O_R   0.943125 0.575798 0.139997 -0.349922
N5    N     N_R   0.454171 0.117967 0.235576 0.203108
O13   O     O_R   0.555703 0.153165 0.171753 -0.233146
O14   O     O_R   0.354395 0.107662 0.164583 -0.172518
F5    F     F_    0.440864 0.868473 0.250883 -0.601365
F6    F     F_    0.460117 0.895132 0.867680 -0.555908

loop_
_geom_bond_atom_site_label_1
_geom_bond_atom_site_label_2
_geom_bond_distance
_ccdc_geom_bond_type
C13   N4    1.436379 S    
O4    Cu2   1.966651 S    
N2    C26   1.365834 A    
C23   C26   1.404956 A    
C16   C17   1.419927 A    
Cu2   N1    2.015232 S    
Cu1   N2    2.014977 S    
C4    C14   1.475305 S    
C8    F4    1.356074 S    
C24   F2    1.353783 S    
C25   H6    1.079119 S    
C3    C19   1.462925 S    
C21   H4    1.110980 S    
C18   C19   1.413790 A    
Cu2   O8    1.980048 S    
C2    C11   1.472846 S    
C19   C20   1.395956 A    
C22   F1    1.385183 S    
C21   F6    1.385954 S    
O2    C1    1.290161 A    
N4    O11   1.300120 A    
Cu1   Cu2   2.682042 S    
O1    Cu1   1.969128 S    
C27   C28   1.516316 S    
C11   C12   1.396790 A    
N5    O14   1.300774 A    
Cu1   O7    1.966651 S    
C25   N2    1.366251 A    
C28   H9    1.107278 S    
C1    C16   1.458615 S    
C13   C14   1.414714 A    
C17   C18   1.402169 A    
O3    Cu1   1.980046 S    
C7    N3    1.438412 S    
O3    C2    1.288900 A    
C15   C16   1.393472 A    
C22   H5    1.107987 S    
O8    C4    1.292731 A    
C15   C20   1.376151 A    
C20   C21   1.492157 S    
C5    C10   1.413014 A    
C6    C7    1.395905 A    
C9    C14   1.414912 A    
N3    O10   1.300997 A    
O4    C2    1.306304 A    
C21   C22   1.515929 S    
O7    C4    1.303125 A    
C28   H8    1.105504 S    
N4    O12   1.301734 A    
C23   C28   1.489241 S    
C10   C11   1.426903 A    
C5    H2    1.072828 S    
C18   F5    1.357011 S    
C23   N1    1.361364 A    
C7    C8    1.403853 A    
C15   C22   1.488460 S    
H1    C12   1.083454 S    
C5    C6    1.392572 A    
C6    H3    1.083176 S    
C27   H7    1.094875 S    
N1    C24   1.373637 A    
Cu1   O5    1.976353 S    
O5    C3    1.299630 A    
C9    C10   1.410417 A    
C24   C25   1.419072 A    
C27   F3    1.384376 S    
C12   C13   1.384856 A    
C8    C9    1.417807 A    
Cu2   O6    1.969129 S    
O2    Cu2   1.976354 S    
C26   C27   1.481555 S    
N3    O9    1.301729 A    
N5    O13   1.300994 A    
O1    C1    1.298343 A    
O6    C3    1.291446 A    
C17   N5    1.431450 S    
