data_mof_unit_19808.cif
_audit_creation_date              2013-03-05T15:48:36-0500
_audit_creation_method            fapswitch 2.2
_symmetry_space_group_name_H-M    P1
_symmetry_Int_Tables_number       1
_space_group_crystal_system       triclinic
_cell_length_a                    16.660894
_cell_length_b                    16.591232
_cell_length_c                    42.705928
_cell_angle_alpha                 89.908602
_cell_angle_beta                  90.319485
_cell_angle_gamma                 119.867172
_cell_volume                      10236.8964517

loop_
_atom_site_label
_atom_site_type_symbol
_atom_site_description
_atom_site_fract_x
_atom_site_fract_y
_atom_site_fract_z
_atom_type_partial_charge
O1    O     O_R   0.509640 0.171340 0.784000 -0.471913
O2    O     O_R   0.661700 0.490360 0.716000 -0.477225
O3    O     O_R   0.828660 0.338300 0.784000 -0.450014
O4    O     O_R   0.509640 0.171340 0.716000 -0.438292
O5    O     O_R   0.661700 0.490360 0.784000 -0.475661
O6    O     O_R   0.828660 0.338300 0.716000 -0.453159
O7    O     O_R   0.171340 0.509640 0.284000 -0.441830
O8    O     O_R   0.490360 0.661700 0.216000 -0.490059
O9    O     O_R   0.338300 0.828660 0.284000 -0.470833
O10   O     O_R   0.171340 0.509640 0.216000 -0.444590
O11   O     O_R   0.490360 0.661700 0.284000 -0.499773
O12   O     O_R   0.338300 0.828660 0.216000 -0.446007
O13   O     O_R   0.539230 0.345420 0.781810 -0.464290
O14   O     O_R   0.806190 0.460770 0.718190 -0.478510
O15   O     O_R   0.654580 0.193810 0.781810 -0.451338
O16   O     O_R   0.539230 0.345420 0.718190 -0.452126
O17   O     O_R   0.806190 0.460770 0.781810 -0.468976
O18   O     O_R   0.654580 0.193810 0.718190 -0.480674
O19   O     O_R   0.345420 0.539230 0.281810 -0.451102
O20   O     O_R   0.460770 0.806190 0.218190 -0.480093
O21   O     O_R   0.193810 0.654580 0.281810 -0.486184
O22   O     O_R   0.345420 0.539230 0.218190 -0.454555
O23   O     O_R   0.460770 0.806190 0.281810 -0.470909
O24   O     O_R   0.193810 0.654580 0.218190 -0.470100
C1    C     C_R   0.583037 0.426987 0.794604 0.573855
C2    C     C_R   0.843318 0.417251 0.705111 0.584337
C3    C     C_R   0.573930 0.156713 0.794666 0.567846
C4    C     C_R   0.582376 0.426786 0.705520 0.568633
C5    C     C_R   0.846743 0.419027 0.793883 0.567237
C6    C     C_R   0.571614 0.152138 0.706498 0.568369
C7    C     C_R   0.426578 0.583615 0.294974 0.571765
C8    C     C_R   0.416263 0.843135 0.205384 0.583264
C9    C     C_R   0.152950 0.572355 0.293723 0.569564
C10   C     C_R   0.426940 0.581805 0.205816 0.570865
C11   C     C_R   0.417034 0.843239 0.294947 0.588024
C12   C     C_R   0.152873 0.571925 0.206150 0.578124
Cr1   Cr    Cr6+3 0.530290 0.262330 0.750000 1.165277
Cr2   Cr    Cr6+3 0.732040 0.469710 0.750000 1.125983
Cr3   Cr    Cr6+3 0.737670 0.267960 0.750000 1.159158
Cr4   Cr    Cr6+3 0.262330 0.530290 0.250000 1.180623
Cr5   Cr    Cr6+3 0.469710 0.732040 0.250000 1.097981
Cr6   Cr    Cr6+3 0.267960 0.737670 0.250000 1.138955
O25   O     O_3   0.666667 0.333333 0.750000 -0.312482
O26   O     O_3   0.333333 0.666667 0.250000 -0.309641
H1    H     H_    0.784972 0.352169 0.980116 0.146483
H2    H     H_    0.387336 0.725661 0.545465 0.172992
H3    H     H_    0.691353 0.430001 0.983719 0.145348
H4    H     H_    0.723890 0.408102 0.508774 0.217498
H5    H     H_    0.530635 0.815651 0.961827 0.138643
H6    H     H_    0.575388 0.749949 0.538489 0.158016
H7    H     H_    0.371564 0.704434 0.489203 0.152353
H8    H     H_    0.799974 0.376163 0.036138 0.143995
H9    H     H_    0.570133 0.759227 0.482149 0.155419
H10   H     H_    0.547154 0.803845 0.017550 0.168582
H11   H     H_    0.755216 0.424414 0.453006 0.183474
H12   H     H_    0.671631 0.422523 0.039954 0.133595
C13   C     C_R   0.908604 0.461182 0.821976 0.007005
C14   C     C_R   0.549121 0.083497 0.680182 0.012816
C15   C     C_R   0.549685 0.445102 0.825044 0.011881
C16   C     C_R   0.890381 0.453743 0.673960 0.017003
C17   C     C_R   0.557589 0.103691 0.824603 0.002129
C18   C     C_R   0.539239 0.447619 0.678017 0.002024
C19   C     C_R   0.450551 0.888176 0.326674 0.021181
C20   C     C_R   0.092640 0.552444 0.177540 0.020453
C21   C     C_R   0.445184 0.552369 0.326029 0.010265
C22   C     C_R   0.451213 0.895213 0.175399 0.007546
C23   C     C_R   0.091107 0.555604 0.321493 0.018038
C24   C     C_R   0.448703 0.538887 0.178587 0.010505
C25   C     C_R   0.102825 0.612893 0.028452 -0.022714
C26   C     C_R   0.568886 0.016777 0.470576 -0.015541
C27   C     C_R   0.480274 0.548148 0.035084 -0.030676
C28   C     C_R   0.066776 0.623805 0.468771 -0.019458
C29   C     C_R   0.535219 0.071145 0.037887 -0.024376
C30   C     C_R   0.522540 0.462761 0.468721 -0.031259
C31   C     C_R   0.582347 0.041595 0.536436 -0.020542
C32   C     C_R   0.082700 0.592359 0.962488 -0.007500
C33   C     C_R   0.538753 0.456493 0.535241 -0.026111
C34   C     C_R   0.505801 0.079781 0.972354 -0.012585
C35   C     C_R   0.028777 0.608656 0.533613 -0.028682
C36   C     C_R   0.482086 0.532581 0.968611 -0.019645
C37   C     C_R   0.114706 0.609786 0.061232 0.377547
C38   C     C_R   0.551041 0.002880 0.437857 0.396633
C39   C     C_R   0.486110 0.558009 0.068161 0.389588
C40   C     C_R   0.085897 0.616900 0.436882 0.374060
C41   C     C_R   0.546813 0.061344 0.070413 0.386993
C42   C     C_R   0.505617 0.466537 0.436087 0.384222
C43   C     C_R   0.572508 0.054338 0.568665 0.401228
C44   C     C_R   0.071189 0.574249 0.929816 0.399954
C45   C     C_R   0.545993 0.457817 0.568457 0.391094
C46   C     C_R   0.493180 0.081374 0.939446 0.393637
C47   C     C_R   0.012962 0.583785 0.565656 0.382684
C48   C     C_R   0.481762 0.517474 0.935787 0.393907
O27   O     O_2   0.191853 0.652822 0.072980 -0.531188
O28   O     O_2   0.585927 0.068556 0.419799 -0.524335
O29   O     O_2   0.462228 0.608210 0.081136 -0.499087
O30   O     O_2   0.165380 0.657373 0.427335 -0.550754
O31   O     O_2   0.558755 0.122243 0.088991 -0.528337
O32   O     O_2   0.487078 0.400401 0.419067 -0.536846
O33   O     O_2   0.604521 0.132755 0.579382 -0.492964
O34   O     O_2   0.135519 0.617216 0.911903 -0.545817
O35   O     O_2   0.568641 0.406820 0.581678 -0.513648
O36   O     O_2   0.476020 0.138148 0.927638 -0.560210
O37   O     O_2   0.077132 0.617280 0.584317 -0.573838
O38   O     O_2   0.428199 0.526384 0.918472 -0.566098
N1    N     N_R   0.039542 0.556217 0.080114 -0.380657
N2    N     N_R   0.492883 0.915275 0.425955 -0.388625
N3    N     N_R   0.517570 0.509795 0.086188 -0.387494
N4    N     N_R   0.014943 0.563316 0.416251 -0.379970
N5    N     N_R   0.540699 0.980724 0.081762 -0.393520
N6    N     N_R   0.506669 0.543777 0.423281 -0.373468
N7    N     N_R   0.524643 0.978738 0.588146 -0.389451
N8    N     N_R   0.986811 0.508057 0.917770 -0.384492
N9    N     N_R   0.528504 0.517514 0.586224 -0.375596
N10   N     N_R   0.502151 0.019929 0.920114 -0.384261
N11   N     N_R   0.925738 0.519216 0.576013 -0.390628
N12   N     N_R   0.540501 0.490259 0.923018 -0.381300
C49   C     C_R   0.952983 0.500602 0.067273 0.410067
C50   C     C_R   0.449848 0.839137 0.445388 0.409401
C51   C     C_R   0.558004 0.464327 0.071994 0.423186
C52   C     C_R   0.924261 0.515463 0.426157 0.401204
C53   C     C_R   0.540563 0.915494 0.061869 0.419803
C54   C     C_R   0.525180 0.619314 0.441609 0.398849
C55   C     C_R   0.482002 0.889542 0.576208 0.421731
C56   C     C_R   0.914658 0.451006 0.937061 0.400290
C57   C     C_R   0.541878 0.598346 0.571980 0.410732
C58   C     C_R   0.509560 0.947003 0.932107 0.428865
C59   C     C_R   0.851989 0.478393 0.555359 0.423723
C60   C     C_R   0.598055 0.473122 0.941654 0.385698
O39   O     O_2   0.885834 0.459602 0.084279 -0.567407
O40   O     O_2   0.400255 0.762069 0.434160 -0.507038
O41   O     O_2   0.578231 0.414833 0.087352 -0.530066
O42   O     O_2   0.861885 0.474308 0.407108 -0.536985
O43   O     O_2   0.537548 0.845653 0.072568 -0.491556
O44   O     O_2   0.526884 0.687230 0.429767 -0.551344
O45   O     O_2   0.445974 0.823137 0.593904 -0.555609
O46   O     O_2   0.841938 0.390242 0.925737 -0.546656
O47   O     O_2   0.547501 0.662327 0.587468 -0.566125
O48   O     O_2   0.510089 0.889482 0.914403 -0.547770
O49   O     O_2   0.774190 0.425846 0.565134 -0.458206
O50   O     O_2   0.649864 0.449769 0.929697 -0.547102
C61   C     C_R   0.942481 0.488826 0.034763 0.041132
C62   C     C_R   0.461446 0.850292 0.478029 0.026374
C63   C     C_R   0.575147 0.474308 0.039697 0.068291
C64   C     C_R   0.903740 0.512793 0.458146 0.023700
C65   C     C_R   0.539350 0.926995 0.029386 0.060572
C66   C     C_R   0.540545 0.618099 0.473807 0.037205
C67   C     C_R   0.477695 0.875265 0.543612 0.069342
C68   C     C_R   0.924077 0.463089 0.969547 0.044562
C69   C     C_R   0.549841 0.608168 0.539281 0.042203
C70   C     C_R   0.518490 0.939899 0.964487 0.072423
C71   C     C_R   0.867027 0.495061 0.522980 0.044206
C72   C     C_R   0.594460 0.478577 0.974285 0.048074
C73   C     C_R   0.018152 0.545257 0.015173 -0.053861
C74   C     C_R   0.519701 0.939802 0.490665 -0.044413
C75   C     C_R   0.530910 0.510988 0.020860 -0.032547
C76   C     C_R   0.976090 0.564303 0.479641 -0.047498
C77   C     C_R   0.531579 0.002489 0.017336 -0.037625
C78   C     C_R   0.535131 0.538074 0.487677 -0.050797
C79   C     C_R   0.526696 0.952323 0.523560 -0.046904
C80   C     C_R   0.008420 0.533952 0.982342 -0.052006
C81   C     C_R   0.540884 0.533747 0.520696 -0.045838
C82   C     C_R   0.518952 0.007853 0.984707 -0.036785
C83   C     C_R   0.957330 0.556184 0.512108 -0.055424
C84   C     C_R   0.536312 0.508360 0.987855 -0.028369
C85   C     C_R   0.172259 0.680612 0.008790 0.043411
C86   C     C_R   0.634637 0.104107 0.483822 0.030857
C87   C     C_R   0.426292 0.573966 0.016071 -0.020979
C88   C     C_R   0.132543 0.690941 0.489787 0.013140
C89   C     C_R   0.522068 0.143600 0.025578 -0.016809
C90   C     C_R   0.523306 0.385376 0.483189 -0.019873
C91   C     C_R   0.645337 0.114934 0.516862 0.042964
C92   C     C_R   0.163760 0.668475 0.975775 0.043521
C93   C     C_R   0.530145 0.381683 0.516379 -0.021329
C94   C     C_R   0.507012 0.147734 0.993061 0.004333
C95   C     C_R   0.112866 0.683998 0.522324 0.018764
C96   C     C_R   0.426673 0.565665 0.982941 -0.020864
C97   C     C_R   0.858604 0.420733 0.021563 -0.151151
C98   C     C_R   0.415383 0.773970 0.498306 -0.131354
C99   C     C_R   0.633739 0.446771 0.025837 -0.116636
C100  C     C_R   0.812614 0.460342 0.469149 -0.104562
C101  C     C_R   0.539959 0.861343 0.008867 -0.064113
C102  C     C_R   0.560063 0.695245 0.492479 -0.140725
C103  C     C_R   0.424556 0.786096 0.530635 -0.076460
C104  C     C_R   0.850107 0.406878 0.989411 -0.143706
C105  C     C_R   0.563713 0.690095 0.524809 -0.142221
C106  C     C_R   0.529965 0.867849 0.976870 -0.071589
C107  C     C_R   0.794484 0.451484 0.501158 -0.054516
C108  C     C_R   0.645541 0.451742 0.993612 -0.136480
C109  C     C_R   0.052529 0.474167 0.126607 -0.009066
C110  C     C_R   0.404818 0.913743 0.378861 0.004306
C111  C     C_R   0.566601 0.546642 0.142279 -0.008948
C112  C     C_R   0.038585 0.479273 0.372480 -0.004611
C113  C     C_R   0.417351 0.915358 0.120902 0.016326
C114  C     C_R   0.558890 0.591553 0.368662 -0.004818
C115  C     C_R   0.448956 0.995743 0.635765 -0.007425
C116  C     C_R   0.984524 0.434912 0.867173 -0.006499
C117  C     C_R   0.527262 0.559565 0.643487 -0.007762
C118  C     C_R   0.446713 0.008654 0.865406 0.003802
C119  C     C_R   0.918021 0.418485 0.620328 0.005925
C120  C     C_R   0.588673 0.552869 0.869517 -0.005972
C121  C     C_R   0.067113 0.471963 0.159187 -0.043533
C122  C     C_R   0.393184 0.908544 0.345814 -0.023862
C123  C     C_R   0.542121 0.564940 0.172128 -0.024081
C124  C     C_R   0.060600 0.475714 0.340613 -0.047050
C125  C     C_R   0.387148 0.884876 0.151565 -0.008403
C126  C     C_R   0.538341 0.589526 0.336326 -0.029778
C127  C     C_R   0.461239 0.041090 0.664960 -0.034222
C128  C     C_R   0.955736 0.417674 0.835427 -0.037502
C129  C     C_R   0.561219 0.540538 0.671284 -0.046513
C130  C     C_R   0.465930 0.037419 0.833645 -0.039857
C131  C     C_R   0.905980 0.396745 0.652832 -0.026695
C132  C     C_R   0.591425 0.537400 0.836992 -0.034044
C133  C     C_R   0.073830 0.621343 0.165617 -0.047061
C134  C     C_R   0.530496 0.891715 0.340389 -0.026998
C135  C     C_R   0.378380 0.476842 0.157690 -0.012036
C136  C     C_R   0.074214 0.627514 0.331589 -0.030696
C137  C     C_R   0.547645 0.945473 0.168947 -0.030631
C138  C     C_R   0.372618 0.502254 0.347768 -0.023820
C139  C     C_R   0.616871 0.062025 0.669082 -0.029178
C140  C     C_R   0.912289 0.538580 0.837770 -0.028361
C141  C     C_R   0.474678 0.375544 0.657813 -0.001792
C142  C     C_R   0.631448 0.129535 0.846338 -0.028235
C143  C     C_R   0.902221 0.539961 0.662833 -0.032121
C144  C     C_R   0.490021 0.370002 0.844796 -0.036255
C145  C     C_R   0.060571 0.625628 0.132929 -0.018486
C146  C     C_R   0.540833 0.894084 0.373396 0.005207
C147  C     C_R   0.402370 0.455541 0.128389 0.014568
C148  C     C_R   0.051977 0.631850 0.363226 0.004620
C149  C     C_R   0.578228 0.972340 0.137645 0.011358
C150  C     C_R   0.392719 0.499364 0.379921 0.015219
C151  C     C_R   0.606933 0.022449 0.638933 -0.000865
C152  C     C_R   0.941535 0.556470 0.869368 -0.004332
C153  C     C_R   0.451331 0.399047 0.628565 0.018574
C154  C     C_R   0.612731 0.101035 0.877861 -0.002413
C155  C     C_R   0.904230 0.556645 0.630224 -0.000426
C156  C     C_R   0.487235 0.384929 0.877304 -0.000706
C157  C     C_R   0.052781 0.552947 0.113462 0.240601
C158  C     C_R   0.477238 0.904048 0.392475 0.245505
C159  C     C_R   0.496364 0.500011 0.119372 0.227635
C160  C     C_R   0.036340 0.558527 0.383761 0.248152
C161  C     C_R   0.512331 0.955283 0.113784 0.241179
C162  C     C_R   0.485888 0.544872 0.390284 0.243418
C163  C     C_R   0.525397 0.996015 0.621426 0.231214
C164  C     C_R   0.971618 0.500158 0.884378 0.235913
C165  C     C_R   0.499066 0.493140 0.619038 0.186617
C166  C     C_R   0.520233 0.042548 0.887364 0.235143
C167  C     C_R   0.912435 0.495918 0.609023 0.239656
C168  C     C_R   0.539377 0.475903 0.889619 0.243372
C169  C     C_2   0.888599 0.603231 0.821447 0.257110
H13   H     H_    0.842591 0.623640 0.832197 0.077397
O51   O     O_2   0.923769 0.637255 0.796295 -0.438777
C170  C     C_2   0.695201 0.075162 0.689434 0.254471
H14   H     H_    0.764997 0.106676 0.680448 0.098864
O52   O     O_2   0.681275 0.047391 0.716446 -0.446954
C171  C     C_2   0.429855 0.275398 0.831847 0.247642
H15   H     H_    0.433277 0.216227 0.841056 0.089361
O53   O     O_2   0.374140 0.262894 0.811080 -0.454554
C172  C     C_2   0.917714 0.615204 0.685277 0.262409
H16   H     H_    0.891433 0.662040 0.680600 0.098749
O54   O     O_2   0.962914 0.627064 0.709178 -0.437972
C173  C     C_2   0.729112 0.189412 0.836926 0.236160
H17   H     H_    0.769338 0.259140 0.846343 0.082653
O55   O     O_2   0.765744 0.159465 0.819357 -0.465311
C174  C     C_2   0.436042 0.275975 0.665354 0.229201
H18   H     H_    0.450823 0.232356 0.650329 0.087891
O56   O     O_2   0.383501 0.241286 0.687413 -0.466740
C175  C     C_2   0.605342 0.896053 0.320321 0.261300
H19   H     H_    0.640100 0.857576 0.326311 0.079962
O57   O     O_2   0.630845 0.945654 0.297138 -0.427646
C176  C     C_2   0.061314 0.684041 0.187517 0.268655
H20   H     H_    0.072018 0.751047 0.180132 0.137350
O58   O     O_2   0.033756 0.658869 0.214129 -0.417947
C177  C     C_2   0.274899 0.453417 0.337522 0.245583
H21   H     H_    0.226407 0.469919 0.348404 0.054247
O59   O     O_2   0.247479 0.391329 0.318057 -0.441135
C178  C     C_2   0.616483 0.974184 0.195049 0.257989
H22   H     H_    0.684862 0.983686 0.191314 0.105973
O60   O     O_2   0.598527 0.991232 0.221052 -0.421258
C179  C     C_2   0.074326 0.695363 0.308675 0.262853
H23   H     H_    0.103414 0.768105 0.314595 0.094004
O61   O     O_2   0.038585 0.669155 0.282915 -0.411853
C180  C     C_2   0.279266 0.437733 0.165026 0.228234
H24   H     H_    0.236850 0.455825 0.150606 0.069724
O62   O     O_2   0.244033 0.382161 0.186381 -0.464216
C181  C     C_2   0.234533 0.740774 0.955228 0.356255
H25   H     H_    0.216717 0.783796 0.940987 0.065569
O63   O     O_2   0.311789 0.750192 0.953372 -0.423686
C182  C     C_2   0.729714 0.194809 0.531337 0.294470
H26   H     H_    0.752326 0.187697 0.554530 0.117272
O64   O     O_2   0.776757 0.268022 0.517680 -0.492175
C183  C     C_2   0.368142 0.591036 0.963578 0.354416
H27   H     H_    0.399150 0.642109 0.945045 0.165734
O65   O     O_2   0.284734 0.553353 0.967785 -0.468092
C184  C     C_2   0.173723 0.760502 0.544053 0.298393
H28   H     H_    0.142882 0.780358 0.562608 0.109638
O66   O     O_2   0.257747 0.801580 0.541612 -0.506881
C185  C     C_2   0.500013 0.227853 0.980717 0.271524
H29   H     H_    0.549012 0.273149 0.963339 0.144633
O67   O     O_2   0.438193 0.241978 0.989127 -0.474363
C186  C     C_2   0.521018 0.296306 0.531383 0.355713
H30   H     H_    0.473845 0.264382 0.550801 0.125386
O68   O     O_2   0.566919 0.261938 0.522571 -0.419361
C187  C     C_2   0.695039 0.182548 0.463229 0.367622
H31   H     H_    0.745832 0.178372 0.448633 0.087400
O69   O     O_2   0.684902 0.250264 0.461524 -0.458556
C188  C     C_2   0.243165 0.770832 0.022867 0.290920
H32   H     H_    0.226201 0.795619 0.043829 0.089971
O70   O     O_2   0.319763 0.818284 0.011562 -0.456823
C189  C     C_2   0.516850 0.307889 0.463820 0.350593
H33   H     H_    0.564653 0.322667 0.444638 0.165638
O71   O     O_2   0.456866 0.227626 0.468678 -0.477839
C190  C     C_2   0.524635 0.216207 0.046490 0.315509
H34   H     H_    0.588694 0.264514 0.058215 0.144801
O72   O     O_2   0.454461 0.219742 0.051648 -0.442801
C191  C     C_2   0.214267 0.775325 0.477378 0.296853
H35   H     H_    0.266398 0.769783 0.464254 0.171666
O73   O     O_2   0.222852 0.852031 0.481523 -0.506466
C192  C     C_2   0.363206 0.602083 0.030846 0.347359
H36   H     H_    0.319671 0.562439 0.050292 0.140235
O74   O     O_2   0.360648 0.670498 0.021802 -0.415463
C193  C     C_3   0.942023 0.636355 0.887247 -0.268566
C194  C     C_3   0.848595 0.605821 0.902891 -0.276782
C195  C     C_3   0.851937 0.684167 0.922540 -0.458088
H37   H     H_    0.906966 0.707018 0.940725 0.148386
H38   H     H_    0.865666 0.744170 0.907412 0.144297
H39   H     H_    0.784644 0.659143 0.934477 0.159222
H40   H     H_    0.793176 0.583922 0.884905 0.167500
H41   H     H_    0.830465 0.545842 0.918482 0.240932
H42   H     H_    0.997367 0.664574 0.905277 0.159931
H43   H     H_    0.960266 0.696489 0.871594 0.134347
C196  C     C_3   0.678836 0.999991 0.626189 -0.247507
C197  C     C_3   0.662140 0.906886 0.639366 -0.288786
C198  C     C_3   0.728354 0.878576 0.625337 -0.443270
H44   H     H_    0.716857 0.867792 0.599670 0.172870
H45   H     H_    0.801265 0.932739 0.630011 0.152714
H46   H     H_    0.715540 0.812510 0.636251 0.145366
H47   H     H_    0.671187 0.911347 0.665205 0.184780
H48   H     H_    0.590021 0.852037 0.633988 0.204750
H49   H     H_    0.676327 0.995571 0.600268 0.154422
H50   H     H_    0.750044 0.056399 0.631659 0.108589
C199  C     C_3   0.428649 0.303569 0.899042 -0.223963
C200  C     C_3   0.327357 0.280085 0.898954 -0.310584
C201  C     C_3   0.267676 0.193704 0.918533 -0.432762
H51   H     H_    0.269761 0.132720 0.908788 0.169709
H52   H     H_    0.292681 0.205008 0.943173 0.208383
H53   H     H_    0.194895 0.178808 0.918217 0.137275
H54   H     H_    0.322897 0.339361 0.908980 0.203289
H55   H     H_    0.299519 0.267811 0.874664 0.189532
H56   H     H_    0.433800 0.241875 0.892275 0.170255
H57   H     H_    0.454456 0.317937 0.923477 0.201983
C202  C     C_3   0.895263 0.638018 0.617820 -0.252480
C203  C     C_3   0.794116 0.615448 0.619330 -0.300525
C204  C     C_3   0.783320 0.695208 0.606419 -0.454099
H58   H     H_    0.828584 0.760261 0.619522 0.146853
H59   H     H_    0.801506 0.705950 0.581187 0.159640
H60   H     H_    0.710433 0.678305 0.609017 0.188532
H61   H     H_    0.749827 0.551934 0.605311 0.235114
H62   H     H_    0.768954 0.601682 0.643858 0.151705
H63   H     H_    0.941442 0.702557 0.631006 0.128245
H64   H     H_    0.918273 0.654898 0.593208 0.166714
C205  C     C_3   0.691775 0.136140 0.901808 -0.236632
C206  C     C_3   0.742455 0.080369 0.900373 -0.302941
C207  C     C_3   0.822659 0.117836 0.923752 -0.457202
H65   H     H_    0.873403 0.191634 0.918501 0.165352
H66   H     H_    0.796643 0.112601 0.947995 0.155108
H67   H     H_    0.858239 0.076469 0.922170 0.143211
H68   H     H_    0.693565 0.006445 0.905964 0.189179
H69   H     H_    0.770043 0.083587 0.876529 0.200168
H70   H     H_    0.741230 0.211078 0.897981 0.170606
H71   H     H_    0.667291 0.133098 0.926060 0.155936
C208  C     C_3   0.376835 0.325482 0.607409 -0.245277
C209  C     C_3   0.279610 0.288234 0.621067 -0.307679
C210  C     C_3   0.206374 0.211246 0.600529 -0.453941
H72   H     H_    0.207647 0.237492 0.576485 0.150022
H73   H     H_    0.218964 0.151564 0.599355 0.160013
H74   H     H_    0.136732 0.186845 0.610624 0.154985
H75   H     H_    0.275236 0.260208 0.644970 0.215087
H76   H     H_    0.263634 0.345593 0.622558 0.155605
H77   H     H_    0.376004 0.354897 0.584132 0.147589
H78   H     H_    0.391377 0.267838 0.603408 0.149587
C211  C     C_3   0.617616 0.882415 0.388593 -0.234863
C212  C     C_3   0.712235 0.971621 0.387353 -0.307730
C213  C     C_3   0.787562 0.955663 0.401471 -0.467402
H79   H     H_    0.855417 0.020776 0.400162 0.151271
H80   H     H_    0.772238 0.934829 0.426426 0.152688
H81   H     H_    0.792297 0.900434 0.388330 0.153420
H82   H     H_    0.731474 0.996093 0.362917 0.190415
H83   H     H_    0.709442 0.027324 0.400770 0.198667
H84   H     H_    0.602220 0.861723 0.413476 0.206609
H85   H     H_    0.620776 0.823733 0.377364 0.133495
C214  C     C_3   0.059173 0.709220 0.118392 -0.257363
C215  C     C_3   0.962451 0.698322 0.118542 -0.305241
C216  C     C_3   0.962013 0.780274 0.102434 -0.458077
H86   H     H_    0.010189 0.846266 0.114590 0.163197
H87   H     H_    0.983115 0.784721 0.077572 0.148261
H88   H     H_    0.891144 0.770676 0.103142 0.145034
H89   H     H_    0.913492 0.633616 0.105957 0.197333
H90   H     H_    0.938866 0.694566 0.143014 0.159818
H91   H     H_    0.108801 0.774375 0.130488 0.143490
H92   H     H_    0.084461 0.721005 0.094007 0.165281
C217  C     C_3   0.314839 0.450879 0.403718 -0.256867
C218  C     C_3   0.285833 0.518122 0.417361 -0.291150
C219  C     C_3   0.228172 0.478702 0.446931 -0.445225
H93   H     H_    0.167048 0.409423 0.442165 0.142160
H94   H     H_    0.270736 0.471868 0.465741 0.153013
H95   H     H_    0.203978 0.526313 0.455249 0.184882
H96   H     H_    0.347739 0.585273 0.423446 0.255437
H97   H     H_    0.245095 0.532192 0.399738 0.171409
H98   H     H_    0.253541 0.390116 0.393176 0.137380
H99   H     H_    0.335976 0.420442 0.422933 0.190582
C220  C     C_3   0.680793 0.021496 0.129588 -0.242899
C221  C     C_3   0.716330 0.952232 0.127092 -0.305247
C222  C     C_3   0.820719 0.002235 0.121943 -0.458008
H100  H     H_    0.838397 0.040824 0.099460 0.149327
H101  H     H_    0.857447 0.051494 0.141442 0.168852
H102  H     H_    0.844515 0.950543 0.120998 0.149970
H103  H     H_    0.699986 0.909371 0.148606 0.155710
H104  H     H_    0.681876 0.904309 0.107137 0.221318
H105  H     H_    0.694572 0.059590 0.107086 0.175386
H106  H     H_    0.721206 0.076021 0.147303 0.144872
C223  C     C_3   0.046444 0.715560 0.375209 -0.243963
C224  C     C_3   0.953751 0.708373 0.366719 -0.299733
C225  C     C_3   0.952470 0.796588 0.375908 -0.460392
H107  H     H_    0.965047 0.809607 0.401455 0.152552
H108  H     H_    0.006565 0.857211 0.362891 0.168517
H109  H     H_    0.883951 0.788793 0.370052 0.145012
H110  H     H_    0.939204 0.696399 0.341253 0.190846
H111  H     H_    0.898370 0.648257 0.379361 0.197643
H112  H     H_    0.055014 0.723398 0.400924 0.180056
H113  H     H_    0.105078 0.780750 0.365996 0.105475
C226  C     C_3   0.327768 0.385150 0.106396 -0.241863
C227  C     C_3   0.292450 0.285446 0.117903 -0.283126
C228  C     C_3   0.218122 0.214684 0.095999 -0.443203
H114  H     H_    0.158243 0.226664 0.094689 0.144750
H115  H     H_    0.246673 0.219989 0.072154 0.185690
H116  H     H_    0.193663 0.143403 0.105010 0.151246
H117  H     H_    0.351128 0.271463 0.119004 0.206581
H118  H     H_    0.262832 0.276005 0.141725 0.205018
H119  H     H_    0.269807 0.399793 0.104107 0.119991
H120  H     H_    0.353986 0.389187 0.082327 0.172166
C229  C     C_2   0.050351 0.383960 0.174187 0.278188
H121  H     H_    0.069544 0.337982 0.162658 0.111249
O75   O     O_2   0.011121 0.360152 0.199397 -0.416892
C230  C     C_2   0.323133 0.928005 0.331435 0.254571
H122  H     H_    0.254784 0.899967 0.341420 0.070050
O76   O     O_2   0.342920 0.979118 0.308719 -0.431524
C231  C     C_2   0.614179 0.608931 0.196941 0.255866
H123  H     H_    0.681519 0.667878 0.191748 0.097880
O77   O     O_2   0.598882 0.578000 0.223530 -0.412246
C232  C     C_2   0.046788 0.387082 0.327076 0.274965
H124  H     H_    0.062504 0.341163 0.340507 0.111641
O78   O     O_2   0.012909 0.362121 0.301005 -0.405367
C233  C     C_2   0.286787 0.836246 0.157707 0.221887
H125  H     H_    0.243877 0.766087 0.149143 0.088992
O79   O     O_2   0.252262 0.875361 0.171782 -0.496119
C234  C     C_2   0.613562 0.621012 0.312848 0.278214
H126  H     H_    0.677386 0.686554 0.315272 0.089854
O80   O     O_2   0.604002 0.572583 0.290091 -0.400641
C235  C     C_2   0.379881 0.039305 0.679764 0.267457
H127  H     H_    0.336847 0.059194 0.666479 0.109812
O81   O     O_2   0.357698 0.010835 0.706494 -0.414337
C236  C     C_2   0.977926 0.356715 0.816182 0.279567
H128  H     H_    0.971819 0.293404 0.825748 0.123494
O82   O     O_2   0.006425 0.378776 0.789477 -0.429044
C237  C     C_2   0.610672 0.618235 0.693885 0.238506
H129  H     H_    0.654933 0.688177 0.685160 0.092812
O83   O     O_2   0.597387 0.606292 0.722005 -0.405728
C238  C     C_2   0.390297 0.996555 0.809762 0.265746
H130  H     H_    0.320094 0.978329 0.815604 0.113479
O84   O     O_2   0.405427 0.979770 0.783304 -0.421269
C239  C     C_2   0.913030 0.316146 0.664477 0.243617
H131  H     H_    0.876816 0.249607 0.652635 0.070246
O85   O     O_2   0.962743 0.324777 0.686828 -0.441857
C240  C     C_2   0.636900 0.618181 0.815379 0.260351
H132  H     H_    0.700591 0.680256 0.821914 0.096991
O86   O     O_2   0.601382 0.616845 0.790166 -0.408367
C241  C     C_3   0.040671 0.394629 0.105483 -0.241557
C242  C     C_3   0.943273 0.308620 0.107983 -0.276919
C243  C     C_3   0.918337 0.247749 0.078767 -0.448107
H133  H     H_    0.919079 0.287542 0.057712 0.168698
H134  H     H_    0.968219 0.222452 0.075579 0.145279
H135  H     H_    0.847677 0.187046 0.081256 0.142031
H136  H     H_    0.939623 0.265977 0.128546 0.150966
H137  H     H_    0.890190 0.329527 0.111294 0.229516
H138  H     H_    0.055221 0.417510 0.080735 0.173790
H139  H     H_    0.093937 0.375240 0.111241 0.096727
C244  C     C_3   0.339490 0.928518 0.399932 -0.240670
C245  C     C_3   0.362300 0.030312 0.400093 -0.287764
C246  C     C_3   0.297211 0.043821 0.421656 -0.399956
H140  H     H_    0.224233 0.999236 0.413949 0.146914
H141  H     H_    0.305026 0.026038 0.446151 0.223129
H142  H     H_    0.314253 0.117582 0.420938 0.192417
H143  H     H_    0.434494 0.075709 0.408342 0.240735
H144  H     H_    0.356197 0.052908 0.376166 0.189447
H145  H     H_    0.266615 0.881907 0.392617 0.127020
H146  H     H_    0.342276 0.907796 0.424406 0.194315
C247  C     C_3   0.664110 0.563904 0.136756 -0.242931
C248  C     C_3   0.673488 0.484396 0.151824 -0.271229
C249  C     C_3   0.762108 0.485948 0.142310 -0.395587
H147  H     H_    0.768682 0.488785 0.116441 0.208767
H148  H     H_    0.822523 0.546382 0.153169 0.153633
H149  H     H_    0.760579 0.421880 0.150775 0.186691
H150  H     H_    0.672648 0.489147 0.177744 0.191581
H151  H     H_    0.613808 0.416083 0.144960 0.226385
H152  H     H_    0.680901 0.570127 0.111555 0.180257
H153  H     H_    0.717156 0.631784 0.146476 0.106258
C250  C     C_3   0.024895 0.402278 0.395106 -0.256905
C251  C     C_3   0.928872 0.315188 0.392101 -0.271987
C252  C     C_3   0.922177 0.237068 0.412793 -0.464172
H154  H     H_    0.974963 0.218292 0.405867 0.154260
H155  H     H_    0.932657 0.258681 0.437779 0.156534
H156  H     H_    0.852675 0.174848 0.410045 0.146511
H157  H     H_    0.874626 0.331296 0.399333 0.235446
H158  H     H_    0.914030 0.289975 0.367571 0.186173
H159  H     H_    0.079922 0.384251 0.391187 0.109052
H160  H     H_    0.034752 0.426499 0.419759 0.169139
C253  C     C_3   0.347254 0.903737 0.095493 -0.236877
C254  C     C_3   0.319758 0.979229 0.097967 -0.292975
C255  C     C_3   0.253654 0.970673 0.071654 -0.445913
H161  H     H_    0.286443 0.977164 0.048500 0.186146
H162  H     H_    0.188538 0.902725 0.073087 0.129078
H163  H     H_    0.236452 0.027028 0.073871 0.166227
H164  H     H_    0.285578 0.973979 0.120686 0.206590
H165  H     H_    0.382260 0.049136 0.096732 0.235156
H166  H     H_    0.374164 0.905711 0.071708 0.189801
H167  H     H_    0.284696 0.833898 0.097170 0.155800
C256  C     C_3   0.658041 0.645168 0.380901 -0.250492
C257  C     C_3   0.696424 0.580865 0.389535 -0.263922
C258  C     C_3   0.750746 0.610910 0.420301 -0.453590
H168  H     H_    0.806154 0.684767 0.419211 0.148363
H169  H     H_    0.704135 0.602178 0.440061 0.155757
H170  H     H_    0.782662 0.567562 0.424847 0.178418
H171  H     H_    0.640680 0.507490 0.391735 0.227243
H172  H     H_    0.741901 0.582354 0.370389 0.173178
H173  H     H_    0.705918 0.698250 0.364281 0.087917
H174  H     H_    0.661017 0.688193 0.401161 0.183576
C259  C     C_3   0.352184 0.937016 0.622087 -0.236526
C260  C     C_3   0.298349 0.848252 0.641904 -0.295242
C261  C     C_3   0.213516 0.773810 0.624938 -0.400434
H175  H     H_    0.167382 0.801205 0.617896 0.154522
H176  H     H_    0.235735 0.750162 0.604138 0.227618
H177  H     H_    0.174624 0.713314 0.640675 0.183580
H178  H     H_    0.343760 0.819112 0.647939 0.193895
H179  H     H_    0.275162 0.864321 0.664137 0.198288
H180  H     H_    0.314875 0.976806 0.621410 0.108966
H181  H     H_    0.354062 0.917987 0.597401 0.214279
C262  C     C_3   0.031435 0.386269 0.882764 -0.248611
C263  C     C_3   0.133267 0.430978 0.872924 -0.282238
C264  C     C_3   0.183597 0.389699 0.890896 -0.426854
H182  H     H_    0.183726 0.402868 0.916409 0.198481
H183  H     H_    0.149838 0.313622 0.886653 0.143542
H184  H     H_    0.256367 0.422896 0.882781 0.191814
H185  H     H_    0.138297 0.420518 0.847502 0.181601
H186  H     H_    0.169104 0.506990 0.877456 0.230471
H187  H     H_    0.028744 0.389130 0.908657 0.180386
H188  H     H_    0.993715 0.310953 0.877160 0.112675
C265  C     C_3   0.478631 0.616830 0.647749 -0.216679
C266  C     C_3   0.379699 0.569350 0.634052 -0.276766
C267  C     C_3   0.329878 0.622582 0.642225 -0.433230
H189  H     H_    0.320796 0.622962 0.667960 0.173045
H190  H     H_    0.370261 0.695084 0.633835 0.209687
H191  H     H_    0.260565 0.588943 0.630848 0.157798
H192  H     H_    0.381084 0.563797 0.608188 0.202501
H193  H     H_    0.339296 0.498185 0.643874 0.159555
H194  H     H_    0.470912 0.626501 0.673100 0.153131
H195  H     H_    0.521435 0.688187 0.638660 0.193832
C268  C     C_3   0.347672 0.944230 0.876140 -0.246317
C269  C     C_3   0.311714 0.843121 0.865746 -0.286281
C270  C     C_3   0.206112 0.788816 0.864048 -0.416227
H196  H     H_    0.175892 0.790478 0.886962 0.156981
H197  H     H_    0.180982 0.819149 0.845908 0.159378
H198  H     H_    0.182132 0.715423 0.857627 0.203819
H199  H     H_    0.338941 0.839942 0.842388 0.188529
H200  H     H_    0.335813 0.808686 0.882698 0.231791
H201  H     H_    0.341049 0.944499 0.901973 0.181216
H202  H     H_    0.302731 0.971145 0.867263 0.117303
C271  C     C_3   0.939653 0.361005 0.597622 -0.232020
C272  C     C_3   0.041651 0.386655 0.600149 -0.298509
C273  C     C_3   0.064468 0.331372 0.576886 -0.462711
H203  H     H_    0.021996 0.255759 0.581731 0.151194
H204  H     H_    0.051077 0.345470 0.552538 0.163726
H205  H     H_    0.138753 0.352204 0.579114 0.145465
H206  H     H_    0.086846 0.461931 0.595291 0.208519
H207  H     H_    0.057677 0.372716 0.624145 0.186484
H208  H     H_    0.893455 0.285656 0.601864 0.115644
H209  H     H_    0.925146 0.371353 0.573033 0.189808
C274  C     C_3   0.641364 0.651027 0.883117 -0.254650
C275  C     C_3   0.593409 0.707732 0.875930 -0.279830
C276  C     C_3   0.650004 0.806698 0.888483 -0.442874
H210  H     H_    0.653652 0.806214 0.914466 0.149713
H211  H     H_    0.721210 0.841089 0.878803 0.150879
H212  H     H_    0.616705 0.847403 0.881241 0.203302
H213  H     H_    0.583829 0.711446 0.850368 0.187293
H214  H     H_    0.523914 0.674309 0.886834 0.222829
H215  H     H_    0.649493 0.650133 0.908862 0.161271
H216  H     H_    0.713227 0.687114 0.874072 0.110903

loop_
_geom_bond_atom_site_label_1
_geom_bond_atom_site_label_2
_geom_bond_distance
_ccdc_geom_bond_type
C211  H85   1.110623 S    
C88   C95   1.420720 A    
C235  H127  1.084142 S    
C171  O53   1.220989 D    
C185  O67   1.220476 D    
C38   O28   1.221235 D    
C19   C122  1.423769 A    
C137  C178  1.492710 S    
C51   C63   1.402824 A    
H11   C100  1.082271 S    
N4    C52   1.379593 Am   
C183  H27   1.085255 S    
C52   C64   1.405380 A    
C268  C269  1.539000 S    
C109  C157  1.419763 A    
C120  C168  1.414902 A    
C187  O69   1.218450 D    
C206  H69   1.109806 S    
C276  H210  1.111222 S    
C85   C188  1.493761 S    
C33   C45   1.422243 A    
C180  H24   1.083773 S    
C222  H100  1.109937 S    
C59   O49   1.222230 D    
C134  C175  1.488972 S    
C120  C274  1.527607 S    
C170  O52   1.221340 D    
C219  H94   1.111101 S    
N8    C56   1.376622 Am   
C130  C238  1.491596 S    
C200  H54   1.109296 S    
C55   C67   1.407848 A    
C236  O82   1.221347 D    
C198  H46   1.109364 S    
O21   C9    1.288424 A    
C145  C157  1.417099 A    
C209  C210  1.526125 S    
O10   Cr4   1.995898 S    
C68   C80   1.415451 A    
C18   C141  1.429444 A    
O12   Cr6   2.002656 S    
C54   C66   1.399213 A    
H5    C106  1.083668 S    
C262  C263  1.535852 S    
C257  C258  1.527555 S    
C249  H148  1.106643 S    
N7    C163  1.449035 S    
C89   C94   1.417408 A    
C238  O84   1.221422 D    
H7    C98   1.083734 S    
O1    Cr1   1.996736 S    
C115  C259  1.522098 S    
C217  H98   1.110377 S    
C196  H50   1.108923 S    
O3    Cr3   1.996803 S    
C222  H101  1.110946 S    
N2    C50   1.378328 Am   
O7    C9    1.292022 A    
C263  H185  1.109940 S    
Cr6   O26   1.962652 S    
C204  H59   1.110813 S    
C251  H157  1.107957 S    
C225  H109  1.110119 S    
C127  C235  1.485760 S    
C45   N9    1.390677 Am   
C191  O73   1.220891 D    
C195  H37   1.110980 S    
C205  H71   1.107115 S    
C208  H77   1.109788 S    
C91   C182  1.500678 S    
C210  H74   1.110500 S    
C10   C24   1.501734 S    
C254  H164  1.108952 S    
C252  H155  1.111043 S    
C200  C201  1.525751 S    
C270  H198  1.110352 S    
C99   C108  1.387800 A    
C265  C266  1.541790 S    
C102  C105  1.386029 A    
C36   C48   1.423909 A    
C121  C229  1.487646 S    
C231  O77   1.220178 D    
C100  C107  1.393282 A    
C35   C95   1.420962 A    
C250  H160  1.109331 S    
O14   Cr2   1.896195 S    
C65   C77   1.417434 A    
N6    C162  1.451420 S    
O15   C3    1.291992 A    
C187  H31   1.083465 S    
C56   O46   1.223366 D    
C242  H137  1.108872 S    
C228  H116  1.110447 S    
C203  C204  1.523549 S    
C248  C249  1.521362 S    
C112  C124  1.420395 A    
O14   C2    1.290727 A    
C48   N12   1.380533 Am   
O15   Cr3   1.895987 S    
C253  H167  1.109860 S    
C28   C40   1.418067 A    
C57   C69   1.405020 A    
O5    C1    1.288761 A    
C227  C228  1.526258 S    
C139  C170  1.486856 S    
C211  C212  1.534712 S    
C53   C65   1.401386 A    
C269  H200  1.111588 S    
C213  H79   1.110124 S    
C142  C173  1.480602 S    
C147  C226  1.528304 S    
C186  H30   1.084977 S    
C276  H212  1.109104 S    
C7    C21   1.508965 S    
C266  C267  1.524869 S    
C142  C154  1.410285 A    
C257  H172  1.109696 S    
C42   N6    1.384618 Am   
C125  C233  1.475201 S    
C247  H153  1.108074 S    
C47   O37   1.219464 D    
C129  C237  1.486434 S    
C89   C190  1.483975 S    
C254  C255  1.525426 S    
C97   C104  1.387343 A    
C216  H86   1.111042 S    
O23   Cr5   1.889767 S    
C220  H105  1.109813 S    
C46   O36   1.220002 D    
C259  C260  1.542227 S    
Cr2   O25   1.962496 S    
C181  O63   1.219929 D    
C270  H197  1.110758 S    
C196  H49   1.108690 S    
C240  H132  1.083394 S    
C253  C254  1.536953 S    
N9    C165  1.475167 S    
C117  C165  1.417050 A    
C245  C246  1.525851 S    
C17   C130  1.422330 A    
C46   N10   1.378056 Am   
C26   C38   1.422013 A    
C41   O31   1.220876 D    
C15   C144  1.422873 A    
C48   O38   1.220150 D    
O21   Cr6   1.894363 S    
C111  C247  1.522353 S    
N8    C164  1.441622 S    
C264  H183  1.111251 S    
C193  C194  1.533331 S    
N1    C157  1.444998 S    
C11   C19   1.511170 S    
C12   C20   1.506283 S    
C77   C82   1.417349 A    
C153  C208  1.526007 S    
N6    C54   1.376198 Am   
H1    C104  1.083692 S    
C170  H14   1.082455 S    
C232  O78   1.221207 D    
C260  H179  1.108743 S    
C223  C224  1.530097 S    
C28   C76   1.411986 A    
C266  H193  1.110461 S    
C203  H62   1.110800 S    
C156  C168  1.414543 A    
C172  O54   1.221513 D    
C202  C203  1.535224 S    
C141  C174  1.479392 S    
C153  C165  1.414277 A    
C217  C218  1.536178 S    
C193  H42   1.107049 S    
C269  C270  1.527258 S    
C227  H118  1.109566 S    
C235  O81   1.221442 D    
C169  H13   1.084395 S    
O24   C12   1.294969 A    
C221  C222  1.525810 S    
C183  O65   1.221232 D    
C148  C160  1.414341 A    
C22   C137  1.422113 A    
C122  C230  1.486670 S    
C239  O85   1.221107 D    
C173  H17   1.084209 S    
N10   C58   1.373882 Am   
C112  C160  1.419039 A    
C206  C207  1.526003 S    
C223  H112  1.106144 S    
C65   C101  1.403061 A    
C190  H34   1.084244 S    
C244  H145  1.109575 S    
O3    C5    1.288907 A    
C24   C135  1.420843 A    
H8    C97   1.083649 S    
C54   O44   1.221780 D    
C192  O74   1.219029 D    
C59   C71   1.408862 A    
C60   C72   1.400169 A    
C194  H41   1.107079 S    
C64   C100  1.404962 A    
C47   N11   1.382127 Am   
C174  H18   1.084846 S    
C51   O41   1.220450 D    
C271  C272  1.535730 S    
C63   C99   1.401250 A    
C49   O39   1.221210 D    
C35   C47   1.416410 A    
C68   C104  1.404480 A    
C184  H28   1.083710 S    
C179  O61   1.220784 D    
C221  H104  1.109086 S    
C224  H110  1.109414 S    
C27   C87   1.423431 A    
C261  H177  1.110802 S    
C245  H144  1.109323 S    
C28   C88   1.422495 A    
C23   C136  1.423361 A    
C120  C132  1.418074 A    
C237  H129  1.085636 S    
C267  H191  1.110788 S    
C27   C39   1.419499 A    
C189  O71   1.221090 D    
C90   C189  1.487706 S    
O22   C10   1.293911 A    
C216  H88   1.110646 S    
C37   N1    1.381630 Am   
C113  C125  1.405549 A    
C209  H75   1.108638 S    
N5    C53   1.376035 Am   
C20   C133  1.420334 A    
C197  C198  1.523446 S    
C275  H214  1.109359 S    
C22   C125  1.418028 A    
C110  C122  1.420382 A    
C146  C211  1.527150 S    
C30   C42   1.427802 A    
C271  H209  1.108394 S    
C55   O45   1.220244 D    
C230  H122  1.082664 S    
C195  H38   1.110676 S    
C182  O64   1.218414 D    
C64   C76   1.410753 A    
C131  C239  1.484249 S    
C215  H89   1.109744 S    
C150  C162  1.414789 A    
C199  H57   1.106517 S    
O2    Cr2   1.994602 S    
C63   C75   1.413957 A    
C226  C227  1.534705 S    
C179  H23   1.082767 S    
C268  H202  1.110437 S    
C258  H168  1.108852 S    
H10   C101  1.083604 S    
O8    C10   1.290135 A    
C62   C74   1.414141 A    
C246  H141  1.110862 S    
C29   C41   1.421546 A    
C234  O80   1.220143 D    
C256  H174  1.107636 S    
C265  H195  1.105277 S    
C138  C177  1.475792 S    
C201  H52   1.110831 S    
C224  C225  1.526302 S    
C207  H67   1.110331 S    
C16   C143  1.424335 A    
C202  H64   1.107592 S    
C226  H119  1.110693 S    
C218  C219  1.526570 S    
O20   C8    1.292974 A    
C211  H84   1.107754 S    
C255  H162  1.110862 S    
C115  C163  1.414222 A    
C145  C214  1.529284 S    
C141  C153  1.416888 A    
O6    Cr3   2.006366 S    
C113  C161  1.412802 A    
C139  C151  1.417172 A    
C197  H47   1.110492 S    
C70   C106  1.403451 A    
C128  C236  1.487772 S    
C101  C106  1.386156 A    
C66   C78   1.414439 A    
C13   C140  1.425299 A    
C220  H106  1.110799 S    
C259  H181  1.106043 S    
C180  O62   1.220933 D    
C248  H150  1.110552 S    
C267  H189  1.110683 S    
C273  H205  1.110413 S    
C73   C80   1.412541 A    
C172  H16   1.082992 S    
C60   O50   1.222552 D    
C213  H81   1.111287 S    
C74   C79   1.416065 A    
C200  H55   1.110818 S    
H9    C102  1.082398 S    
C58   C70   1.401038 A    
C61   C73   1.414066 A    
C62   C98   1.406522 A    
C212  H82   1.108784 S    
C136  C179  1.489691 S    
C135  C147  1.413569 A    
O17   Cr2   1.885955 S    
C38   N2    1.379859 Am   
C19   C134  1.426219 A    
C242  C243  1.526353 S    
C118  C130  1.421483 A    
C25   C85   1.420914 A    
C133  C145  1.419338 A    
O19   Cr4   1.886543 S    
C149  C220  1.523559 S    
C118  C268  1.525035 S    
Cr4   O26   1.962940 S    
C238  H130  1.082827 S    
C244  C245  1.535425 S    
C95   C184  1.487190 S    
C1    C15   1.504879 S    
C140  C169  1.486082 S    
C2    C16   1.512413 S    
C251  C252  1.525352 S    
C4    C18   1.500761 S    
C20   C121  1.418525 A    
C69   C105  1.403227 A    
C212  C213  1.526648 S    
O17   C5    1.289595 A    
C263  H186  1.110828 S    
C243  H133  1.111115 S    
C110  C158  1.415948 A    
C72   C108  1.404320 A    
O19   C7    1.299146 A    
C204  H58   1.110556 S    
C243  H135  1.109830 S    
C251  H158  1.108634 S    
C225  H108  1.110820 S    
C34   C46   1.422001 A    
C71   C107  1.404014 A    
C56   C68   1.398819 A    
C13   C128  1.423322 A    
C260  C261  1.516870 S    
C126  C234  1.486318 S    
C198  H44   1.111046 S    
C205  H70   1.109942 S    
C41   N5    1.377368 Am   
C210  H73   1.110927 S    
C254  H165  1.108998 S    
C252  H154  1.110879 S    
C229  O75   1.221332 D    
C43   N7    1.381742 Am   
C67   C103  1.404374 A    
C208  C209  1.535704 S    
C258  H170  1.103179 S    
C116  C262  1.525201 S    
C233  O79   1.220761 D    
C36   C84   1.416103 A    
C78   C81   1.416957 A    
C250  H159  1.110383 S    
C32   C80   1.415700 A    
N12   C168  1.444946 S    
C76   C83   1.414442 A    
C228  H115  1.111029 S    
C241  H139  1.110488 S    
C188  O70   1.219250 D    
C207  H65   1.111055 S    
C112  C250  1.525076 S    
C58   O48   1.221969 D    
C253  H166  1.106452 S    
C98   C103  1.392080 A    
O16   Cr1   1.886759 S    
C214  H91   1.107200 S    
C194  C195  1.525687 S    
C191  H35   1.078005 S    
C26   C74   1.414413 A    
O5    Cr2   2.004886 S    
N1    C49   1.378192 Am   
C132  C240  1.488203 S    
N3    C51   1.379344 Am   
C186  O68   1.220589 D    
N11   C167  1.449915 S    
C206  H68   1.109493 S    
C198  H45   1.110696 S    
C33   C81   1.407943 A    
C70   C82   1.418188 A    
C151  C196  1.524029 S    
C66   C102  1.402021 A    
N7    C55   1.380548 Am   
C231  H123  1.083355 S    
C274  H215  1.108021 S    
C255  H161  1.111224 S    
C219  H95   1.110081 S    
C247  H152  1.105194 S    
H4    C107  1.080521 S    
C30   C78   1.414565 A    
C236  H128  1.083177 S    
C114  C256  1.523698 S    
C57   O47   1.214719 D    
C199  C200  1.531314 S    
N3    C159  1.451599 S    
C25   C73   1.409762 A    
C193  H43   1.110283 S    
C273  H203  1.110859 S    
Cr1   O25   1.970923 S    
C49   C61   1.400166 A    
C239  H131  1.083295 S    
C264  H182  1.111348 S    
C50   O40   1.221832 D    
C143  C172  1.491286 S    
C149  C161  1.415222 A    
C240  O86   1.220639 D    
N5    C161  1.441692 S    
C175  H19   1.083660 S    
C249  H149  1.110468 S    
C27   C75   1.409164 A    
C135  C180  1.477837 S    
C96   C183  1.486835 S    
C136  C148  1.414326 A    
O24   Cr6   1.887628 S    
C44   O34   1.220052 D    
C217  H99   1.106791 S    
C5    C13   1.503890 S    
C222  H102  1.110525 S    
O23   C11   1.294362 A    
Cr5   O26   1.970931 S    
C69   C81   1.412461 A    
C29   C89   1.424224 A    
C265  H194  1.112215 S    
C204  H60   1.108082 S    
C8    C22   1.493040 S    
C33   C93   1.426371 A    
C252  H156  1.108436 S    
O8    Cr5   1.999876 S    
C152  C164  1.412783 A    
C215  C216  1.526050 S    
C276  H211  1.111044 S    
C117  C265  1.536608 S    
C144  C156  1.415666 A    
C196  C197  1.533370 S    
C154  C166  1.413364 A    
C133  C176  1.490498 S    
C92   C181  1.482786 S    
C175  O57   1.221402 D    
C86   C187  1.477058 S    
N10   C166  1.441584 S    
C242  H136  1.109574 S    
C118  C166  1.413786 A    
C40   N4    1.381390 Am   
C190  O72   1.220708 D    
C155  C202  1.524253 S    
C42   O32   1.220737 D    
C16   C131  1.423404 A    
C25   C37   1.417148 A    
C218  H96   1.107268 S    
C44   N8    1.379527 Am   
C109  C241  1.528508 S    
C115  C127  1.417462 A    
O4    Cr1   1.997448 S    
C174  O56   1.220917 D    
N2    C158  1.447486 S    
C220  C221  1.536637 S    
O9    C11   1.294345 A    
C87   C192  1.489019 S    
C269  H199  1.110238 S    
O10   C12   1.285820 A    
C176  H20   1.081314 S    
C31   C43   1.415600 A    
C256  C257  1.535817 S    
C144  C171  1.484527 S    
C90   C93   1.425028 A    
O16   C4    1.291272 A    
C201  H51   1.111135 S    
C224  H111  1.106756 S    
C257  H171  1.108125 S    
C146  C158  1.413642 A    
C29   C77   1.416077 A    
C261  H176  1.108822 S    
C185  H29   1.084399 S    
C219  H93   1.110080 S    
C274  C275  1.537097 S    
C67   C79   1.413898 A    
O20   Cr5   1.885750 S    
C229  H121  1.082828 S    
C271  H208  1.109307 S    
C214  C215  1.529543 S    
C267  H190  1.106018 S    
O6    C2    1.293224 A    
C189  H33   1.085210 S    
C216  H87   1.111062 S    
O9    Cr6   1.996663 S    
C181  H25   1.084024 S    
C209  H76   1.110513 S    
C116  C164  1.412112 A    
C230  O76   1.221252 D    
C263  C264  1.524606 S    
C264  H184  1.110132 S    
C26   C86   1.426277 A    
C21   C138  1.422591 A    
C274  H216  1.109795 S    
N9    C57   1.385467 Am   
C249  H147  1.109394 S    
C93   C186  1.491243 S    
N11   C59   1.381106 Am   
C119  C131  1.423609 A    
C32   C92   1.426819 A    
C247  C248  1.542748 S    
C40   O30   1.220769 D    
O18   Cr3   1.887723 S    
C215  H90   1.109303 S    
C23   C124  1.418500 A    
C3    C17   1.498091 S    
C237  O83   1.220217 D    
C17   C142  1.422226 A    
C199  H56   1.107842 S    
C138  C150  1.417951 A    
C272  H206  1.110895 S    
C148  C223  1.526296 S    
C268  H201  1.109559 S    
C123  C231  1.487445 S    
O7    Cr4   2.007369 S    
O11   Cr5   1.994379 S    
C177  O59   1.220921 D    
C246  H140  1.111044 S    
C32   C44   1.419441 A    
C45   O35   1.221124 D    
C119  C167  1.417346 A    
C137  C149  1.422948 A    
C85   C92   1.420867 A    
C256  H173  1.104670 S    
C232  H124  1.083316 S    
C147  C159  1.414263 A    
C260  H178  1.111015 S    
C203  H61   1.111753 S    
O12   C8    1.282943 A    
C24   C123  1.421174 A    
C207  H66   1.111082 S    
O13   C1    1.294920 A    
C154  C205  1.530483 S    
C124  C232  1.487884 S    
C155  C167  1.412475 A    
C202  H63   1.110043 S    
C188  H32   1.081710 S    
C255  H163  1.110299 S    
C43   O33   1.222563 D    
C111  C159  1.418758 A    
C227  H117  1.112257 S    
C114  C126  1.417316 A    
C169  O51   1.221241 D    
C250  C251  1.536134 S    
C140  C152  1.412946 A    
N4    C160  1.446617 S    
C272  H207  1.110240 S    
C275  C276  1.525685 S    
C36   C96   1.428383 A    
C241  C242  1.541467 S    
C197  H48   1.110489 S    
C225  H107  1.110839 S    
C173  O55   1.220913 D    
O22   Cr4   1.897292 S    
C234  H126  1.082314 S    
Cr3   O25   1.963103 S    
C21   C126  1.422202 A    
C109  C121  1.414641 A    
C223  H113  1.108833 S    
C266  H192  1.109856 S    
C248  H151  1.111110 S    
C244  H146  1.107700 S    
C273  H204  1.110977 S    
H2    C103  1.083573 S    
C151  C163  1.411769 A    
C213  H80   1.111021 S    
C192  H36   1.085458 S    
C37   O27   1.222102 D    
C14   C139  1.425746 A    
C194  H40   1.110573 S    
C212  H83   1.108784 S    
C61   C97   1.402786 A    
C39   O29   1.221908 D    
C177  H21   1.081021 S    
C88   C191  1.483878 S    
C178  H22   1.082258 S    
C262  H188  1.109421 S    
C72   C84   1.415110 A    
C143  C155  1.416719 A    
O18   C6    1.295995 A    
C178  O60   1.221333 D    
C221  H103  1.109881 S    
C34   C82   1.416897 A    
C71   C83   1.412172 A    
C111  C123  1.419103 A    
C31   C91   1.419657 A    
C245  H143  1.109944 S    
C218  H97   1.110470 S    
C119  C271  1.526032 S    
C171  H15   1.084407 S    
C261  H175  1.110294 S    
C262  H187  1.108992 S    
C15   C132  1.423659 A    
C9    C23   1.507547 S    
O1    C3    1.291047 A    
C110  C244  1.527044 S    
C31   C79   1.408887 A    
C214  H92   1.105633 S    
C208  H78   1.111005 S    
C114  C162  1.415578 A    
C52   O42   1.222144 D    
O13   Cr1   1.888725 S    
C35   C83   1.405879 A    
C50   C62   1.406025 A    
C275  H213  1.108406 S    
C152  C193  1.527120 S    
C243  H134  1.110951 S    
C75   C84   1.414996 A    
C205  C206  1.533582 S    
C156  C199  1.526594 S    
C94   C185  1.486573 S    
C195  H39   1.109656 S    
C182  H26   1.084742 S    
C210  H72   1.110903 S    
C184  O66   1.219125 D    
C270  H196  1.109620 S    
C14   C127  1.423478 A    
C6    C14   1.508220 S    
C258  H169  1.109532 S    
C18   C129  1.425101 A    
C39   N3    1.385090 Am   
C272  C273  1.525518 S    
C176  O58   1.220713 D    
C150  C217  1.528444 S    
C233  H125  1.081397 S    
C134  C146  1.417363 A    
C246  H142  1.110451 S    
C113  C253  1.529976 S    
C30   C90   1.429699 A    
C117  C129  1.413540 A    
O11   C7    1.288303 A    
C86   C91   1.421633 A    
C228  H114  1.111192 S    
N12   C60   1.376989 Am   
C201  H53   1.110414 S    
C241  H138  1.108970 S    
C116  C128  1.416803 A    
C34   C94   1.426106 A    
C226  H120  1.107903 S    
O2    C4    1.290739 A    
C53   O43   1.222528 D    
H3    C108  1.081427 S    
H6    C105  1.083292 S    
O4    C6    1.290361 A    
C259  H180  1.109731 S    
C87   C96   1.422101 A    
H12   C99   1.082508 S    
