data_mof_unit_52213.cif
_audit_creation_date              2013-03-05T16:05:15-0500
_audit_creation_method            fapswitch 2.2
_symmetry_space_group_name_H-M    P1
_symmetry_Int_Tables_number       1
_space_group_crystal_system       triclinic
_cell_length_a                    11.524439
_cell_length_b                    15.040993
_cell_length_c                    15.119315
_cell_angle_alpha                 81.968868
_cell_angle_beta                  90.95612
_cell_angle_gamma                 103.521906
_cell_volume                      2522.78213589

loop_
_atom_site_label
_atom_site_type_symbol
_atom_site_description
_atom_site_fract_x
_atom_site_fract_y
_atom_site_fract_z
_atom_type_partial_charge
O1    O     O_R   0.466720 0.383110 0.605620 -0.565514
O2    O     O_R   0.533280 0.616890 0.394380 -0.578019
O3    O     O_R   0.509090 0.531900 0.639510 -0.615018
O4    O     O_R   0.490910 0.468100 0.360490 -0.624806
C1    C     C_R   0.487533 0.442286 0.663377 0.893365
C2    C     C_R   0.519889 0.557777 0.336832 0.899371
O5    O     O_R   0.644370 0.425610 0.483050 -0.546458
O6    O     O_R   0.355630 0.574390 0.516950 -0.536439
O7    O     O_R   0.686740 0.574390 0.516930 -0.636882
O8    O     O_R   0.313260 0.425610 0.483070 -0.626733
C3    C     C_R   0.717767 0.500634 0.500209 0.919225
C4    C     C_R   0.282237 0.499379 0.499795 0.902523
Zn1   Zn    Zn3+2 0.471710 0.400660 0.477370 1.023561
Zn2   Zn    Zn3+2 0.528290 0.599340 0.522630 1.014210
C5    C     C_1   0.838745 0.501695 0.500421 -0.120911
C6    C     C_1   0.161271 0.498429 0.499526 -0.122093
C7    C     C_1   0.940860 0.500959 0.500191 0.041260
C8    C     C_1   0.059185 0.499274 0.499731 0.042690
C9    C     C_R   0.505317 0.408917 0.757676 -0.148215
C10   C     C_R   0.556420 0.591588 0.243379 -0.135685
C11   C     C_R   0.517985 0.284928 0.877174 0.308614
C12   C     C_R   0.642660 0.715567 0.125144 0.328804
C13   C     C_R   0.489603 0.314799 0.789135 -0.192964
C14   C     C_R   0.597756 0.685824 0.212650 -0.231013
C15   C     C_R   0.551649 0.473665 0.814348 -0.158454
C16   C     C_R   0.562595 0.526884 0.187143 -0.160540
C17   C     C_R   0.589064 0.446943 0.900226 0.088984
C18   C     C_R   0.617889 0.553460 0.103228 0.081682
C19   C     C_R   0.565871 0.351475 0.934177 -0.032450
C20   C     C_R   0.652415 0.648883 0.069531 -0.036154
C21   C     C_R   0.638005 0.514010 0.956053 -0.050577
C22   C     C_R   0.628156 0.486300 0.048751 -0.051249
C23   C     C_R   0.623390 0.392123 0.081846 0.256679
C24   C     C_R   0.690683 0.608220 0.924182 0.280535
C25   C     C_R   0.593629 0.325881 0.023443 -0.249527
C26   C     C_R   0.698206 0.674469 0.982014 -0.206235
H1    H     H_    0.591416 0.254667 0.048728 0.233873
H2    H     H_    0.739473 0.745784 0.957843 0.231050
H3    H     H_    0.523182 0.454748 0.209155 0.170847
H4    H     H_    0.557102 0.545876 0.791372 0.186921
H5    H     H_    0.592998 0.736480 0.256023 0.205328
H6    H     H_    0.452941 0.264186 0.745821 0.239716
N1    N     N_R   0.566020 0.731700 0.552730 -0.176140
N2    N     N_R   0.433980 0.268300 0.447270 -0.161564
C27   C     C_R   0.717400 0.847575 0.607177 0.438835
C28   C     C_R   0.348667 0.173091 0.337763 0.428403
C29   C     C_R   0.667844 0.755542 0.598336 -0.155444
C30   C     C_R   0.368221 0.256039 0.373114 -0.151058
C31   C     C_R   0.507590 0.795231 0.512982 0.408174
C32   C     C_R   0.481779 0.200823 0.491826 0.409315
C33   C     C_R   0.556908 0.890869 0.514982 -0.192809
C34   C     C_R   0.475734 0.118522 0.454399 -0.181353
C35   C     C_R   0.659216 0.916124 0.568419 -0.116325
C36   C     C_R   0.400943 0.102157 0.379690 -0.084851
C37   C     C_R   0.507991 0.961905 0.466727 0.066576
C38   C     C_R   0.540405 0.051999 0.489656 0.081561
C39   C     C_R   0.644037 0.075622 0.539820 -0.217476
C40   C     C_R   0.437375 0.948504 0.390726 -0.243811
C41   C     C_R   0.702182 0.009446 0.580102 0.480202
C42   C     C_R   0.382090 0.015996 0.348435 0.497583
H7    H     H_    0.329926 0.311408 0.341521 0.166282
H8    H     H_    0.712480 0.702468 0.626111 0.211554
H9    H     H_    0.686196 0.146751 0.544209 0.197820
H10   H     H_    0.431315 0.888586 0.358150 0.206006
N3    N     N_R   0.496917 0.187395 0.906845 0.210381
O9    O     O_R   0.522402 0.133162 0.853951 -0.326440
O10   O     O_R   0.433931 0.150885 0.979017 -0.403012
N4    N     N_R   0.675104 0.812963 0.093900 0.203101
O11   O     O_R   0.728606 0.870073 0.147087 -0.376798
O12   O     O_R   0.632059 0.845827 0.019597 -0.352638
N5    N     N_R   0.662192 0.364802 0.170506 0.199542
O13   O     O_R   0.746492 0.420747 0.207433 -0.365569
O14   O     O_R   0.625271 0.280305 0.209765 -0.429019
N6    N     N_R   0.748985 0.635920 0.837892 0.190274
O15   O     O_R   0.799243 0.579690 0.802924 -0.383280
O16   O     O_R   0.767990 0.721444 0.800510 -0.379767
O17   O     O_3   0.804041 0.037551 0.628379 -0.598532
C43   C     C_3   0.770338 0.056069 0.712120 0.180888
H11   H     H_    0.702768 0.996448 0.747101 0.187252
H12   H     H_    0.733578 0.118866 0.704017 0.184462
C44   C     C_3   0.879596 0.073191 0.770737 -0.715643
H13   H     H_    0.949251 0.132037 0.737809 0.245490
H14   H     H_    0.854576 0.089736 0.836093 0.232037
H15   H     H_    0.916142 0.010535 0.782487 0.275406
O18   O     O_3   0.314527 0.998783 0.273441 -0.566444
C45   C     C_3   0.206415 0.934144 0.299823 0.130393
H16   H     H_    0.160985 0.955219 0.355330 0.142840
H17   H     H_    0.222803 0.864335 0.321217 0.174733
C46   C     C_3   0.122629 0.928207 0.220974 -0.693709
H18   H     H_    0.165465 0.908462 0.163802 0.266332
H19   H     H_    0.038814 0.875469 0.240213 0.210629
H20   H     H_    0.100404 0.995984 0.200372 0.270574
N7    N     N_R   0.519965 0.207975 0.581784 0.181049
O19   O     O_R   0.472066 0.143203 0.645797 -0.403128
O20   O     O_R   0.613116 0.270753 0.598330 -0.402493
N8    N     N_R   0.391169 0.763235 0.478453 0.202911
O21   O     O_R   0.298552 0.779294 0.515669 -0.419233
O22   O     O_R   0.378392 0.726278 0.405003 -0.416482
O23   O     O_3   0.821657 0.869685 0.654357 -0.531110
C47   C     C_3   0.918868 0.866719 0.600000 0.143061
H21   H     H_    0.919327 0.910606 0.534046 0.132755
H22   H     H_    0.915878 0.794502 0.589207 0.142220
C48   C     C_3   0.034932 0.903294 0.646242 -0.676251
H23   H     H_    0.037495 0.861276 0.712465 0.273475
H24   H     H_    0.111912 0.899591 0.604817 0.214134
H25   H     H_    0.042396 0.976352 0.655552 0.258257
O24   O     O_3   0.273212 0.160411 0.266054 -0.588007
C49   C     C_3   0.333226 0.210602 0.187320 0.170862
H26   H     H_    0.408672 0.180735 0.171005 0.220170
H27   H     H_    0.367713 0.285103 0.193439 0.108600
C50   C     C_3   0.246746 0.204530 0.110128 -0.706082
H28   H     H_    0.167661 0.229992 0.126300 0.248260
H29   H     H_    0.291358 0.247758 0.048974 0.220783
H30   H     H_    0.217097 0.131880 0.097088 0.277985

loop_
_geom_bond_atom_site_label_1
_geom_bond_atom_site_label_2
_geom_bond_distance
_ccdc_geom_bond_type
C37   C38   1.409332 A    
N7    O19   1.301316 A    
C17   C19   1.419859 A    
C50   H28   1.110831 S    
C41   O17   1.383839 S    
C29   H8    1.081375 S    
C44   H13   1.110688 S    
C35   C41   1.409955 A    
C50   H29   1.110638 S    
C36   C42   1.409252 A    
O18   C45   1.413670 S    
C49   H26   1.113286 S    
O5    C3    1.297797 A    
C13   H6    1.080087 S    
N6    O16   1.300522 A    
O1    C1    1.312503 A    
C25   H1    1.080393 S    
C15   H4    1.080602 S    
C46   H19   1.110601 S    
C43   H12   1.113407 S    
C16   H3    1.080734 S    
C39   C41   1.392683 A    
C40   C42   1.397421 A    
C38   C39   1.405155 A    
O4    Zn1   1.899450 S    
C3    C5    1.390516 S    
C10   C14   1.399812 A    
N4    O11   1.301343 A    
N3    O10   1.300677 A    
N8    O22   1.301024 A    
C32   C34   1.418281 A    
O24   C49   1.413349 S    
C48   H25   1.110557 S    
C24   C26   1.401958 A    
C27   C35   1.413306 A    
N7    O20   1.299865 A    
C28   O24   1.384466 S    
C14   H5    1.083458 S    
O2    C2    1.311079 A    
O2    Zn2   1.920029 S    
C44   H14   1.110525 S    
C34   C36   1.423154 A    
C39   H9    1.077371 S    
C27   C29   1.392716 A    
C40   H10   1.073833 S    
C28   C30   1.394227 A    
N6    O15   1.301747 A    
C45   H17   1.112909 S    
C17   C21   1.415663 A    
C4    C6    1.390732 S    
C18   C22   1.415782 A    
O4    C2    1.310471 A    
C27   O23   1.383428 S    
N5    O14   1.301296 A    
C45   H16   1.116024 S    
N1    C31   1.361844 A    
C31   C33   1.422135 A    
O17   C43   1.413166 S    
C11   C19   1.419889 A    
C45   C46   1.520711 S    
C47   C48   1.520756 S    
C33   C35   1.425382 A    
C9    C13   1.399241 A    
O7    Zn2   1.953830 S    
C21   C22   1.403877 A    
O6    C4    1.297609 A    
N8    O21   1.301070 A    
C28   C36   1.414906 A    
C47   H22   1.113345 S    
C7    C8    1.369922 S    
C21   C24   1.423145 A    
C48   H24   1.110770 S    
C46   H20   1.110213 S    
O7    C3    1.299740 A    
C12   N4    1.437142 S    
O3    Zn2   1.899452 S    
O8    C4    1.299927 A    
C24   N6    1.440001 S    
N4    O12   1.301302 A    
C11   C13   1.402754 A    
C12   C14   1.402700 A    
O1    Zn1   1.920029 S    
C44   H15   1.110596 S    
N2    C32   1.358423 A    
C5    C7    1.179526 T    
O6    Zn2   1.939499 S    
C12   C20   1.420272 A    
C11   N3    1.437164 S    
C43   H11   1.115770 S    
O3    C1    1.311189 A    
O8    Zn1   1.953829 S    
C42   O18   1.384633 S    
C32   N7    1.433135 S    
C1    C9    1.471413 S    
C15   C17   1.396386 A    
C2    C10   1.466698 S    
C19   C25   1.403581 A    
C16   C18   1.393451 A    
C49   C50   1.520565 S    
C20   C26   1.401247 A    
C22   C23   1.423515 A    
C26   H2    1.080754 S    
N5    O13   1.301731 A    
O23   C47   1.413097 S    
C43   C44   1.520546 S    
C30   H7    1.081748 S    
C10   C16   1.393109 A    
C18   C20   1.418884 A    
C47   H21   1.115677 S    
C23   C25   1.402139 A    
C49   H27   1.114301 S    
C50   H30   1.110406 S    
C33   C37   1.428917 A    
C31   N8    1.431484 S    
C9    C15   1.393697 A    
C23   N5    1.441420 S    
N2    C30   1.352571 A    
O5    Zn1   1.939499 S    
C6    C8    1.179589 T    
N3    O9    1.301287 A    
C37   C40   1.407164 A    
C48   H23   1.110727 S    
C46   H18   1.110680 S    
N1    C29   1.351440 A    
Zn1   N2    2.049711 S    
C34   C38   1.423806 A    
Zn2   N1    2.049709 S    
