data_mof_unit_18510.cif
_audit_creation_date              2012-12-10T18:53:02-0500
_audit_creation_method            fapswitch 2.2
_symmetry_space_group_name_H-M    P1
_symmetry_Int_Tables_number       1
_space_group_crystal_system       triclinic
_cell_length_a                    9.816427
_cell_length_b                    10.702266
_cell_length_c                    16.388422
_cell_angle_alpha                 90.054168
_cell_angle_beta                  84.134099
_cell_angle_gamma                 90.194241
_cell_volume                      1712.70957763

loop_
_atom_site_label
_atom_site_type_symbol
_atom_type_description
_atom_site_fract_x
_atom_site_fract_y
_atom_site_fract_z
_atom_type_partial_charge
C1    C     C_R   0.500147 0.740190 0.500361 0.861213
C2    C     C_R   0.064348 0.580154 0.549203 -0.342915
C3    C     C_R   0.081965 0.417991 0.450545 0.578379
C4    C     C_R   0.918243 0.582045 0.549238 0.573820
C5    C     C_R   0.479576 0.505364 0.654229 0.852024
C6    C     C_R   0.520399 0.504244 0.345742 0.853927
C7    C     C_R   0.463403 0.544364 0.739793 -0.024200
C8    C     C_R   0.536229 0.542339 0.260140 -0.033401
C9    C     C_R   0.564704 0.517692 0.790952 -0.207547
C10   C     C_R   0.438720 0.507916 0.208030 -0.212950
C11   C     C_R   0.556990 0.569400 0.869024 -0.161731
C12   C     C_R   0.499816 0.259800 0.499979 0.867565
C13   C     C_R   0.443276 0.560509 0.130343 -0.150328
C14   C     C_R   0.450876 0.653246 0.895764 0.117550
C15   C     C_R   0.541712 0.652934 0.105167 0.113043
C16   C     C_R   0.348086 0.677397 0.844776 -0.153084
C17   C     C_R   0.641912 0.683710 0.156773 -0.156827
C18   C     C_R   0.353822 0.622875 0.767492 -0.203832
C19   C     C_R   0.639717 0.628286 0.233576 -0.203994
C20   C     C_2   0.438086 0.705147 0.979833 0.298001
C21   C     C_2   0.548981 0.709030 0.022365 0.299260
C22   C     C_3   0.699180 0.864759 0.977635 0.064377
C23   C     C_R   0.624093 0.936404 0.483751 -0.199494
C24   C     C_3   0.661276 0.916470 0.895742 -0.341369
C25   C     C_3   0.704685 0.052871 0.884336 -0.970450
C26   C     C_3   0.274277 0.845493 0.030040 0.061613
C27   C     C_3   0.299066 0.890856 0.116039 -0.325274
C28   C     C_3   0.251668 0.025481 0.130180 -0.991703
C29   C     C_3   0.107383 0.258735 0.348228 0.054634
C30   C     C_3   0.050101 0.139108 0.390868 -0.372675
C31   C     C_3   0.967980 0.061989 0.334638 -0.970042
C32   C     C_3   0.893024 0.763936 0.632402 0.046112
C33   C     C_3   0.934342 0.736328 0.718346 -0.345591
C34   C     C_R   0.376018 0.063570 0.517991 -0.196555
C35   C     C_3   0.005939 0.848343 0.752940 -0.983900
C36   C     C_R   0.623841 0.064295 0.483342 -0.208314
C37   C     C_R   0.376189 0.935637 0.518277 -0.208705
C38   C     C_R   0.499780 0.127400 0.500298 -0.009550
C39   C     C_R   0.500207 0.872556 0.500909 -0.002763
C40   C     C_R   0.935459 0.418696 0.451551 -0.349892
H1    H     H_    0.649654 0.457127 0.770490 0.152890
H2    H     H_    0.279781 0.112123 0.532100 0.160556
H3    H     H_    0.720063 0.113386 0.469304 0.162399
H4    H     H_    0.279923 0.886540 0.532452 0.149044
H5    H     H_    0.881565 0.354626 0.415361 0.171630
H6    H     H_    0.117127 0.640519 0.588396 0.162289
H7    H     H_    0.810130 0.881614 0.981354 0.171734
H8    H     H_    0.644021 0.917173 0.029945 0.112266
H9    H     H_    0.712115 0.860353 0.844516 0.242584
H10   H     H_    0.548986 0.910036 0.893247 0.200107
H11   H     H_    0.652849 0.111178 0.934274 0.266244
H12   H     H_    0.358789 0.441162 0.227659 0.151917
H13   H     H_    0.675602 0.087457 0.824668 0.265656
H14   H     H_    0.817400 0.062189 0.884487 0.264419
H15   H     H_    0.163493 0.855275 0.022831 0.169823
H16   H     H_    0.329286 0.906948 0.982309 0.111744
H17   H     H_    0.242727 0.829596 0.162838 0.238091
H18   H     H_    0.409868 0.886262 0.123863 0.205313
H19   H     H_    0.308380 0.088508 0.084693 0.267851
H20   H     H_    0.271858 0.055723 0.192656 0.264303
H21   H     H_    0.140120 0.033104 0.124791 0.262529
H22   H     H_    0.188965 0.230339 0.299841 0.162380
H23   H     H_    0.715095 0.657236 0.273730 0.152686
H24   H     H_    0.031705 0.309154 0.314477 0.125006
H25   H     H_    0.136450 0.081867 0.408807 0.228811
H26   H     H_    0.983308 0.162034 0.447642 0.210206
H27   H     H_    0.878860 0.116301 0.317660 0.264270
H28   H     H_    0.929615 0.975663 0.366912 0.260499
H29   H     H_    0.033383 0.035017 0.278157 0.274305
H30   H     H_    0.814502 0.838830 0.638540 0.172809
H31   H     H_    0.978597 0.803261 0.590238 0.111139
H32   H     H_    0.841182 0.712606 0.759800 0.237267
H33   H     H_    0.003498 0.654407 0.716989 0.212858
H34   H     H_    0.275424 0.646293 0.728145 0.152159
H35   H     H_    0.103263 0.868916 0.714465 0.260935
H36   H     H_    0.029603 0.827207 0.816289 0.267465
H37   H     H_    0.938890 0.931894 0.754811 0.272716
H38   H     H_    0.263832 0.739113 0.864386 0.149620
H39   H     H_    0.720815 0.751877 0.138297 0.148729
H40   H     H_    0.369874 0.527679 0.090239 0.177350
H41   H     H_    0.633523 0.541831 0.908416 0.178683
H42   H     H_    0.720476 0.887931 0.470008 0.155808
N1    N     N_R   0.142790 0.500030 0.500020 -0.118036
N2    N     N_R   0.857210 0.499970 0.499980 -0.120130
O1    O     O_R   0.385380 0.683250 0.500010 -0.632573
O2    O     O_3   0.307377 0.717271 0.020232 -0.669306
O3    O     O_3   0.169402 0.336286 0.403860 -0.613729
O4    O     O_3   0.831068 0.657410 0.600645 -0.608578
O5    O     O_R   0.614620 0.316750 0.499990 -0.632664
O6    O     O_R   0.614710 0.683220 0.500000 -0.587748
O7    O     O_R   0.385290 0.316780 0.500000 -0.573177
O8    O     O_R   0.371780 0.500040 0.615800 -0.625167
O9    O     O_R   0.628220 0.499960 0.384200 -0.624097
O10   O     O_R   0.601110 0.500010 0.615800 -0.560488
O11   O     O_R   0.398890 0.499990 0.384200 -0.564488
O12   O     O_3   0.677665 0.733928 0.982225 -0.670640
Zn1   Zn    Zn3+2 0.346870 0.500020 0.500000 0.980871
Zn2   Zn    Zn3+2 0.653130 0.499980 0.500000 0.976426

loop_
_geom_bond_atom_site_label_1
_geom_bond_atom_site_label_2
_ccdc_geom_bond_type
C22   H8    S    
C1    O6    A    
C23   H42   S    
C34   C37   A    
C40   N2    A    
C12   O7    A    
C34   H2    S    
C10   H12   S    
C26   H15   S    
C5    O10   A    
C2    H6    S    
C31   H27   S    
C35   H35   S    
C26   C27   S    
C25   H13   S    
C30   C31   S    
C11   C14   A    
O10   Zn2   S    
C32   O4    S    
C17   H39   S    
C7    C9    A    
C33   H32   S    
C17   C19   A    
C19   H23   S    
C20   O2    S    
C16   H38   S    
C28   H21   S    
C6    O9    A    
C22   H7    S    
C29   H24   S    
C18   H34   S    
C1    O1    A    
C2    N1    A    
C40   H5    S    
O8    Zn1   S    
C32   H31   S    
C28   H20   S    
C24   H10   S    
C31   H28   S    
C35   H36   S    
C8    C19   A    
C3    O3    S    
C5    O8    A    
C14   C20   S    
C12   O5    A    
C24   C25   S    
C27   H17   S    
C5    C7    S    
C13   H40   S    
C32   H30   S    
C35   H37   S    
C11   H41   S    
C2    C4    A    
C25   H11   S    
C29   C30   S    
C4    N2    A    
C31   H29   S    
C26   O2    S    
C7    C18   A    
C16   C18   A    
O7    Zn1   S    
C9    C11   A    
C30   H26   S    
C25   H14   S    
C33   H33   S    
C3    C40   A    
C23   C36   A    
C13   C15   A    
C3    N1    A    
C14   C16   A    
C28   H19   S    
C24   H9    S    
C15   C17   A    
C29   H22   S    
C34   C38   A    
C22   O12   S    
C10   C13   A    
C26   H16   S    
C6    C8    S    
O11   Zn1   S    
C4    O4    S    
C21   O12   S    
C9    H1    S    
O5    Zn2   S    
N2    Zn2   S    
C32   C33   S    
C37   H4    S    
C36   C38   A    
C37   C39   A    
C27   H18   S    
C23   C39   A    
C33   C35   S    
C22   C24   S    
C12   C38   S    
C29   O3    S    
C30   H25   S    
O1    Zn1   S    
C1    C39   S    
C15   C21   S    
C20   C21   D    
C8    C10   A    
C6    O11   A    
N1    Zn1   S    
C27   C28   S    
C36   H3    S    
O9    Zn2   S    
O6    Zn2   S    
