data_mof_unit_66341.cif
_audit_creation_date              2012-12-10T17:00:45-0500
_audit_creation_method            fapswitch 2.2
_symmetry_space_group_name_H-M    P1
_symmetry_Int_Tables_number       1
_space_group_crystal_system       triclinic
_cell_length_a                    13.115903
_cell_length_b                    13.093555
_cell_length_c                    19.513024
_cell_angle_alpha                 100.129595
_cell_angle_beta                  80.131391
_cell_angle_gamma                 91.336535
_cell_volume                      3249.91957939

loop_
_atom_site_label
_atom_site_type_symbol
_atom_type_description
_atom_site_fract_x
_atom_site_fract_y
_atom_site_fract_z
_atom_type_partial_charge
C1    C     C_R   0.222413 0.535085 0.527640 0.502258
C2    C     C_2   0.464168 0.518525 0.987231 -0.099496
C3    C     C_2   0.530039 0.463922 0.012423 -0.091623
C4    C     C_R   0.776436 0.463547 0.472630 0.515412
C5    C     C_R   0.512154 0.488012 0.234571 -0.002034
C6    C     C_2   0.888552 0.453198 0.460912 -0.078743
C7    C     C_2   0.939683 0.471105 0.515143 -0.110404
C8    C     C_2   0.108017 0.542271 0.543621 0.055241
C9    C     C_2   0.053027 0.479274 0.501205 -0.154506
C10   C     C_2   0.549118 0.887901 0.526795 -0.081522
C11   C     C_2   0.472039 0.948713 0.521280 -0.107213
C12   C     C_R   0.466287 0.513622 0.911143 0.046544
C13   C     C_2   0.443125 0.110966 0.477158 0.054700
C14   C     C_2   0.493498 0.057405 0.514413 -0.162837
C15   C     C_R   0.464761 0.223085 0.480344 0.493264
C16   C     C_R   0.534459 0.776524 0.520847 0.526964
C17   C     C_R   0.509383 0.488643 0.309896 0.532402
C18   C     C_R   0.488776 0.512869 0.690468 0.507600
C19   C     C_R   0.479650 0.513762 0.766375 0.039144
C20   C     C_R   0.512054 0.426625 0.789869 -0.114633
C21   C     C_R   0.504524 0.426030 0.861598 -0.100645
C22   C     C_2   0.057071 0.617518 0.605916 0.576852
C23   C     C_R   0.430816 0.599521 0.887833 -0.100295
C24   C     C_2   0.366989 0.060610 0.433370 0.575211
C25   C     C_2   0.544457 0.680868 0.250964 0.632651
C26   C     C_2   0.565597 0.666484 0.097503 0.603261
C27   C     C_R   0.437373 0.599694 0.815778 -0.112000
C28   C     C_R   0.542242 0.572841 0.130898 0.054479
C29   C     C_R   0.532853 0.579380 0.204919 0.023144
C30   C     C_R   0.499833 0.393006 0.191391 -0.140065
C31   C     C_R   0.509390 0.386632 0.118986 -0.134766
C32   C     C_R   0.529029 0.475426 0.088580 -0.005410
H1    H     H_    0.542592 0.358324 0.752787 0.139108
H2    H     H_    0.584359 0.408528 0.977908 0.132974
H3    H     H_    0.400114 0.667347 0.925362 0.126995
H4    H     H_    0.411005 0.667391 0.798748 0.144804
H5    H     H_    0.411186 0.573418 0.023880 0.137989
H6    H     H_    0.528195 0.356577 0.877685 0.107766
H7    H     H_    0.938899 0.717363 0.648707 0.345569
H8    H     H_    0.326543 0.933704 0.368905 0.361851
H9    H     H_    0.630203 0.809211 0.270492 0.356323
H10   H     H_    0.649696 0.729463 0.018930 0.346258
H11   H     H_    0.499318 0.312187 0.086492 0.133265
H12   H     H_    0.092815 0.430715 0.453539 0.158604
H13   H     H_    0.897591 0.486257 0.569005 0.179499
H14   H     H_    0.930396 0.446991 0.407166 0.114338
H15   H     H_    0.553741 0.094867 0.541696 0.149062
H16   H     H_    0.395638 0.916543 0.517489 0.184402
H17   H     H_    0.627421 0.917864 0.524467 0.109299
H18   H     H_    0.484879 0.322885 0.213733 0.147667
O1    O     O_3   0.500000 0.500000 0.500000 -0.459023
O2    O     O_R   0.441420 0.437150 0.344000 -0.534907
O3    O     O_R   0.438960 0.578560 0.667440 -0.537227
O4    O     O_R   0.575450 0.541060 0.341470 -0.516618
O5    O     O_R   0.544160 0.443230 0.647100 -0.547437
O6    O     O_2   0.096737 0.637130 0.659026 -0.481937
O7    O     O_R   0.965297 0.667906 0.603293 -0.702499
O8    O     O_2   0.291215 0.109198 0.427779 -0.481596
O9    O     O_R   0.383259 0.958686 0.397068 -0.672958
O10   O     O_2   0.478318 0.710491 0.302583 -0.483275
O11   O     O_R   0.631152 0.742156 0.235305 -0.649326
O12   O     O_R   0.530110 0.266880 0.518530 -0.558913
O13   O     O_2   0.517476 0.747282 0.121991 -0.486451
O14   O     O_R   0.641682 0.661418 0.037270 -0.673624
O15   O     O_R   0.465470 0.738830 0.563940 -0.534326
O16   O     O_R   0.266890 0.467300 0.476120 -0.545832
O17   O     O_R   0.737530 0.526990 0.441410 -0.529971
O18   O     O_R   0.276880 0.592620 0.567490 -0.496038
O19   O     O_R   0.718700 0.413090 0.514970 -0.533837
O20   O     O_R   0.414920 0.276880 0.447500 -0.498609
O21   O     O_R   0.589510 0.717410 0.470040 -0.509957
Zn1   Zn    Zn3+2 0.571990 0.407410 0.544380 0.940932
Zn2   Zn    Zn3+2 0.407420 0.421690 0.442900 0.987559
Zn3   Zn    Zn3+2 0.598910 0.570150 0.439280 0.998034
Zn4   Zn    Zn3+2 0.421690 0.600750 0.573440 0.989126

loop_
_geom_bond_atom_site_label_1
_geom_bond_atom_site_label_2
_ccdc_geom_bond_type
C4    O17   A    
C8    C22   S    
C26   O13   D    
C6    C7    D    
C25   O10   D    
C23   C27   A    
C27   H4    S    
O21   Zn3   S    
C1    C8    S    
C19   C27   A    
C26   C28   S    
O5    Zn1   S    
O15   Zn4   S    
O1    Zn3   S    
H9    O11   S    
C2    C12   S    
C7    C9    S    
C1    O18   A    
C22   O7    S    
C2    C3    D    
C30   H18   S    
O12   Zn1   S    
C3    C32   S    
O17   Zn3   S    
C25   O11   S    
C13   C14   D    
O18   Zn4   S    
O16   Zn2   S    
C2    H5    S    
C11   H16   S    
O3    Zn4   S    
C16   O21   A    
C31   H11   S    
C18   O5    A    
O20   Zn2   S    
C24   O9    S    
C12   C21   A    
C20   H1    S    
C7    H13   S    
C17   O2    A    
C24   O8    D    
C28   C29   A    
C11   C14   S    
C14   H15   S    
O1    Zn4   S    
C1    O16   A    
C5    C29   A    
C13   C15   S    
C25   C29   S    
C30   C31   A    
C23   H3    S    
C18   O3    A    
C5    C17   S    
O1    Zn1   S    
C22   O6    D    
H7    O7    S    
H10   O14   S    
C28   C32   A    
O19   Zn1   S    
C20   C21   A    
C13   C24   S    
C4    C6    S    
C18   C19   S    
C10   C11   D    
O2    Zn2   S    
C12   C23   A    
H8    O9    S    
C15   O20   A    
C26   O14   S    
C4    O19   A    
C9    H12   S    
C10   C16   S    
C16   O15   A    
C6    H14   S    
C3    H2    S    
O1    Zn2   S    
O4    Zn3   S    
C10   H17   S    
C17   O4    A    
C15   O12   A    
C31   C32   A    
C21   H6    S    
C19   C20   A    
C5    C30   A    
C8    C9    D    
