data_mof_unit_14757.cif
_audit_creation_date              2012-12-10T19:07:37-0500
_audit_creation_method            fapswitch 2.2
_symmetry_space_group_name_H-M    P1
_symmetry_Int_Tables_number       1
_space_group_crystal_system       triclinic
_cell_length_a                    10.790477
_cell_length_b                    10.838908
_cell_length_c                    9.598876
_cell_angle_alpha                 90.133656
_cell_angle_beta                  90.027567
_cell_angle_gamma                 90.720909
_cell_volume                      1122.56355542

loop_
_atom_site_label
_atom_site_type_symbol
_atom_type_description
_atom_site_fract_x
_atom_site_fract_y
_atom_site_fract_z
_atom_type_partial_charge
C1    C     C_R   0.499621 0.262780 0.499611 0.804671
C2    C     C_R   0.935431 0.407408 0.572983 0.110766
C3    C     C_3   0.927861 0.367748 0.721529 -0.425040
C4    C     C_3   0.068939 0.372554 0.723789 -0.503380
C5    C     C_R   0.557357 0.065946 0.607035 0.099122
C6    C     C_R   0.504348 0.129919 0.496971 -0.161213
C7    C     C_R   0.459047 0.063972 0.381406 -0.183933
C8    C     C_R   0.455708 0.935575 0.384144 -0.226060
C9    C     C_R   0.501763 0.871468 0.499535 -0.084637
C10   C     C_R   0.556921 0.938386 0.608250 0.027903
C11   C     C_3   0.529086 0.935480 0.760651 -0.540546
C12   C     C_R   0.262675 0.499348 0.499773 0.788727
C13   C     C_3   0.529800 0.074979 0.758618 0.468946
C14   C     C_R   0.605583 0.526455 0.072220 0.280205
C15   C     C_R   0.398466 0.462747 0.074085 -0.090308
C16   C     C_R   0.398095 0.463963 0.925771 -0.072104
C17   C     C_R   0.607463 0.519032 0.925777 0.265576
C18   C     C_3   0.694251 0.625482 0.910800 -0.517094
C19   C     C_3   0.685037 0.642222 0.068057 -0.142354
C20   C     C_R   0.498982 0.737627 0.500274 0.795534
C21   C     C_R   0.737326 0.498708 0.499754 0.800828
C22   C     C_R   0.062825 0.409226 0.574352 0.110857
C23   C     C_R   0.129413 0.495743 0.496447 -0.077073
C24   C     C_R   0.065473 0.569813 0.401294 -0.216231
C25   C     C_R   0.936087 0.569837 0.401841 -0.215151
C26   C     C_R   0.870553 0.494610 0.496172 -0.080764
Cu1   Cu    Cu3+1 0.499990 0.499980 0.640670 0.955237
Cu2   Cu    Cu3+1 0.500010 0.500020 0.359330 0.941330
H1    H     H_    0.115189 0.632149 0.332436 0.148323
H2    H     H_    0.607198 0.898261 0.821669 0.227831
H3    H     H_    0.438843 0.117053 0.782949 0.071534
H4    H     H_    0.315510 0.433753 0.128530 0.146160
H5    H     H_    0.314999 0.435947 0.871214 0.135983
H6    H     H_    0.788014 0.597620 0.877592 0.166332
H7    H     H_    0.655647 0.699726 0.845658 0.221318
H8    H     H_    0.776001 0.629118 0.119784 0.134075
H9    H     H_    0.887766 0.633068 0.334415 0.139312
H10   H     H_    0.885242 0.437182 0.790361 0.198870
H11   H     H_    0.889216 0.272660 0.732078 0.228530
H12   H     H_    0.106434 0.447475 0.791526 0.200195
H13   H     H_    0.111554 0.280611 0.738036 0.195216
H14   H     H_    0.419366 0.111249 0.292967 0.166675
H15   H     H_    0.410466 0.886897 0.300054 0.162532
H16   H     H_    0.436124 0.894992 0.783307 0.163683
N1    N     N_R   0.500790 0.500930 0.147930 -0.187977
N2    N     N_R   0.500790 0.500890 0.852020 -0.183317
O1    O     O_R   0.500000 0.319640 0.618810 -0.564350
O2    O     O_R   0.500010 0.319680 0.381230 -0.573269
O3    O     O_R   0.319650 0.499970 0.618810 -0.590659
O4    O     O_R   0.319660 0.500010 0.381230 -0.595944
O5    O     O_R   0.499990 0.680320 0.618770 -0.580609
O6    O     O_R   0.500000 0.680360 0.381190 -0.592843
O7    O     O_R   0.680340 0.499990 0.618770 -0.574391
O8    O     O_R   0.680350 0.500030 0.381190 -0.586221
F1    F     F_    0.628695 0.125755 0.831708 -0.655489
C27   C     C_3   0.624927 0.766416 0.106837 -0.292426
C28   C     C_3   0.488825 0.779549 0.062556 -0.803557
H17   H     H_    0.472108 0.744272 0.955904 0.248638
H18   H     H_    0.426214 0.728464 0.133901 0.263638
H19   H     H_    0.463412 0.878445 0.064483 0.227112
H20   H     H_    0.634811 0.782788 0.220012 0.218358
H21   H     H_    0.679923 0.841391 0.056600 0.202927

loop_
_geom_bond_atom_site_label_1
_geom_bond_atom_site_label_2
_ccdc_geom_bond_type
C19   C27   S    
C2    C22   A    
C12   O4    A    
C23   C24   A    
Cu1   O7    S    
C1    O2    A    
C4    H12   S    
C6    C7    A    
C16   H5    S    
C20   O5    A    
C4    C22   S    
C18   H7    S    
C9    C20   S    
C5    C13   S    
C14   C17   A    
C8    H15   S    
C21   C26   S    
C10   C11   S    
C12   O3    A    
C3    H11   S    
C5    C10   A    
C2    C26   A    
C24   C25   A    
C21   O7    A    
Cu2   O6    S    
C12   C23   S    
C28   H17   S    
C21   O8    A    
Cu1   N2    S    
Cu1   O5    S    
C17   C18   S    
C14   N1    A    
C2    C3    S    
C19   H8    S    
C18   H6    S    
C5    C6    A    
C27   H21   S    
Cu2   N1    S    
C28   H18   S    
C7    C8    A    
C4    H13   S    
C15   N1    A    
Cu1   O1    S    
C15   C16   A    
C11   H16   S    
C11   C13   S    
C17   N2    A    
C11   H2    S    
C20   O6    A    
C18   C19   S    
C9    C10   A    
C7    H14   S    
C16   N2    A    
C1    C6    S    
C27   C28   S    
Cu2   O8    S    
C27   H20   S    
C1    O1    A    
C28   H19   S    
C25   H9    S    
C25   C26   A    
C24   H1    S    
Cu2   O4    S    
C14   C19   S    
C13   H3    S    
C22   C23   A    
Cu2   O2    S    
C3    C4    S    
Cu1   O3    S    
C3    H10   S    
C13   F1    S    
C8    C9    A    
Cu1   Cu2   S    
C15   H4    S    
