data_mof_unit_62288.cif
_audit_creation_date              2012-12-10T18:55:29-0500
_audit_creation_method            fapswitch 2.2
_symmetry_space_group_name_H-M    P1
_symmetry_Int_Tables_number       1
_space_group_crystal_system       triclinic
_cell_length_a                    19.401887
_cell_length_b                    18.140472
_cell_length_c                    17.721975
_cell_angle_alpha                 90.000661
_cell_angle_beta                  90.201863
_cell_angle_gamma                 90.000431
_cell_volume                      6237.37676055

loop_
_atom_site_label
_atom_site_type_symbol
_atom_type_description
_atom_site_fract_x
_atom_site_fract_y
_atom_site_fract_z
_atom_type_partial_charge
C1    C     C_R   0.367806 0.500003 0.499929 0.847560
C2    C     C_R   0.632174 0.500003 0.500068 0.847135
C3    C     C_R   0.851422 0.500138 0.500034 0.165711
C4    C     C_R   0.148492 0.500138 0.499897 0.165822
C5    C     C_R   0.707150 0.500023 0.500079 -0.101848
C6    C     C_R   0.292791 0.500025 0.499895 -0.103412
C7    C     C_R   0.963590 0.567506 0.498629 0.284728
C8    C     C_R   0.036293 0.432956 0.495156 0.284770
C9    C     C_R   0.036332 0.567360 0.504679 0.284834
C10   C     C_R   0.963604 0.432808 0.501342 0.284718
C11   C     C_R   0.072252 0.500157 0.499892 0.007380
C12   C     C_R   0.927659 0.500155 0.500016 0.007411
C13   C     C_R   0.457321 0.720818 0.452249 -0.036462
C14   C     C_R   0.542506 0.279172 0.547927 -0.039383
C15   C     C_R   0.542673 0.720824 0.547754 -0.036249
C16   C     C_R   0.457490 0.279173 0.452075 -0.039655
C17   C     C_R   0.456107 0.798775 0.450987 0.254579
C18   C     C_R   0.543717 0.201213 0.549189 0.253734
C19   C     C_R   0.543880 0.798781 0.549018 0.254546
C20   C     C_R   0.456271 0.201215 0.450815 0.253674
C21   C     C_R   0.499992 0.838558 0.500002 0.022804
C22   C     C_R   0.499993 0.161427 0.500002 0.022837
C23   C     C_R   0.490194 0.961247 0.567279 -0.123251
C24   C     C_R   0.509794 0.038725 0.432725 -0.123496
C25   C     C_R   0.509784 0.961247 0.432723 -0.123272
C26   C     C_R   0.490184 0.038725 0.567278 -0.123600
C27   C     C_R   0.499990 0.078567 0.500002 0.200593
C28   C     C_R   0.499990 0.921411 0.500001 0.200797
C29   C     C_R   0.499911 0.500000 0.355348 0.785634
C30   C     C_R   0.500097 0.500000 0.644652 0.785676
C31   C     C_R   0.500682 0.566824 0.846339 -0.147416
C32   C     C_R   0.500161 0.433177 0.153664 -0.147513
C33   C     C_R   0.499382 0.566823 0.153663 -0.147417
C34   C     C_R   0.499900 0.433178 0.846335 -0.147504
C35   C     C_R   0.500685 0.566917 0.767676 -0.187551
C36   C     C_R   0.500135 0.433083 0.232326 -0.188332
C37   C     C_R   0.499358 0.566916 0.232326 -0.187607
C38   C     C_R   0.499906 0.433084 0.767672 -0.188396
C39   C     C_R   0.500236 0.500000 0.727638 -0.039661
C40   C     C_R   0.499793 0.499999 0.272362 -0.039691
C41   C     C_R   0.500251 0.500001 0.885559 0.144415
C42   C     C_R   0.499820 0.500000 0.114441 0.144411
C43   C     C_1   0.500109 0.500002 0.966166 -0.052645
C44   C     C_1   0.499970 0.500002 0.033835 -0.052644
C45   C     C_R   0.742739 0.463231 0.443045 -0.310265
C46   C     C_R   0.256854 0.539671 0.444868 -0.317399
C47   C     C_R   0.257152 0.460459 0.554935 -0.310579
C48   C     C_R   0.743083 0.536898 0.557080 -0.318320
C49   C     C_R   0.815045 0.464242 0.441566 0.425320
C50   C     C_R   0.184534 0.538826 0.443354 0.427607
C51   C     C_R   0.184847 0.461415 0.556450 0.424991
C52   C     C_R   0.815404 0.535999 0.558514 0.428075
Cu1   Cu    Cu3+1 0.500000 0.573360 0.500000 0.950283
Cu2   Cu    Cu3+1 0.500000 0.426640 0.500000 0.947235
H1    H     H_    0.501022 0.619282 0.738324 0.155018
H2    H     H_    0.500421 0.380717 0.261680 0.154829
H3    H     H_    0.499015 0.619281 0.261679 0.154990
H4    H     H_    0.499612 0.380718 0.738318 0.154734
H5    H     H_    0.714111 0.435368 0.398824 0.148826
H6    H     H_    0.285216 0.569670 0.402144 0.141895
H7    H     H_    0.285742 0.430454 0.597688 0.150276
H8    H     H_    0.714717 0.564761 0.601287 0.140872
H9    H     H_    0.423803 0.689693 0.415151 0.130204
H10   H     H_    0.575892 0.310289 0.585169 0.136436
H11   H     H_    0.576192 0.689703 0.584854 0.130677
H12   H     H_    0.424103 0.310292 0.414836 0.136542
H13   H     H_    0.481777 0.932308 0.619891 0.163071
H14   H     H_    0.518230 0.067658 0.380114 0.163068
H15   H     H_    0.518202 0.932308 0.380111 0.163073
H16   H     H_    0.481749 0.067657 0.619891 0.163016
N1    N     N_R   0.500000 0.683620 0.500000 -0.194946
N2    N     N_R   0.500000 0.316380 0.500000 -0.196750
O1    O     O_R   0.400190 0.561980 0.499990 -0.573635
O2    O     O_R   0.599810 0.438020 0.500010 -0.575224
O3    O     O_R   0.599810 0.561980 0.500010 -0.573359
O4    O     O_R   0.400190 0.438020 0.499990 -0.575717
O5    O     O_R   0.500000 0.561980 0.391260 -0.584792
O6    O     O_R   0.500000 0.438020 0.608740 -0.585588
O7    O     O_R   0.500000 0.561980 0.608740 -0.584704
O8    O     O_R   0.500000 0.438020 0.391260 -0.585416
H17   H     H_    0.500984 0.618766 0.876539 0.137550
H18   H     H_    0.500478 0.381235 0.123465 0.137453
H19   H     H_    0.499087 0.618765 0.123464 0.137537
H20   H     H_    0.499589 0.381236 0.876532 0.137430
O9    O     O_3   0.851167 0.431621 0.383378 -0.688509
H21   H     H_    0.818063 0.409171 0.347334 0.330329
O10   O     O_3   0.148072 0.574324 0.386937 -0.688906
H22   H     H_    0.180968 0.598479 0.352090 0.329137
O11   O     O_3   0.148704 0.425997 0.612887 -0.688418
H23   H     H_    0.181794 0.401810 0.647746 0.330322
O12   O     O_3   0.851889 0.568701 0.616662 -0.689032
H24   H     H_    0.819007 0.591118 0.652716 0.329167
O13   O     O_3   0.926315 0.631955 0.490403 -0.687906
H25   H     H_    0.956125 0.669777 0.466878 0.344624
O14   O     O_3   0.073486 0.368981 0.483614 -0.688806
H26   H     H_    0.043476 0.332332 0.458279 0.344525
O15   O     O_3   0.073618 0.631333 0.516162 -0.687836
H27   H     H_    0.043806 0.667984 0.541543 0.344575
O16   O     O_3   0.926398 0.368356 0.509635 -0.688781
H28   H     H_    0.956395 0.330538 0.533112 0.344580
O17   O     O_3   0.411714 0.836711 0.403884 -0.718968
H29   H     H_    0.384719 0.800766 0.373713 0.325277
O18   O     O_3   0.587962 0.163280 0.596460 -0.718735
H30   H     H_    0.614841 0.199225 0.626756 0.327163
O19   O     O_3   0.588270 0.836723 0.596120 -0.718858
H31   H     H_    0.615266 0.800782 0.626295 0.325530
O20   O     O_3   0.412018 0.163283 0.403550 -0.718756
H32   H     H_    0.385142 0.199229 0.373254 0.327208

loop_
_geom_bond_atom_site_label_1
_geom_bond_atom_site_label_2
_ccdc_geom_bond_type
O10   H22   S    
O13   H25   S    
C14   C18   A    
C35   C39   A    
O14   H26   S    
C16   N2    A    
C24   C27   A    
O15   H27   S    
C3    C49   A    
Cu1   Cu2   S    
C25   C28   A    
C15   C19   A    
C8    O14   S    
C26   C27   A    
O17   H29   S    
C34   H20   S    
C33   C42   A    
C32   C36   A    
Cu1   O7    S    
C37   C40   A    
C38   C39   A    
C15   H11   S    
C23   C26   A    
C23   H13   S    
C17   O17   S    
C3    C12   S    
Cu2   O2    S    
O20   H32   S    
C6    C46   A    
C2    O2    A    
C20   O20   S    
C38   H4    S    
C41   C43   S    
Cu1   O3    S    
C34   C41   A    
C42   C44   S    
Cu2   O8    S    
C7    C12   A    
C7    O13   S    
C5    C48   A    
C6    C47   A    
C4    C51   A    
C35   H1    S    
C1    C6    S    
C49   O9    S    
C36   C40   A    
C24   C25   A    
O12   H24   S    
C47   C51   A    
C13   N1    A    
O9    H21   S    
C5    C45   A    
C17   C21   A    
C4    C50   A    
Cu1   O5    S    
C43   C44   T    
C19   C21   A    
C36   H2    S    
C9    C11   A    
C48   H8    S    
O16   H28   S    
C13   H9    S    
C45   C49   A    
C16   C20   A    
C14   H10   S    
C29   O5    A    
C23   C28   A    
C4    C11   S    
C33   H19   S    
C16   H12   S    
C10   C12   A    
C50   O10   S    
Cu2   O4    S    
C30   O7    A    
C19   O19   S    
C21   C28   S    
C20   C22   A    
C22   C27   S    
C26   H16   S    
C31   C35   A    
C2    C5    S    
C25   H15   S    
Cu1   N1    S    
C15   N1    A    
C7    C9    A    
C45   H5    S    
C9    O15   S    
C31   C41   A    
C46   H6    S    
C34   C38   A    
C1    O4    A    
C14   N2    A    
Cu1   O1    S    
C47   H7    S    
C3    C52   A    
C32   H18   S    
O19   H31   S    
C46   C50   A    
C31   H17   S    
C13   C17   A    
C1    O1    A    
C18   C22   A    
C51   O11   S    
C29   O8    A    
C8    C11   A    
C29   C40   S    
C30   C39   S    
C18   O18   S    
C10   O16   S    
C33   C37   A    
C24   H14   S    
C30   O6    A    
C48   C52   A    
Cu2   N2    S    
C8    C10   A    
O18   H30   S    
C32   C42   A    
C52   O12   S    
O11   H23   S    
C37   H3    S    
C2    O3    A    
Cu2   O6    S    
