data_mof_unit_36393.cif
_audit_creation_date              2013-03-05T15:45:54-0500
_audit_creation_method            fapswitch 2.2
_symmetry_space_group_name_H-M    P1
_symmetry_Int_Tables_number       1
_space_group_crystal_system       triclinic
_cell_length_a                    20.595228
_cell_length_b                    7.254007
_cell_length_c                    20.273151
_cell_angle_alpha                 90.485642
_cell_angle_beta                  101.741183
_cell_angle_gamma                 90.944522
_cell_volume                      2964.77581944

loop_
_atom_site_label
_atom_site_type_symbol
_atom_site_description
_atom_site_fract_x
_atom_site_fract_y
_atom_site_fract_z
_atom_type_partial_charge
O1    O     O_R   0.673670 0.377510 0.185950 -0.577827
O2    O     O_R   0.326330 0.622490 0.814050 -0.577825
O3    O     O_R   0.826330 0.877510 0.314050 -0.581490
O4    O     O_R   0.173670 0.122490 0.685950 -0.581488
O5    O     O_R   0.806260 0.705340 0.185590 -0.583091
O6    O     O_R   0.193740 0.294660 0.814410 -0.583094
O7    O     O_R   0.693740 0.205340 0.314410 -0.564048
O8    O     O_R   0.306260 0.794660 0.685590 -0.564058
C1    C     C_R   0.825545 0.539063 0.170827 0.976639
C2    C     C_R   0.174455 0.460937 0.829172 0.976648
C3    C     C_R   0.674442 0.038214 0.329149 0.976461
C4    C     C_R   0.325558 0.961786 0.670851 0.976474
O9    O     O_R   0.672940 0.707120 0.178050 -0.583386
O10   O     O_R   0.327060 0.292880 0.821950 -0.583379
O11   O     O_R   0.827060 0.207120 0.321950 -0.571312
O12   O     O_R   0.172940 0.792880 0.678050 -0.571309
O13   O     O_R   0.692060 0.879040 0.306460 -0.588353
O14   O     O_R   0.307940 0.120960 0.693540 -0.588349
O15   O     O_R   0.807940 0.379040 0.193540 -0.562509
O16   O     O_R   0.192060 0.620960 0.806460 -0.562507
C5    C     C_R   0.648491 0.536711 0.161608 1.019510
C6    C     C_R   0.351509 0.463289 0.838391 1.019493
C7    C     C_R   0.851736 0.041106 0.338512 1.017799
C8    C     C_R   0.148263 0.958894 0.661489 1.017780
O17   O     O_3   0.756430 0.544390 0.292140 -0.284143
O18   O     O_3   0.243570 0.455610 0.707860 -0.284143
O19   O     O_3   0.743570 0.044390 0.207860 -0.287244
O20   O     O_3   0.256430 0.955610 0.792140 -0.287242
V1    V     V_3+5 0.748810 0.818610 0.242180 1.240678
V2    V     V_3+5 0.251190 0.181390 0.757820 1.240688
V3    V     V_3+5 0.751190 0.318610 0.257820 1.270363
V4    V     V_3+5 0.248810 0.681390 0.742180 1.270365
C9    C     C_R   0.085891 0.957895 0.609034 -0.338157
C10   C     C_R   0.914107 0.042105 0.390967 -0.338243
C11   C     C_R   0.414400 0.481706 0.889383 -0.325637
C12   C     C_R   0.585599 0.518294 0.110619 -0.325636
C13   C     C_R   0.021511 0.183212 0.443619 0.455664
C14   C     C_R   0.978487 0.816791 0.556381 0.455684
C15   C     C_R   0.475145 0.377707 0.071901 0.445109
C16   C     C_R   0.524853 0.622297 0.928100 0.445100
C17   C     C_R   0.965442 0.174202 0.390042 0.214745
C18   C     C_R   0.034557 0.825791 0.609957 0.214653
C19   C     C_R   0.531862 0.409692 0.123590 0.205010
C20   C     C_R   0.468136 0.590313 0.876412 0.205033
C21   C     C_R   0.920103 0.920622 0.445324 -0.178371
C22   C     C_R   0.079894 0.079388 0.554680 -0.178436
C23   C     C_R   0.581845 0.592645 0.046328 -0.222529
C24   C     C_R   0.418154 0.407353 0.953673 -0.222520
C25   C     C_R   0.974615 0.933323 0.500261 -0.049131
C26   C     C_R   0.025384 0.066681 0.499741 -0.049218
C27   C     C_R   0.526741 0.554804 0.993656 -0.043179
C28   C     C_R   0.473258 0.445197 0.006345 -0.043187
H1    H     H_    0.119425 0.179570 0.554273 0.181762
H2    H     H_    0.880568 0.820453 0.445734 0.181791
H3    H     H_    0.376460 0.325930 0.963090 0.178454
H4    H     H_    0.623540 0.674066 0.036910 0.178454
C29   C     C_3   0.555456 0.081113 0.532379 0.282209
C30   C     C_3   0.444545 0.918887 0.467621 0.282213
C31   C     C_3   0.963125 0.646809 0.983763 0.292854
C32   C     C_3   0.036869 0.353200 0.016231 0.292888
C33   C     C_3   0.525043 0.902517 0.553923 0.523307
C34   C     C_3   0.474958 0.097482 0.446077 0.523304
C35   C     C_3   0.967633 0.483141 0.936566 0.515961
C36   C     C_3   0.032362 0.516867 0.063427 0.515960
H5    H     H_    0.522355 0.683114 0.464527 0.200032
H6    H     H_    0.477646 0.316887 0.535474 0.200033
H7    H     H_    0.928878 0.218007 0.987908 0.246495
H8    H     H_    0.071118 0.781999 0.012087 0.246486
C37   C     C_1   0.370874 0.971634 0.624984 -0.209982
C38   C     C_1   0.629126 0.028366 0.375016 -0.209979
C39   C     C_1   0.129190 0.468644 0.875178 -0.216660
C40   C     C_1   0.870807 0.531358 0.124820 -0.216662
C41   C     C_3   0.487147 0.174720 0.519550 -0.547472
C42   C     C_3   0.512853 0.825280 0.480450 -0.547475
C43   C     C_3   0.039472 0.655498 0.006986 -0.484576
C44   C     C_3   0.960523 0.344510 0.993008 -0.484549
C45   C     C_3   0.456296 0.992344 0.540854 -0.109557
C46   C     C_3   0.543705 0.007656 0.459146 -0.109558
C47   C     C_3   0.043844 0.488036 0.959449 -0.154454
C48   C     C_3   0.956151 0.511972 0.040545 -0.154467
C49   C     C_1   0.409205 0.980742 0.586928 0.236506
C50   C     C_1   0.590796 0.019257 0.413073 0.236507
C51   C     C_1   0.090906 0.476403 0.913319 0.261557
C52   C     C_1   0.909091 0.523601 0.086676 0.261559
N1    N     N_R   0.037852 0.703591 0.666007 0.243695
O21   O     O_R   0.052154 0.768207 0.727434 -0.391910
O22   O     O_R   0.021794 0.529890 0.655855 -0.347155
N2    N     N_R   0.962152 0.296379 0.333987 0.243732
O23   O     O_R   0.947850 0.231742 0.272562 -0.391881
O24   O     O_R   0.978214 0.470081 0.344130 -0.347132
N3    N     N_R   0.466083 0.666149 0.810622 0.240017
O25   O     O_R   0.445503 0.565438 0.756755 -0.399955
O26   O     O_R   0.488158 0.832853 0.804327 -0.342931
N4    N     N_R   0.533915 0.333871 0.189383 0.240007
O27   O     O_R   0.554514 0.434565 0.243248 -0.399957
O28   O     O_R   0.511804 0.167200 0.195683 -0.342911
O29   O     O_3   0.071890 0.310669 0.441790 -0.596584
C53   C     C_3   0.117581 0.230825 0.407072 0.252319
H9    H     H_    0.093466 0.194844 0.354123 0.139078
H10   H     H_    0.139375 0.104424 0.432894 0.088291
C54   C     C_3   0.173727 0.368500 0.405363 -0.775372
H11   H     H_    0.199567 0.405389 0.457505 0.250992
H12   H     H_    0.209956 0.306993 0.378185 0.199523
H13   H     H_    0.153734 0.495328 0.378940 0.269510
O30   O     O_3   0.928101 0.689353 0.558208 -0.596591
C55   C     C_3   0.882432 0.769175 0.592959 0.252277
H14   H     H_    0.860771 0.895918 0.567277 0.088256
H15   H     H_    0.906533 0.804604 0.645959 0.139314
C56   C     C_3   0.826149 0.631775 0.594443 -0.775593
H16   H     H_    0.846002 0.504565 0.620694 0.269549
H17   H     H_    0.789958 0.693236 0.621680 0.199585
H18   H     H_    0.800306 0.595520 0.542243 0.250878
O31   O     O_3   0.422165 0.274641 0.085110 -0.596616
C57   C     C_3   0.379453 0.393770 0.110830 0.266039
H19   H     H_    0.361143 0.504559 0.074312 0.079629
H20   H     H_    0.405040 0.457910 0.159519 0.134032
C58   C     C_3   0.319762 0.283495 0.123349 -0.803385
H21   H     H_    0.336321 0.171914 0.159776 0.272906
H22   H     H_    0.286257 0.375350 0.144414 0.197680
H23   H     H_    0.292030 0.221550 0.075324 0.260180
O32   O     O_3   0.577833 0.725362 0.914891 -0.596623
C59   C     C_3   0.620542 0.606232 0.889167 0.266029
H24   H     H_    0.594953 0.542095 0.840479 0.134034
H25   H     H_    0.638853 0.495438 0.925684 0.079636
C60   C     C_3   0.680234 0.716504 0.876647 -0.803398
H26   H     H_    0.707968 0.778443 0.924672 0.260181
H27   H     H_    0.713737 0.624649 0.855579 0.197670
H28   H     H_    0.663674 0.828090 0.840223 0.272907
O33   O     O_3   0.550004 0.808350 0.614145 -0.584648
C61   C     C_3   0.606423 0.708228 0.607260 0.309025
H29   H     H_    0.641871 0.792519 0.584681 0.093002
H30   H     H_    0.591060 0.583193 0.575401 0.127470
C62   C     C_3   0.642501 0.647858 0.676575 -0.717841
H31   H     H_    0.608860 0.562405 0.700762 0.275340
H32   H     H_    0.686329 0.565512 0.671810 0.214097
H33   H     H_    0.659542 0.770719 0.708911 0.241391
O34   O     O_3   0.449997 0.191649 0.385855 -0.584645
C63   C     C_3   0.393578 0.291773 0.392740 0.309022
H34   H     H_    0.408942 0.416807 0.424599 0.127464
H35   H     H_    0.358129 0.207483 0.415318 0.093006
C64   C     C_3   0.357503 0.352146 0.323424 -0.717822
H36   H     H_    0.340461 0.229285 0.291087 0.241391
H37   H     H_    0.313674 0.434494 0.328188 0.214095
H38   H     H_    0.391145 0.437596 0.299237 0.275338
O35   O     O_3   0.936599 0.473147 0.867769 -0.572583
C65   C     C_3   0.868298 0.433896 0.861456 0.305944
H39   H     H_    0.845002 0.529244 0.892839 0.093620
H40   H     H_    0.860552 0.289114 0.876247 0.129730
C66   C     C_3   0.833612 0.456243 0.788245 -0.804734
H41   H     H_    0.855168 0.361625 0.755407 0.268062
H42   H     H_    0.779888 0.423116 0.782375 0.201505
H43   H     H_    0.839592 0.600553 0.772237 0.262210
O36   O     O_3   0.063399 0.526850 0.132223 -0.572585
C67   C     C_3   0.131696 0.566159 0.138534 0.306050
H44   H     H_    0.139425 0.710986 0.123782 0.129779
H45   H     H_    0.154994 0.470912 0.107118 0.093554
C68   C     C_3   0.166396 0.543677 0.211734 -0.804913
H46   H     H_    0.160434 0.399317 0.227700 0.262248
H47   H     H_    0.220115 0.576862 0.217603 0.201536
H48   H     H_    0.144836 0.638184 0.244605 0.268038
N5    N     N_R   0.616311 0.167120 0.570165 0.235357
O37   O     O_R   0.620996 0.210155 0.633360 -0.390007
O38   O     O_R   0.666447 0.198372 0.541611 -0.443004
N6    N     N_R   0.383690 0.832880 0.429835 0.235358
O39   O     O_R   0.379004 0.789847 0.366640 -0.390004
O40   O     O_R   0.333554 0.801624 0.458390 -0.443032
N7    N     N_R   0.922670 0.807472 0.963561 0.245481
O41   O     O_R   0.932616 0.905500 0.913010 -0.370092
O42   O     O_R   0.875725 0.851478 0.994707 -0.437177
N8    N     N_R   0.077326 0.192539 0.036434 0.245493
O43   O     O_R   0.067380 0.094513 0.086986 -0.370089
O44   O     O_R   0.124272 0.148536 0.005289 -0.437177

loop_
_geom_bond_atom_site_label_1
_geom_bond_atom_site_label_2
_geom_bond_distance
_ccdc_geom_bond_type
O17   V3    1.767050 S    
C24   H3    1.083787 S    
C4    C37   1.446694 S    
C32   C47   1.544079 S    
O1    C5    1.330924 A    
C54   H11   1.110766 S    
O19   V1    1.781221 S    
O13   V1    1.970663 S    
O30   C55   1.413142 S    
O3    C7    1.338649 A    
C1    C40   1.448014 S    
C48   C52   1.480346 S    
C30   N6    1.456803 S    
C13   O29   1.384698 S    
O35   C65   1.410357 S    
C3    C38   1.446692 S    
N6    O40   1.300179 A    
N7    O42   1.300228 A    
C5    C12   1.487008 S    
C35   C47   1.543249 S    
N1    O21   1.301378 A    
H8    C43   1.108507 S    
O7    C3    1.324988 A    
C16   O32   1.384433 S    
C68   H46   1.110916 S    
N8    O44   1.300224 A    
C9    C18   1.418224 A    
O9    V1    1.974765 S    
N6    O39   1.300010 A    
C14   C18   1.415391 A    
C66   H42   1.110531 S    
O4    C8    1.338650 A    
C55   H14   1.114673 S    
O1    V3    1.985132 S    
C19   N4    1.440012 S    
O11   V3    2.004663 S    
C12   C23   1.402837 A    
O2    V4    1.985136 S    
C29   C41   1.547087 S    
O3    V1    1.968419 S    
C30   C45   1.543649 S    
C14   C25   1.413144 A    
C64   H36   1.110577 S    
C1    O15   1.324423 A    
C33   C45   1.542752 S    
C15   O31   1.384423 S    
O2    C6    1.330922 A    
C60   H28   1.110652 S    
C34   C41   1.557133 S    
O14   V2    1.970660 S    
C45   C49   1.479022 S    
C16   C20   1.416027 A    
C65   H40   1.112503 S    
C33   O33   1.411288 S    
C2    C39   1.448012 S    
O11   C7    1.333741 A    
C15   C28   1.413554 A    
O15   V3    1.966999 S    
O12   C8    1.333740 A    
C9    C22   1.403878 A    
C36   C48   1.543244 S    
C10   C17   1.418215 A    
O10   V2    1.974764 S    
C11   C24   1.402830 A    
N5    O38   1.300177 A    
O29   C53   1.413154 S    
C39   C51   1.213117 T    
N1    O22   1.301370 A    
O7    V3    1.981834 S    
C65   H39   1.114037 S    
C27   C28   1.414758 A    
O8    V4    1.981834 S    
C67   C68   1.521813 S    
C66   H43   1.110911 S    
C2    O16   1.324422 A    
N3    O25   1.301475 A    
C10   C21   1.403873 A    
O18   V4    1.767049 S    
C23   C27   1.412487 A    
H6    C41   1.110296 S    
C36   O36   1.411725 S    
C32   C44   1.546915 S    
H5    C42   1.110296 S    
C56   H18   1.110767 S    
C64   H37   1.110512 S    
C68   H47   1.110528 S    
C61   H30   1.112367 S    
O5    C1    1.326739 A    
C6    C11   1.487006 S    
N3    O26   1.301325 A    
C65   C66   1.521817 S    
C46   C50   1.479018 S    
C57   H20   1.113966 S    
C21   C25   1.412556 A    
O8    C4    1.324988 A    
C7    C10   1.491520 S    
C4    O14   1.322567 A    
C67   H44   1.112508 S    
O9    C5    1.340488 A    
C18   N1    1.438475 S    
N4    O28   1.301372 A    
C11   C20   1.416975 A    
O32   C59   1.412995 S    
C40   C52   1.213120 T    
C20   N3    1.440006 S    
C63   H35   1.114639 S    
C30   C34   1.534822 S    
C62   H33   1.110576 S    
O6    V2    1.989927 S    
N2    O24   1.301377 A    
C21   H2    1.083678 S    
C53   H9    1.114029 S    
C68   H48   1.110839 S    
C53   H10   1.114603 S    
C42   C46   1.560172 S    
C62   H31   1.110841 S    
C58   H23   1.110790 S    
C61   C62   1.521445 S    
O12   V4    2.004663 S    
C59   H25   1.114746 S    
C53   C54   1.521353 S    
O5    V1    1.989924 S    
C31   C43   1.546917 S    
N7    O41   1.300337 A    
C31   N7    1.456520 S    
C30   C42   1.547086 S    
C62   H32   1.110514 S    
O31   C57   1.413001 S    
O16   V4    1.967001 S    
C17   N2    1.438475 S    
C3    O13   1.322567 A    
C67   H45   1.114045 S    
C29   C46   1.543647 S    
C34   C46   1.542752 S    
C44   C48   1.559361 S    
C63   C64   1.521444 S    
C31   C48   1.544087 S    
O6    C2    1.326740 A    
C15   C19   1.416036 A    
C29   C33   1.534823 S    
C64   H38   1.110841 S    
C33   C42   1.557132 S    
C54   H13   1.110857 S    
C16   C27   1.413551 A    
O34   C63   1.410413 S    
C22   C26   1.412553 A    
C31   C35   1.534347 S    
C8    C9    1.491523 S    
C32   C36   1.534341 S    
C32   N8    1.456520 S    
O10   C6    1.340489 A    
C14   O30   1.384704 S    
C58   H22   1.110309 S    
C61   H29   1.114638 S    
O33   C61   1.410415 S    
N5    O37   1.300010 A    
C58   H21   1.110651 S    
C47   C51   1.480344 S    
C13   C26   1.413157 A    
C60   H26   1.110792 S    
C55   H15   1.114006 S    
C59   C60   1.521061 S    
C56   H17   1.110628 S    
C22   H1    1.083676 S    
O20   V2    1.781223 S    
C36   C43   1.557206 S    
C57   H19   1.114742 S    
C34   O34   1.411290 S    
C13   C17   1.415388 A    
N4    O27   1.301441 A    
C38   C50   1.212360 T    
C57   C58   1.521061 S    
C37   C49   1.212358 T    
C63   H34   1.112368 S    
C24   C28   1.412492 A    
C29   N5    1.456802 S    
N2    O23   1.301377 A    
C54   H12   1.110643 S    
C25   C26   1.414408 A    
N8    O43   1.300339 A    
C56   H16   1.110919 S    
C60   H27   1.110311 S    
C41   C45   1.560173 S    
C35   C44   1.557208 S    
C12   C19   1.416986 A    
H7    C44   1.108506 S    
C59   H24   1.113968 S    
C66   H41   1.110835 S    
C43   C47   1.559358 S    
C35   O35   1.411728 S    
O4    V2    1.968418 S    
C23   H4    1.083784 S    
O36   C67   1.410358 S    
C55   C56   1.521380 S    
