data_mof_unit_39926.cif
_audit_creation_date              2012-12-11T17:14:09-0500
_audit_creation_method            fapswitch 2.2
_symmetry_space_group_name_H-M    P1
_symmetry_Int_Tables_number       1
_space_group_crystal_system       triclinic
_cell_length_a                    18.227432
_cell_length_b                    7.105383
_cell_length_c                    12.94046
_cell_angle_alpha                 90.255327
_cell_angle_beta                  72.746427
_cell_angle_gamma                 89.675136
_cell_volume                      1600.4819236

loop_
_atom_site_label
_atom_site_type_symbol
_atom_type_description
_atom_site_fract_x
_atom_site_fract_y
_atom_site_fract_z
_atom_type_partial_charge
O1    O     O_R   0.453880 0.506200 0.150010 -0.526465
O2    O     O_R   0.546120 0.006200 0.849990 -0.541255
O3    O     O_R   0.604080 0.177770 0.007280 -0.544319
O4    O     O_R   0.395920 0.677770 0.992720 -0.527598
C1    C     C_R   0.635942 0.344169 0.001915 0.742821
C2    C     C_R   0.364080 0.844772 0.998061 0.743324
O5    O     O_R   0.458010 0.176640 0.159130 -0.551851
O6    O     O_R   0.541990 0.676640 0.840870 -0.536293
O7    O     O_R   0.399010 0.004010 0.002930 -0.546437
O8    O     O_R   0.600990 0.504010 0.997070 -0.531199
C3    C     C_R   0.443364 0.345805 0.201949 0.731213
C4    C     C_R   0.556419 0.844816 0.798082 0.727117
O9    O     O_3   0.480810 0.338440 0.948570 -0.377307
O10   O     O_3   0.519190 0.838440 0.051430 -0.371127
V1    V     V_3+5 0.503560 0.064490 0.009540 1.454790
V2    V     V_3+5 0.496440 0.564490 0.990460 1.516652
C5    C     C_R   0.577261 0.826923 0.500494 0.561038
C6    C     C_R   0.420401 0.437613 0.496183 0.561846
H1    H     H_    0.482326 0.830992 0.646830 0.181560
H2    H     H_    0.514792 0.438087 0.349262 0.183948
C7    C     C_R   0.590434 0.852266 0.680685 -0.161429
C8    C     C_R   0.409331 0.358234 0.319422 -0.170755
C9    C     C_R   0.947670 0.912307 0.384003 -0.280760
C10   C     C_R   0.051130 0.322104 0.615932 -0.296253
C11   C     C_R   0.914859 0.952041 0.492622 -0.166227
C12   C     C_R   0.081868 0.319300 0.504565 -0.165477
C13   C     C_R   0.835705 0.945544 0.538631 0.642202
C14   C     C_R   0.160228 0.343693 0.456522 0.645407
C15   C     C_R   0.786818 0.883935 0.477344 -0.073065
C16   C     C_R   0.211346 0.363577 0.520643 -0.073149
C17   C     C_R   0.820463 0.850073 0.363705 -0.163883
C18   C     C_R   0.178566 0.383117 0.635504 -0.163949
C19   C     C_R   0.705607 0.863077 0.524153 -0.045781
C20   C     C_R   0.293199 0.371134 0.474699 -0.042798
C21   C     C_R   0.658305 0.829661 0.456194 -0.176559
C22   C     C_R   0.339681 0.423868 0.541038 -0.174227
C23   C     C_R   0.692414 0.793278 0.345915 0.540069
C24   C     C_R   0.305199 0.461896 0.651080 0.541735
C25   C     C_R   0.771805 0.806063 0.298975 0.318223
C26   C     C_R   0.227137 0.429902 0.699819 0.315240
C27   C     C_R   0.670010 0.862324 0.637261 -0.103096
C28   C     C_R   0.330878 0.326932 0.364863 -0.116668
C29   C     C_R   0.544130 0.840044 0.612619 -0.241767
C30   C     C_R   0.453827 0.414216 0.384709 -0.245564
C31   C     C_R   0.901817 0.867330 0.318216 -0.035367
C32   C     C_R   0.097725 0.358071 0.681872 -0.038087
H3    H     H_    0.702518 0.856290 0.694329 0.189747
H4    H     H_    0.301438 0.267085 0.311936 0.194376
H5    H     H_    0.009275 0.927282 0.349511 0.144520
H6    H     H_    0.989798 0.302915 0.651000 0.148357
H7    H     H_    0.951050 0.997411 0.540817 0.149686
H8    H     H_    0.044111 0.302057 0.454497 0.154041
C33   C     C_1   0.216313 0.858256 0.000208 -0.146431
C34   C     C_1   0.783683 0.359447 0.999692 -0.155260
C35   C     C_1   0.283633 0.852845 0.998940 -0.139783
C36   C     C_1   0.716390 0.352225 0.001007 -0.145608
O11   O     O_R   0.899030 0.205490 0.002790 -0.556095
O12   O     O_R   0.100970 0.705490 0.997210 -0.513417
O13   O     O_R   0.042000 0.536370 0.840840 -0.527097
O14   O     O_R   0.958000 0.036370 0.159160 -0.551857
C37   C     C_R   0.059215 0.367860 0.798566 0.793361
C38   C     C_R   0.940246 0.869436 0.201364 0.784401
O15   O     O_R   0.895930 0.535070 0.992690 -0.524185
O16   O     O_R   0.104070 0.035070 0.007310 -0.558492
O17   O     O_R   0.953870 0.707520 0.150040 -0.518795
O18   O     O_R   0.046130 0.207520 0.849960 -0.549382
C39   C     C_R   0.864160 0.367164 0.998637 0.740497
C40   C     C_R   0.135824 0.866433 0.001334 0.736944
O19   O     O_3   0.019200 0.374340 0.051340 -0.375501
O20   O     O_3   0.980800 0.874340 0.948660 -0.384403
V3    V     V_3+5 0.996440 0.648350 0.990470 1.522412
V4    V     V_3+5 0.003560 0.148350 0.009530 1.432906
F1    F     F_    0.649223 0.733855 0.282802 -0.666542
F2    F     F_    0.346869 0.533110 0.713439 -0.665732
O21   O     O_3   0.530892 0.786523 0.435933 -0.503416
C41   C     C_3   0.496162 0.953081 0.414624 -0.127621
H9    H     H_    0.463968 0.920070 0.356345 0.174105
H10   H     H_    0.539892 0.060287 0.376181 0.105735
H11   H     H_    0.453926 0.008603 0.489220 0.090331
O22   O     O_3   0.465652 0.494265 0.559358 -0.505690
C42   C     C_3   0.505996 0.338267 0.582327 -0.133513
H12   H     H_    0.466124 0.224943 0.623137 0.107242
H13   H     H_    0.537599 0.384225 0.639164 0.173793
H14   H     H_    0.549405 0.285220 0.508115 0.094355
F3    F     F_    0.808645 0.017754 0.640045 -0.724660
F4    F     F_    0.182710 0.364087 0.347624 -0.721832
O23   O     O_3   0.801893 0.760421 0.190385 -0.544596
C43   C     C_3   0.782394 0.902213 0.126713 -0.116770
H15   H     H_    0.789124 0.046405 0.156725 0.090410
H16   H     H_    0.723182 0.883846 0.121601 0.181573
H17   H     H_    0.821346 0.888852 0.043056 0.161010
O24   O     O_3   0.197499 0.465875 0.809605 -0.543334
C44   C     C_3   0.221215 0.322045 0.867811 -0.121671
H18   H     H_    0.282877 0.334439 0.862592 0.172931
H19   H     H_    0.209741 0.179561 0.840145 0.094754
H20   H     H_    0.188287 0.337469 0.954467 0.165722

loop_
_geom_bond_atom_site_label_1
_geom_bond_atom_site_label_2
_ccdc_geom_bond_type
C16   C18   A    
O23   C43   S    
C44   H18   S    
C9    C31   A    
C13   C15   A    
C1    C36   S    
O1    C3    A    
C41   H11   S    
C25   O23   S    
C2    C35   S    
O2    C4    A    
C2    O7    A    
C5    C29   A    
C42   H12   S    
C6    O22   S    
O5    C3    A    
O16   C40   A    
C21   C23   A    
C41   H10   S    
C6    C30   A    
O12   V3    S    
C9    H5    S    
O14   V4    S    
C15   C19   A    
C31   C38   S    
O14   C38   A    
O19   V3    S    
C33   C40   S    
H2    C30   S    
C7    C29   A    
C37   O18   A    
C8    C30   A    
O18   V4    S    
C20   C28   A    
H1    C29   S    
O20   V3    S    
O5    V1    S    
C44   H19   S    
O11   C39   A    
C42   H13   S    
C13   F3    S    
C34   C36   T    
C33   C35   T    
C10   H6    S    
C23   C25   A    
O15   C39   A    
O13   C37   A    
C16   C20   A    
C32   C37   S    
C41   H9    S    
O4    C2    A    
C34   C39   S    
O17   V3    S    
C4    C7    S    
O4    V2    S    
O19   V4    S    
O21   C41   S    
C11   H7    S    
C12   H8    S    
C43   H17   S    
O6    C4    A    
C27   H3    S    
O1    V2    S    
C28   H4    S    
C26   O24   S    
O2    V1    S    
C7    C27   A    
O12   C40   A    
C43   H16   S    
C44   H20   S    
C18   C26   A    
C14   F4    S    
C42   H14   S    
O3    V1    S    
C24   F2    S    
C23   F1    S    
C38   O17   A    
C18   C32   A    
C10   C12   A    
O15   V3    S    
O22   C42   S    
O3    C1    A    
C11   C13   A    
C3    C8    S    
C12   C14   A    
C19   C27   A    
C22   C24   A    
O7    V1    S    
C10   C32   A    
C1    O8    A    
C15   C17   A    
O8    V2    S    
C24   C26   A    
C8    C28   A    
C14   C16   A    
O24   C44   S    
C19   C21   A    
C17   C25   A    
C20   C22   A    
O16   V4    S    
O11   V4    S    
C9    C11   A    
C43   H15   S    
O6    V2    S    
C17   C31   A    
O9    V2    S    
C5    O21   S    
O10   V1    S    
O20   V4    S    
C5    C21   A    
C6    C22   A    
O13   V3    S    
