data_mof_unit_17944.cif
_audit_creation_date              2012-12-10T17:26:19-0500
_audit_creation_method            fapswitch 2.2
_symmetry_space_group_name_H-M    P1
_symmetry_Int_Tables_number       1
_space_group_crystal_system       triclinic
_cell_length_a                    10.134834
_cell_length_b                    10.850853
_cell_length_c                    27.739403
_cell_angle_alpha                 90.139018
_cell_angle_beta                  81.122865
_cell_angle_gamma                 95.107597
_cell_volume                      3001.83934139

loop_
_atom_site_label
_atom_site_type_symbol
_atom_type_description
_atom_site_fract_x
_atom_site_fract_y
_atom_site_fract_z
_atom_type_partial_charge
C1    C     C_R   0.556011 0.732426 0.496066 0.944741
C2    C     C_R   0.443944 0.267699 0.502354 0.943775
C3    C     C_R   0.500225 0.495483 0.898280 -0.050868
C4    C     C_R   0.513088 0.478988 0.100952 -0.050726
C5    C     C_R   0.606379 0.558779 0.866544 -0.037734
C6    C     C_R   0.414357 0.404790 0.131981 -0.036084
C7    C     C_R   0.715590 0.617083 0.885225 -0.124780
C8    C     C_R   0.315902 0.331827 0.112327 -0.127048
C9    C     C_R   0.390599 0.436355 0.879063 -0.028832
C10   C     C_R   0.613173 0.551182 0.121032 -0.029453
C11   C     C_R   0.499616 0.492068 0.646636 -0.118174
C12   C     C_R   0.499888 0.501294 0.353155 -0.118756
C13   C     C_R   0.613405 0.554555 0.019096 0.044007
C14   C     C_R   0.398378 0.422837 0.980316 0.045115
C15   C     C_R   0.405805 0.412836 0.030703 0.044086
C16   C     C_R   0.613365 0.554092 0.968014 0.043235
C17   C     C_R   0.510973 0.481889 0.050025 0.075874
C18   C     C_R   0.503962 0.490867 0.949082 0.076207
C19   C     C_R   0.711819 0.626558 0.040592 -0.210727
C20   C     C_R   0.287669 0.368274 0.959992 -0.211361
C21   C     C_R   0.711549 0.624572 0.090563 -0.130709
C22   C     C_R   0.284342 0.374684 0.910301 -0.132553
C23   C     C_R   0.499813 0.497232 0.593908 0.892145
C24   C     C_R   0.499994 0.501770 0.406016 0.887430
C25   C     C_R   0.719521 0.614574 0.934930 -0.208039
C26   C     C_R   0.311714 0.335293 0.062644 -0.207197
C27   C     C_2   0.587683 0.863956 0.490640 -0.382793
C28   C     C_2   0.411739 0.136260 0.501606 -0.379358
C29   C     C_2   0.486175 0.934462 0.493097 -0.168475
C30   C     C_2   0.511638 0.065539 0.488818 -0.170179
C31   C     C_2   0.927067 0.509083 0.503794 0.096228
C32   C     C_2   0.072664 0.489944 0.496604 0.099096
C33   C     C_R   0.601755 0.560383 0.816437 0.581339
C34   C     C_R   0.416073 0.406075 0.182291 0.577375
C35   C     C_R   0.390325 0.439826 0.828681 0.534147
C36   C     C_R   0.610574 0.550336 0.171578 0.538242
C37   C     C_R   0.581807 0.419276 0.718849 0.468419
C38   C     C_R   0.413260 0.558280 0.279564 0.465495
C39   C     C_R   0.584646 0.417544 0.667670 -0.157241
C40   C     C_R   0.408284 0.565203 0.330817 -0.157104
C41   C     C_R   0.413582 0.564952 0.676305 -0.223635
C42   C     C_R   0.593188 0.432737 0.324586 -0.223185
C43   C     C_R   0.413190 0.567646 0.726181 -0.190466
C44   C     C_R   0.595639 0.424902 0.274724 -0.193775
C45   C     C_R   0.497282 0.496245 0.747226 0.272898
C46   C     C_R   0.506105 0.486558 0.252449 0.277151
H1    H     H_    0.348419 0.622326 0.660691 0.177435
H2    H     H_    0.663258 0.382861 0.341005 0.178930
H3    H     H_    0.308803 0.097276 0.512464 0.152147
H4    H     H_    0.691590 0.902897 0.484321 0.151451
H5    H     H_    0.110757 0.422124 0.470506 0.150242
H6    H     H_    0.888810 0.576320 0.530121 0.150875
H7    H     H_    0.347750 0.625806 0.748691 0.168692
H8    H     H_    0.667469 0.370783 0.253145 0.167799
H9    H     H_    0.799401 0.664602 0.861406 0.192291
H10   H     H_    0.240691 0.271998 0.135361 0.191632
H11   H     H_    0.788621 0.681940 0.105262 0.192267
H12   H     H_    0.197764 0.330614 0.896461 0.192382
H13   H     H_    0.789038 0.688430 0.020055 0.144654
H14   H     H_    0.200071 0.321778 0.981598 0.144995
H15   H     H_    0.809129 0.658995 0.945991 0.144474
H16   H     H_    0.234402 0.274082 0.050373 0.144915
H17   H     H_    0.614667 0.104154 0.477594 0.195658
H18   H     H_    0.382079 0.896016 0.500176 0.196951
N1    N     N_R   0.495536 0.500246 0.798682 -0.333910
N2    N     N_R   0.512122 0.479498 0.200877 -0.333566
N3    N     N_2   0.842700 0.448890 0.480020 0.018638
N4    N     N_2   0.157300 0.551110 0.519980 0.020344
O1    O     O_R   0.431060 0.692470 0.504020 -0.616175
O2    O     O_R   0.568940 0.307530 0.495980 -0.613058
O3    O     O_R   0.651120 0.659650 0.491200 -0.630202
O4    O     O_R   0.348880 0.340350 0.508800 -0.630561
O5    O     O_R   0.389980 0.516390 0.577660 -0.621953
O6    O     O_R   0.610020 0.483610 0.422340 -0.626870
O7    O     O_R   0.610040 0.483570 0.564830 -0.610877
O8    O     O_R   0.389960 0.516430 0.435170 -0.612113
O9    O     O_2   0.702640 0.620879 0.785553 -0.546266
O10   O     O_2   0.322079 0.335634 0.212548 -0.548534
O11   O     O_2   0.704284 0.620886 0.191476 -0.550818
O12   O     O_2   0.286963 0.381948 0.809638 -0.550004
Zn1   Zn    Zn3+2 0.353060 0.521910 0.508560 0.968066
Zn2   Zn    Zn3+2 0.646940 0.478090 0.491440 0.965635
O13   O     O_3   0.109904 0.635181 0.552130 -0.724911
H19   H     H_    0.189325 0.670906 0.565809 0.370418
O14   O     O_3   0.890280 0.365520 0.447585 -0.730205
H20   H     H_    0.810998 0.330327 0.433695 0.368036
C47   C     C_R   0.309199 0.638856 0.360207 0.105084
C48   C     C_R   0.350928 0.751866 0.380347 -0.108438
C49   C     C_R   0.256663 0.821747 0.407409 -0.112441
C50   C     C_R   0.120718 0.779120 0.414659 -0.103278
C51   C     C_R   0.078598 0.666887 0.394582 -0.131665
C52   C     C_R   0.172420 0.596668 0.367506 -0.114983
H21   H     H_    0.456014 0.785735 0.374939 0.126915
H22   H     H_    0.288807 0.909317 0.422524 0.135044
H23   H     H_    0.047961 0.833243 0.435682 0.132943
H24   H     H_    0.973253 0.634204 0.400070 0.161196
H25   H     H_    0.138773 0.509700 0.352185 0.164889
C53   C     C_R   0.674259 0.338060 0.636769 0.104516
C54   C     C_R   0.813166 0.370555 0.627868 -0.113044
C55   C     C_R   0.897482 0.296585 0.598173 -0.131863
C56   C     C_R   0.843717 0.190069 0.577217 -0.093964
C57   C     C_R   0.705613 0.156979 0.586130 -0.110231
C58   C     C_R   0.620836 0.230787 0.615720 -0.114683
H26   H     H_    0.855694 0.453339 0.643680 0.164227
H27   H     H_    0.004441 0.322098 0.591253 0.149868
H28   H     H_    0.909076 0.133077 0.554145 0.131134
H29   H     H_    0.664319 0.074060 0.570148 0.141023
H30   H     H_    0.513890 0.204730 0.622159 0.123963
O15   O     O_3   0.331810 0.620647 0.254168 -0.751703
H31   H     H_    0.284605 0.681260 0.275410 0.344855
O16   O     O_3   0.657566 0.347159 0.742955 -0.749998
H32   H     H_    0.700403 0.286364 0.720547 0.343974

loop_
_geom_bond_atom_site_label_1
_geom_bond_atom_site_label_2
_ccdc_geom_bond_type
C47   C48   A    
C56   C57   A    
C27   C29   D    
C8    C26   A    
C14   C18   A    
O16   H32   S    
C7    H9    S    
C31   H6    S    
C24   O6    A    
C8    H10   S    
C33   N1    A    
C50   H23   S    
O14   H20   S    
C31   N3    D    
C55   H27   S    
C1    O3    A    
O13   H19   S    
N4    Zn1   S    
C40   C47   S    
C19   C21   A    
O6    Zn2   S    
C46   N2    S    
C36   N2    A    
C9    C22   A    
C35   N1    A    
C53   C58   A    
C35   O12   S    
C16   C25   A    
C3    C18   A    
C49   H22   S    
C15   C26   A    
C12   C42   A    
C51   H24   S    
C43   H7    S    
C31   C32   S    
C5    C33   A    
C58   H30   S    
C20   H14   S    
O4    Zn1   S    
C27   H4    S    
C32   N4    D    
O3    Zn2   S    
C54   H26   S    
C29   H18   S    
C47   C52   A    
C41   C43   A    
C34   N2    A    
C42   C44   A    
C23   O5    A    
C2    O4    A    
C30   H17   S    
O5    Zn1   S    
C44   C46   A    
C52   H25   S    
C10   C21   A    
N3    O14   S    
C37   O16   S    
C13   C19   A    
C14   C20   A    
C4    C6    A    
C51   C52   A    
C5    C7    A    
C24   O8    A    
C39   C53   S    
C25   H15   S    
C19   H13   S    
C1    O1    A    
C6    C34   A    
C12   C40   A    
C32   H5    S    
C21   H11   S    
C29   C30   S    
C3    C9    A    
C28   H3    S    
C54   C55   A    
C41   H1    S    
C57   H29   S    
C42   H2    S    
C38   O15   S    
C11   C39   A    
C43   C45   A    
C4    C17   A    
C20   C22   A    
C45   N1    S    
C4    C10   A    
C1    C27   S    
C56   H28   S    
C15   C17   A    
C48   H21   S    
N4    O13   S    
C23   O7    A    
C3    C5    A    
C36   O11   S    
O8    Zn1   S    
C22   H12   S    
C6    C8    A    
O7    Zn2   S    
C12   C24   S    
C7    C25   A    
C13   C17   A    
C28   C30   D    
C26   H16   S    
C37   C39   A    
O15   H31   S    
C34   O10   S    
C38   C40   A    
C33   O9    S    
C50   C51   A    
C11   C23   S    
C55   C56   A    
C10   C36   A    
C11   C41   A    
C57   C58   A    
O2    Zn2   S    
C38   C46   A    
O1    Zn1   S    
C44   H8    S    
C48   C49   A    
N3    Zn2   S    
C16   C18   A    
C53   C54   A    
C13   C16   A    
C9    C35   A    
C14   C15   A    
C2    C28   S    
C49   C50   A    
C2    O2    A    
C37   C45   A    
