data_mof_unit_29163.cif
_audit_creation_date              2012-10-26T21:25:55-0400
_audit_creation_method            fapswitch 2.2
_symmetry_space_group_name_H-M    P1
_symmetry_Int_Tables_number       1
_space_group_crystal_system       triclinic
_cell_length_a                    10.825319
_cell_length_b                    10.870231
_cell_length_c                    12.717378
_cell_angle_alpha                 92.985511
_cell_angle_beta                  93.208027
_cell_angle_gamma                 90.28555
_cell_volume                      1492.08125944

loop_
_atom_site_label
_atom_site_type_symbol
_atom_type_description
_atom_site_fract_x
_atom_site_fract_y
_atom_site_fract_z
_atom_type_partial_charge
C1    C     C_R   0.261920 0.496381 0.500375 0.539150
C2    C     C_R   0.808280 0.742706 0.369834 -0.065398
C3    C     C_R   0.129999 0.365328 0.661092 0.049223
C4    C     C_R   0.869996 0.634616 0.338884 0.049214
C5    C     C_R   0.124521 0.398970 0.768842 -0.092601
C6    C     C_R   0.875342 0.600837 0.231151 -0.092530
C7    C     C_R   0.181523 0.326002 0.844544 -0.117115
C8    C     C_R   0.818300 0.673741 0.155423 -0.117095
C9    C     C_R   0.242565 0.218351 0.813175 -0.100089
C10   C     C_R   0.757351 0.781463 0.186749 -0.100066
C11   C     C_R   0.938097 0.447475 0.579806 -0.155145
C12   C     C_R   0.738080 0.503619 0.499625 0.539171
C13   C     C_R   0.061904 0.552518 0.420193 -0.155153
C14   C     C_R   0.871789 0.505785 0.499438 -0.000522
C15   C     C_R   0.128212 0.494209 0.500561 -0.000529
C16   C     C_R   0.503810 0.261890 0.500945 0.536933
C17   C     C_R   0.496194 0.738110 0.499055 0.536958
C18   C     C_R   0.933976 0.560463 0.419242 -0.030956
C19   C     C_R   0.066025 0.439521 0.580755 -0.030934
C20   C     C_2   0.471819 0.460357 0.030574 -0.170546
C21   C     C_2   0.528168 0.539644 0.969425 -0.170558
C22   C     C_1   0.522776 0.526847 0.852983 0.139723
C23   C     C_R   0.494032 0.871706 0.497437 -0.009263
C24   C     C_1   0.477218 0.473153 0.147017 0.139722
C25   C     C_R   0.760111 0.255202 0.787793 -0.099628
C26   C     C_R   0.239868 0.744823 0.212217 -0.099639
C27   C     C_R   0.709257 0.200528 0.692805 -0.051383
C28   C     C_R   0.290736 0.799491 0.307203 -0.051407
C29   C     C_R   0.601400 0.127835 0.692063 0.057495
C30   C     C_R   0.398605 0.872165 0.307940 0.057505
C31   C     C_R   0.548320 0.107646 0.788238 -0.094740
C32   C     C_R   0.451686 0.892340 0.211763 -0.094732
C33   C     C_R   0.598380 0.163865 0.882502 -0.115809
C34   C     C_R   0.505980 0.128294 0.502563 -0.009279
C35   C     C_R   0.401614 0.836125 0.117502 -0.115819
C36   C     C_R   0.703995 0.237946 0.882226 -0.099843
C37   C     C_R   0.295986 0.762064 0.117783 -0.099835
C38   C     C_R   0.540644 0.938163 0.588445 -0.162239
C39   C     C_R   0.459372 0.061837 0.411553 -0.162240
C40   C     C_R   0.451931 0.934214 0.407393 -0.038450
C41   C     C_R   0.548083 0.065786 0.592607 -0.038467
C42   C     C_R   0.247132 0.183808 0.705995 -0.094085
C43   C     C_R   0.752918 0.816142 0.293912 -0.094088
C44   C     C_R   0.191809 0.257307 0.630101 -0.065319
Cu1   Cu    Cu3+1 0.492140 0.492110 0.395880 0.986302
Cu2   Cu    Cu3+1 0.507860 0.507890 0.604120 0.986299
H1    H     H_    0.743162 0.280922 0.955361 0.108345
H2    H     H_    0.420348 0.382490 0.992969 0.121118
H3    H     H_    0.843562 0.310321 0.788976 0.097682
H4    H     H_    0.156406 0.689723 0.211039 0.097699
H5    H     H_    0.753936 0.214042 0.620151 0.093991
H6    H     H_    0.246056 0.785989 0.379859 0.093986
H7    H     H_    0.468332 0.047964 0.790369 0.089402
H8    H     H_    0.531684 0.952008 0.209629 0.089403
H9    H     H_    0.555870 0.149079 0.955899 0.097026
H10   H     H_    0.444125 0.850900 0.044103 0.097020
H11   H     H_    0.575054 0.890151 0.656668 0.137193
H12   H     H_    0.256809 0.719093 0.044649 0.108364
H13   H     H_    0.424961 0.109847 0.343330 0.137191
H14   H     H_    0.285572 0.161419 0.871976 0.097552
H15   H     H_    0.714308 0.838342 0.127926 0.097542
H16   H     H_    0.292512 0.099597 0.681375 0.106948
H17   H     H_    0.707605 0.900404 0.318496 0.106921
H18   H     H_    0.195484 0.229180 0.547354 0.094912
H19   H     H_    0.804703 0.770930 0.452567 0.094922
H20   H     H_    0.076350 0.481535 0.793997 0.100166
H21   H     H_    0.923433 0.518210 0.206030 0.100179
H22   H     H_    0.177580 0.352416 0.927525 0.098817
H23   H     H_    0.822136 0.647219 0.072455 0.098801
H24   H     H_    0.889509 0.403856 0.639873 0.117019
H25   H     H_    0.110489 0.596132 0.360121 0.117034
H26   H     H_    0.579634 0.617514 0.007030 0.121086
N1    N     N_1   0.480320 0.480250 0.239400 -0.183182
N2    N     N_1   0.519680 0.519750 0.760600 -0.183186
O1    O     O_R   0.313000 0.493330 0.412070 -0.509551
O2    O     O_R   0.687000 0.506670 0.587930 -0.509551
O3    O     O_R   0.326280 0.506660 0.587930 -0.484470
O4    O     O_R   0.673720 0.493340 0.412070 -0.484467
O5    O     O_R   0.493370 0.312980 0.412070 -0.511087
O6    O     O_R   0.506630 0.687020 0.587930 -0.511083
O7    O     O_R   0.506650 0.326310 0.587930 -0.482975
O8    O     O_R   0.493350 0.673690 0.412070 -0.482962

loop_
_geom_bond_atom_site_label_1
_geom_bond_atom_site_label_2
_ccdc_geom_bond_type
C33   H9    S    
Cu2   O6    S    
C27   C29   A    
C1    O3    A    
C14   C18   A    
Cu1   O8    S    
C2    H19   S    
Cu2   O2    S    
C11   H24   S    
C43   H17   S    
Cu1   Cu2   S    
C44   H18   S    
C15   C19   A    
C11   C19   A    
C9    C42   A    
C17   C23   S    
C13   C18   A    
C35   C37   A    
C26   H4    S    
C11   C14   A    
C24   N1    T    
C23   C40   A    
C38   H11   S    
C33   C36   A    
C36   H1    S    
Cu1   N1    S    
C17   O8    A    
C16   C34   S    
C7    H22   S    
C20   C24   S    
C12   O4    A    
C31   C33   A    
C3    C19   S    
Cu1   O4    S    
C1    C15   S    
C42   H16   S    
C37   H12   S    
C4    C18   S    
C35   H10   S    
C21   C22   S    
C34   C41   A    
C42   C44   A    
C32   H8    S    
C27   H5    S    
C3    C44   A    
C21   H26   S    
C34   C39   A    
C1    O1    A    
C32   C35   A    
C38   C41   A    
C4    C6    A    
C39   C40   A    
C5    C7    A    
C6    C8    A    
C13   H25   S    
C17   O6    A    
C2    C4    A    
Cu2   O7    S    
C2    C43   A    
C39   H13   S    
C8    H23   S    
C30   C40   S    
Cu1   O5    S    
C31   H7    S    
C20   H2    S    
C6    H21   S    
C12   C14   S    
C13   C15   A    
C12   O2    A    
C10   H15   S    
C22   N2    T    
Cu2   N2    S    
C7    C9    A    
C29   C41   S    
C10   C43   A    
C5    H20   S    
C3    C5    A    
Cu2   O3    S    
C26   C37   A    
C25   C27   A    
C23   C38   A    
C26   C28   A    
Cu1   O1    S    
C9    H14   S    
C16   O5    A    
C28   C30   A    
C29   C31   A    
C30   C32   A    
C28   H6    S    
C16   O7    A    
C25   H3    S    
C25   C36   A    
C20   C21   D    
C8    C10   A    
