data_mof_unit_62263.cif
_audit_creation_date              2012-10-26T18:13:35-0400
_audit_creation_method            fapswitch 2.2
_symmetry_space_group_name_H-M    P1
_symmetry_Int_Tables_number       1
_space_group_crystal_system       triclinic
_cell_length_a                    21.846623
_cell_length_b                    21.876258
_cell_length_c                    22.514685
_cell_angle_alpha                 120.097936
_cell_angle_beta                  120.390675
_cell_angle_gamma                 88.815293
_cell_volume                      7628.82170385

loop_
_atom_site_label
_atom_site_type_symbol
_atom_type_description
_atom_site_fract_x
_atom_site_fract_y
_atom_site_fract_z
_atom_type_partial_charge
C1    C     C_R   0.498856 0.118846 0.499019 0.549139
C2    C     C_3   0.262096 0.783226 0.951687 -0.203329
C3    C     C_3   0.696410 0.164637 0.951977 0.159692
C4    C     C_3   0.308322 0.835055 0.049337 0.129561
C5    C     C_1   0.840072 0.336848 0.175349 -0.058546
C6    C     C_1   0.161375 0.664429 0.824771 -0.057519
C7    C     C_1   0.664422 0.158883 0.824659 0.068571
C8    C     C_1   0.336645 0.840639 0.175439 0.067836
C9    C     C_1   0.625948 0.121879 0.749158 0.040407
C10   C     C_1   0.374455 0.877613 0.250901 0.035918
C11   C     C_3   0.419880 0.197805 0.472279 -0.207869
C12   C     C_R   0.501147 0.881216 0.501126 0.550283
C13   C     C_3   0.581755 0.805911 0.535519 -0.210254
C14   C     C_3   0.414724 0.266952 0.468262 0.368727
C15   C     C_3   0.586197 0.735186 0.536466 0.369945
C16   C     C_R   0.580129 0.078440 0.659429 0.535688
C17   C     C_R   0.419928 0.921421 0.340591 0.534739
C18   C     C_3   0.557846 0.255547 0.587975 0.143920
C19   C     C_3   0.445299 0.744027 0.411674 0.140897
C20   C     C_3   0.509988 0.177124 0.433587 -0.192585
C21   C     C_3   0.483248 0.820978 0.561814 -0.187413
C22   C     C_3   0.497363 0.186854 0.498878 -0.092427
C23   C     C_3   0.711539 0.205282 0.917122 0.045463
C24   C     C_3   0.502474 0.813421 0.501820 -0.096016
C25   C     C_3   0.495350 0.307771 0.498293 0.040203
C26   C     C_3   0.504684 0.692479 0.502390 0.040862
C27   C     C_3   0.553536 0.327619 0.590085 0.145602
C28   C     C_3   0.448996 0.672202 0.410086 0.144970
C29   C     C_3   0.514046 0.249061 0.434504 0.455127
C30   C     C_3   0.482444 0.749666 0.563271 0.447113
C31   C     C_3   0.747133 0.580757 0.562568 -0.202494
C32   C     C_3   0.253737 0.419357 0.439019 -0.199437
C33   C     C_3   0.804802 0.450606 0.527338 -0.246994
C34   C     C_3   0.290125 0.795013 0.083024 0.048127
C35   C     C_3   0.193424 0.547461 0.469651 -0.256483
C36   C     C_3   0.739699 0.454642 0.536922 0.139112
C37   C     C_3   0.258803 0.543786 0.460545 0.126157
C38   C     C_3   0.693702 0.500235 0.504768 -0.013997
C39   C     C_3   0.306139 0.500029 0.495061 -0.015347
C40   C     C_3   0.743572 0.473719 0.415218 -0.250013
C41   C     C_3   0.256454 0.528526 0.585109 -0.247018
C42   C     C_3   0.673206 0.466035 0.414616 -0.277698
C43   C     C_3   0.326698 0.535996 0.585503 -0.274503
C44   C     C_R   0.881393 0.501250 0.501292 0.550350
C45   C     C_3   0.745592 0.331592 0.048318 -0.222784
C46   C     C_R   0.118494 0.498670 0.498527 0.549524
C47   C     C_R   0.920857 0.420089 0.340560 0.539048
C48   C     C_R   0.079380 0.579991 0.659467 0.540705
C49   C     C_R   0.378230 0.501334 0.498761 0.606012
C50   C     C_R   0.621738 0.498841 0.501213 0.618021
C51   C     C_R   0.495899 0.378891 0.499537 0.657338
C52   C     C_R   0.504160 0.621142 0.500598 0.654133
C53   C     C_3   0.814058 0.502782 0.502984 0.024643
C54   C     C_3   0.185747 0.497196 0.496741 0.029085
C55   C     C_3   0.820869 0.582357 0.568021 0.153286
C56   C     C_3   0.253039 0.667981 0.951141 -0.230628
C57   C     C_3   0.180025 0.417335 0.433522 0.153082
C58   C     C_3   0.690564 0.279084 0.951308 0.051999
C59   C     C_3   0.308581 0.719729 0.048022 0.072927
C60   C     C_3   0.796618 0.226377 0.953323 0.173663
C61   C     C_3   0.204873 0.777165 0.046622 0.171519
C62   C     C_3   0.844339 0.269813 0.050496 -0.178482
C63   C     C_3   0.157456 0.734104 0.949568 -0.179713
C64   C     C_1   0.877049 0.374835 0.250812 -0.011000
C65   C     C_1   0.123873 0.625724 0.749273 -0.010165
C66   C     C_3   0.316725 0.280060 0.362088 0.057139
C67   C     C_3   0.794149 0.290001 0.083082 -0.063004
C68   C     C_3   0.293157 0.261083 0.277096 -0.352373
C69   C     C_3   0.683098 0.719871 0.641405 0.057302
C70   C     C_3   0.705536 0.735815 0.724940 -0.372312
C71   C     C_3   0.454446 0.170690 0.284564 0.032275
C72   C     C_3   0.441348 0.186897 0.221453 -0.321565
C73   C     C_3   0.569075 0.834141 0.717776 0.007343
C74   C     C_3   0.518208 0.872310 0.741823 -0.362709
C75   C     C_3   0.664682 0.242171 0.680026 0.029670
C76   C     C_3   0.733919 0.219391 0.691136 -0.328665
C77   C     C_3   0.340020 0.754129 0.314269 0.034000
C78   C     C_3   0.207513 0.711383 0.917077 -0.056579
C79   C     C_3   0.269280 0.775409 0.298207 -0.327234
C80   C     C_3   0.661706 0.420014 0.720952 0.057484
C81   C     C_3   0.745487 0.431026 0.767562 -0.286714
C82   C     C_3   0.343277 0.577146 0.278324 0.052535
C83   C     C_3   0.259068 0.562936 0.228244 -0.282239
C84   C     C_3   0.882057 0.703981 0.626995 0.013505
C85   C     C_3   0.894934 0.757286 0.606960 -0.322613
C86   C     C_3   0.119643 0.296674 0.378037 0.014144
C87   C     C_3   0.108536 0.244812 0.400483 -0.324153
C88   C     C_3   0.833790 0.156396 0.864859 -0.003070
C89   C     C_3   0.742287 0.216999 0.049366 -0.201944
C90   C     C_3   0.848229 0.082782 0.825334 -0.320819
C91   C     C_3   0.166586 0.849813 0.132939 -0.003047
C92   C     C_3   0.154042 0.924645 0.172112 -0.320171
Cu1   Cu    Cu3+1 0.437520 0.000000 0.500030 0.961389
Cu2   Cu    Cu3+1 0.562480 0.000000 0.499970 0.958946
Cu3   Cu    Cu3+1 0.000200 0.562470 0.499990 0.962481
Cu4   Cu    Cu3+1 0.999800 0.437530 0.500010 0.959938
Cu5   Cu    Cu3+1 0.458730 0.458690 0.417370 1.056718
Cu6   Cu    Cu3+1 0.541270 0.541310 0.582630 1.018933
H1    H     H_    0.719291 0.612076 0.536945 0.221796
H2    H     H_    0.365208 0.733190 0.062204 0.129366
H3    H     H_    0.932166 0.812902 0.665950 0.096700
H4    H     H_    0.921640 0.736244 0.572742 0.160793
H5    H     H_    0.143839 0.272850 0.341164 0.123395
H6    H     H_    0.063848 0.300068 0.339035 0.130673
H7    H     H_    0.083355 0.267021 0.436300 0.160191
H8    H     H_    0.070628 0.188925 0.342418 0.094117
H9    H     H_    0.162883 0.239441 0.439074 0.206358
H10   H     H_    0.736056 0.556594 0.715889 0.328776
H11   H     H_    0.142856 0.570347 0.326774 0.339737
H12   H     H_    0.616916 0.391184 0.945550 0.344863
H13   H     H_    0.713303 0.352239 0.076004 0.120232
H14   H     H_    0.275393 0.553015 0.996787 0.347763
H15   H     H_    0.884590 0.202512 0.899508 0.125610
H16   H     H_    0.786029 0.157820 0.813728 0.124485
H17   H     H_    0.797909 0.035909 0.789833 0.196217
H18   H     H_    0.861272 0.077854 0.781712 0.089879
H19   H     H_    0.896204 0.079659 0.874716 0.173726
H20   H     H_    0.211835 0.846906 0.184380 0.124407
H21   H     H_    0.114002 0.804954 0.096309 0.123482
H22   H     H_    0.108687 0.929304 0.122384 0.172684
H23   H     H_    0.137981 0.930152 0.213724 0.088700
H24   H     H_    0.284635 0.644968 0.923000 0.130324
H25   H     H_    0.206142 0.970315 0.209700 0.199437
H26   H     H_    0.776286 0.189463 0.078807 0.191178
H27   H     H_    0.230162 0.812029 0.922949 0.191788
H28   H     H_    0.406674 0.200009 0.514729 0.203649
H29   H     H_    0.600973 0.807956 0.499209 0.208885
H30   H     H_    0.376395 0.146541 0.410044 0.168098
H31   H     H_    0.621375 0.856885 0.599956 0.156378
H32   H     H_    0.746083 0.512542 0.397733 0.194417
H33   H     H_    0.282488 0.389410 0.466183 0.220813
H34   H     H_    0.254856 0.491148 0.604587 0.191856
H35   H     H_    0.544292 0.260238 0.631594 0.116356
H36   H     H_    0.462366 0.740477 0.371068 0.125080
H37   H     H_    0.530193 0.358672 0.625833 0.154691
H38   H     H_    0.473841 0.641412 0.376090 0.156370
H39   H     H_    0.560671 0.160236 0.443006 0.194942
H40   H     H_    0.428774 0.831602 0.543337 0.209391
H41   H     H_    0.463143 0.128473 0.372049 0.095137
H42   H     H_    0.521909 0.874210 0.622358 0.081357
H43   H     H_    0.760107 0.609506 0.626431 0.119026
H44   H     H_    0.876488 0.236093 0.070854 0.188421
H45   H     H_    0.240706 0.389511 0.375060 0.130448
H46   H     H_    0.637327 0.492964 0.385968 0.206349
H47   H     H_    0.363116 0.510143 0.615449 0.208859
H48   H     H_    0.793980 0.392175 0.478039 0.117126
H49   H     H_    0.203027 0.606191 0.517235 0.137298
H50   H     H_    0.858278 0.464737 0.585637 0.192493
H51   H     H_    0.139651 0.531177 0.410516 0.160240
H52   H     H_    0.740236 0.418695 0.367312 0.110814
H53   H     H_    0.259105 0.583971 0.631667 0.113341
H54   H     H_    0.704409 0.396549 0.493480 0.185049
H55   H     H_    0.127297 0.768894 0.929532 0.185824
H56   H     H_    0.293003 0.602164 0.502618 0.196426
H57   H     H_    0.640509 0.406064 0.373408 0.140970
H58   H     H_    0.358819 0.595974 0.625457 0.119234
H59   H     H_    0.867356 0.597308 0.631225 0.131578
H60   H     H_    0.133268 0.400748 0.369638 0.128281
H61   H     H_    0.782892 0.381198 0.067493 0.198460
H62   H     H_    0.213612 0.619936 0.931927 0.164852
H63   H     H_    0.808244 0.265223 0.939557 0.145897
H64   H     H_    0.190981 0.739070 0.060133 0.145161
H65   H     H_    0.886058 0.321325 0.078883 0.109099
H66   H     H_    0.636171 0.153406 0.927513 0.102996
H67   H     H_    0.114044 0.683756 0.920896 0.107831
H68   H     H_    0.683497 0.986985 0.929207 0.355343
H69   H     H_    0.402684 0.982595 0.117779 0.327577
H70   H     H_    0.346934 0.339995 0.408730 0.166084
H71   H     H_    0.264925 0.266420 0.356864 0.162510
H72   H     H_    0.264393 0.200429 0.228855 0.171943
H73   H     H_    0.254378 0.291681 0.258964 0.108611
H74   H     H_    0.342605 0.277402 0.279719 0.190276
H75   H     H_    0.735399 0.735795 0.648532 0.167583
H76   H     H_    0.653911 0.659939 0.593263 0.171625
H77   H     H_    0.368451 0.843828 0.073640 0.074056
H78   H     H_    0.655541 0.719076 0.721307 0.183689
H79   H     H_    0.743425 0.703938 0.741361 0.090781
H80   H     H_    0.735030 0.796088 0.774961 0.156412
H81   H     H_    0.409891 0.356813 0.657115 0.388179
H82   H     H_    0.596314 0.652556 0.351688 0.389976
H83   H     H_    0.404879 0.124881 0.253041 0.186186
H84   H     H_    0.503961 0.150796 0.301681 0.159654
H85   H     H_    0.487255 0.235491 0.251390 0.197968
H86   H     H_    0.438909 0.137762 0.168478 0.130107
H87   H     H_    0.387643 0.199008 0.196539 0.140807
H88   H     H_    0.703227 0.230283 0.068665 0.101286
H89   H     H_    0.605511 0.868557 0.717694 0.185448
H90   H     H_    0.609494 0.829138 0.769510 0.145595
H91   H     H_    0.496637 0.843523 0.759535 0.170132
H92   H     H_    0.550484 0.930701 0.796416 0.171371
H93   H     H_    0.470439 0.873016 0.690377 0.186598
H94   H     H_    0.663741 0.259818 0.405479 0.349770
H95   H     H_    0.407068 0.710963 0.631789 0.341254
H96   H     H_    0.627084 0.200171 0.670787 0.156832
H97   H     H_    0.681759 0.296632 0.738038 0.178491
H98   H     H_    0.771411 0.258485 0.696822 0.171812
H99   H     H_    0.300924 0.768065 0.932254 0.100361
H100  H     H_    0.764621 0.220334 0.748798 0.090442
H101  H     H_    0.717652 0.162381 0.636452 0.174306
H102  H     H_    0.325201 0.699295 0.257902 0.190955
H103  H     H_    0.378644 0.796368 0.324908 0.154715
H104  H     H_    0.283204 0.832084 0.351982 0.173597
H105  H     H_    0.241653 0.774627 0.240673 0.104924
H106  H     H_    0.230017 0.735388 0.289573 0.169204
H107  H     H_    0.639750 0.396404 0.742832 0.117178
H108  H     H_    0.652486 0.475022 0.739405 0.145734
H109  H     H_    0.756819 0.379946 0.732889 0.217617
H110  H     H_    0.634052 0.263578 0.936612 0.101548
H111  H     H_    0.775758 0.477945 0.776296 0.199121
H112  H     H_    0.768027 0.444266 0.830745 0.109302
H113  H     H_    0.354598 0.523341 0.263360 0.150278
H114  H     H_    0.365708 0.600154 0.256350 0.115613
H115  H     H_    0.245542 0.614561 0.257016 0.211561
H116  H     H_    0.237377 0.543378 0.163119 0.101602
H117  H     H_    0.230083 0.519312 0.224912 0.220139
H118  H     H_    0.937414 0.700305 0.666609 0.129603
H119  H     H_    0.856526 0.726742 0.662513 0.124255
H120  H     H_    0.841053 0.762821 0.567633 0.206814
O1    O     O_R   0.447230 0.091150 0.500010 -0.521604
O2    O     O_R   0.447240 0.908850 0.500040 -0.489842
O3    O     O_R   0.507510 0.060280 0.620590 -0.490928
O4    O     O_R   0.492490 0.939720 0.379410 -0.492551
O5    O     O_R   0.613050 0.060280 0.620540 -0.532192
O6    O     O_R   0.386950 0.939720 0.379460 -0.529643
O7    O     O_R   0.909030 0.552780 0.500030 -0.459658
O8    O     O_R   0.090970 0.447220 0.499970 -0.461418
O9    O     O_R   0.909010 0.447270 0.500050 -0.531442
O10   O     O_R   0.090990 0.552730 0.499950 -0.531831
O11   O     O_R   0.939920 0.492480 0.379430 -0.501950
O12   O     O_R   0.552770 0.908850 0.499990 -0.519393
O13   O     O_R   0.060080 0.507520 0.620570 -0.500578
O14   O     O_R   0.939890 0.386970 0.379440 -0.513156
O15   O     O_R   0.060110 0.613030 0.620560 -0.511035
O16   O     O_R   0.373940 0.465070 0.430170 -0.480577
O17   O     O_R   0.626060 0.534930 0.569830 -0.498145
O18   O     O_2   0.676329 0.027042 0.826717 -0.310407
O19   O     O_2   0.792045 0.081873 0.966666 -0.244940
O20   O     O_3   0.668470 0.032509 0.940394 -0.557242
O21   O     O_2   0.218768 0.922887 0.032514 -0.207968
O22   O     O_2   0.325777 0.971588 0.175079 -0.305712
O23   O     O_R   0.443640 0.534850 0.569740 -0.508109
O24   O     O_3   0.350094 0.971989 0.073990 -0.526043
O25   O     O_3   0.360173 0.235965 0.381224 -0.536339
O26   O     O_3   0.638610 0.763697 0.623184 -0.557809
O27   O     O_2   0.406722 0.403176 0.566323 -0.380994
O28   O     O_2   0.302599 0.293577 0.492048 -0.309062
O29   O     O_3   0.426736 0.322551 0.623124 -0.574825
O30   O     O_2   0.701248 0.712179 0.516854 -0.310497
O31   O     O_2   0.596228 0.601104 0.436967 -0.386052
O32   O     O_3   0.579198 0.686114 0.385753 -0.574467
O33   O     O_3   0.460834 0.234838 0.353896 -0.514500
O34   O     O_R   0.556360 0.465150 0.430260 -0.501388
O35   O     O_3   0.530388 0.760947 0.643590 -0.528002
O36   O     O_2   0.623115 0.369886 0.513805 -0.217898
O37   O     O_2   0.665444 0.269689 0.523465 -0.227353
O38   O     O_3   0.611171 0.258249 0.384697 -0.591803
O39   O     O_2   0.329662 0.723334 0.467231 -0.176170
O40   O     O_2   0.375182 0.626446 0.481816 -0.250819
O41   O     O_3   0.382294 0.738649 0.607362 -0.554204
O42   O     O_3   0.629671 0.247254 0.610714 -0.486268
O43   O     O_3   0.372248 0.750425 0.384302 -0.497496
O44   O     O_3   0.626271 0.374269 0.632651 -0.409837
O45   O     O_R   0.465150 0.373960 0.430230 -0.492868
O46   O     O_3   0.375870 0.625185 0.365839 -0.417520
O47   O     O_3   0.834510 0.633507 0.551537 -0.523153
O48   O     O_3   0.167836 0.367592 0.452302 -0.522822
O49   O     O_2   0.801622 0.425014 0.653752 -0.226616
O50   O     O_2   0.843750 0.554278 0.705436 -0.370862
O51   O     O_3   0.714304 0.503744 0.667792 -0.446518
O52   O     O_2   0.278827 0.494454 0.333440 -0.203581
O53   O     O_2   0.156190 0.440925 0.291684 -0.361081
O54   O     O_3   0.193650 0.577233 0.339354 -0.466390
O55   O     O_2   0.750799 0.348963 0.911085 -0.308767
O56   O     O_R   0.534850 0.626040 0.569770 -0.497621
O57   O     O_2   0.616537 0.282652 0.813281 -0.323069
O58   O     O_3   0.664139 0.407679 0.953893 -0.481999
O59   O     O_2   0.383940 0.714514 0.184040 -0.290512
O60   O     O_2   0.248255 0.657267 0.094246 -0.364299
O61   O     O_3   0.326696 0.588198 0.042203 -0.485681
O62   O     O_3   0.817403 0.161824 0.920137 -0.489761
O63   O     O_3   0.186670 0.843592 0.080059 -0.490951
O64   O     O_R   0.534860 0.443740 0.569790 -0.451050
O65   O     O_R   0.465140 0.556260 0.430210 -0.457150
O66   O     O_R   0.552760 0.091150 0.499960 -0.487951
S1    S     S_3+6 0.710360 0.074364 0.919094 -0.006196
S2    S     S_3+6 0.316007 0.670558 0.095139 -0.053316
S3    S     S_3+6 0.298761 0.927294 0.084696 0.012967
S4    S     S_3+6 0.385366 0.323843 0.537249 -0.093777
S5    S     S_3+6 0.618162 0.681384 0.469236 -0.094059
S6    S     S_3+6 0.606574 0.287681 0.466777 0.043604
S7    S     S_3+6 0.389321 0.708335 0.526769 0.064337
S8    S     S_3+6 0.776766 0.485807 0.643865 0.011902
S9    S     S_3+6 0.221933 0.510464 0.353022 0.014731
S10   S     S_3+6 0.681074 0.328758 0.904068 -0.050090

loop_
_geom_bond_atom_site_label_1
_geom_bond_atom_site_label_2
_ccdc_geom_bond_type
O40   S7    D    
C23   C58   S    
C66   C68   S    
C57   H60   S    
Cu1   Cu2   S    
O22   S3    D    
C2    H99   S    
C89   H88   S    
C71   H83   S    
C66   H71   S    
C80   H108  S    
Cu3   Cu4   S    
C55   O47   S    
C5    C67   S    
C86   H6    S    
C83   H116  S    
O38   S6    S    
Cu5   Cu6   S    
C1    O66   A    
C50   O34   A    
C19   H36   S    
C41   C54   S    
Cu2   O12   S    
O32   S5    S    
C77   O43   S    
O30   S5    D    
Cu1   O2    S    
C43   H47   S    
C29   O33   S    
C20   H41   S    
H10   O51   S    
C35   C37   S    
C9    C16   S    
C38   C42   S    
H11   O54   S    
Cu5   O65   S    
C58   S10   S    
C68   H73   S    
Cu4   O13   S    
C66   O25   S    
C10   C17   S    
H82   O32   S    
C67   C89   S    
C33   C36   S    
C56   C78   S    
Cu4   O8    S    
O27   S4    D    
C18   H35   S    
C60   C62   S    
O41   S7    S    
C73   C74   S    
C32   C39   S    
C88   H15   S    
C61   C63   S    
C56   C59   S    
Cu3   O10   S    
O53   S9    D    
C32   H45   S    
C40   H32   S    
C17   O4    A    
C76   H98   S    
C73   H89   S    
C74   H92   S    
C48   O13   A    
O28   S4    D    
C44   C53   S    
C6    C65   T    
C30   S7    S    
Cu6   O17   S    
C14   S4    S    
H94   O38   S    
C4    H77   S    
C45   H61   S    
C45   C67   S    
O37   S6    D    
C51   O64   A    
C46   O10   A    
C31   H1    S    
C48   C65   S    
O50   S8    D    
Cu6   O56   S    
C44   O7    A    
C18   O42   S    
C48   O15   A    
O54   S9    S    
C81   H109  S    
H69   O24   S    
C40   C42   S    
C81   H112  S    
O19   S1    D    
C1    C22   S    
Cu6   O23   S    
C18   C22   S    
C35   C54   S    
C33   C53   S    
C59   H2    S    
C41   C43   S    
C71   H84   S    
C16   O3    A    
C50   O17   A    
C69   H75   S    
C32   C57   S    
C62   H44   S    
C86   H5    S    
C71   O33   S    
C83   H115  S    
Cu5   O34   S    
C82   H114  S    
C21   H40   S    
C77   C79   S    
C25   C29   S    
C23   C60   S    
O24   S3    S    
C59   S2    S    
C4    C34   S    
C45   C58   S    
C91   H20   S    
C4    S3    S    
C38   C50   S    
C61   H64   S    
O61   S2    S    
C11   H28   S    
C80   O44   S    
C84   C85   S    
C63   H55   S    
O51   S8    S    
C3    S1    S    
C90   H19   S    
C33   H48   S    
C92   H25   S    
C68   H72   S    
C47   C64   S    
C52   O56   A    
C86   C87   S    
C70   H80   S    
C15   C26   S    
C39   C43   S    
C47   O14   A    
C3    C23   S    
C28   O46   S    
C27   O44   S    
C51   O45   A    
C15   S5    S    
C34   C61   S    
C74   H93   S    
C13   C24   S    
C61   O63   S    
C20   H39   S    
C31   H43   S    
C2    C4    S    
C75   C76   S    
Cu4   O9    S    
C11   H30   S    
C49   O16   A    
C2    C78   S    
C33   H50   S    
C26   C52   S    
C19   O43   S    
C74   H91   S    
O58   S10   S    
H81   O29   S    
C62   H65   S    
C87   H7    S    
C58   H110  S    
C79   H104  S    
O31   S5    D    
C46   C54   S    
C45   H13   S    
C60   H63   S    
C46   O8    A    
C30   O35   S    
C40   H52   S    
C1    O1    A    
C35   H49   S    
C90   H17   S    
C87   H9    S    
C19   C28   S    
C88   O62   S    
C72   H86   S    
O20   S1    S    
C3    H66   S    
C73   O35   S    
C2    H27   S    
C62   C67   S    
C80   H107  S    
C39   C49   S    
C88   C90   S    
C57   O48   S    
C26   C30   S    
C90   H18   S    
C13   C15   S    
C42   H46   S    
Cu2   O5    S    
H12   O58   S    
C25   C27   S    
C69   H76   S    
C81   H111  S    
C53   C55   S    
C43   H58   S    
C85   H120  S    
C91   C92   S    
C73   H90   S    
C85   H3    S    
O39   S7    D    
Cu2   O66   S    
C82   H113  S    
O59   S2    D    
C6    C78   S    
C36   S8    S    
O21   S3    D    
C15   O26   S    
O49   S8    D    
C37   S9    S    
O60   S2    D    
C28   H38   S    
C26   C28   S    
C37   H56   S    
C8    C10   T    
C36   H54   S    
C18   C27   S    
Cu3   O11   S    
O57   S10   D    
C20   C22   S    
C80   C81   S    
C76   H101  S    
C77   H103  S    
C41   H34   S    
C83   H117  S    
Cu6   O64   S    
C69   O26   S    
C12   O12   A    
C47   O11   A    
C89   H26   S    
H68   O20   S    
Cu3   O15   S    
C21   C30   S    
C12   C24   S    
C11   C22   S    
C79   H105  S    
C25   C51   S    
C70   H79   S    
C66   H70   S    
C3    C89   S    
Cu1   O1    S    
C31   C55   S    
C31   C38   S    
C36   C38   S    
C19   C24   S    
C92   H22   S    
H14   O61   S    
C27   H37   S    
C71   C72   S    
C37   C39   S    
C17   O6    A    
C76   H100  S    
C92   H23   S    
C54   C57   S    
C52   O65   A    
C82   O46   S    
C49   O23   A    
C68   H74   S    
O52   S9    D    
C34   C59   S    
C87   H8    S    
C70   H78   S    
C7    C23   S    
Cu5   O16   S    
C29   S6    S    
C11   C14   S    
C41   H53   S    
C84   O47   S    
C91   O63   S    
Cu1   O6    S    
C91   H21   S    
O55   S10   D    
Cu4   O14   S    
C14   C25   S    
C88   H16   S    
C69   C70   S    
C77   H102  S    
C72   H87   S    
C42   H57   S    
C84   H119  S    
Cu5   O45   S    
C63   H67   S    
C40   C53   S    
C14   O25   S    
C13   H29   S    
C75   H96   S    
C7    C9    T    
C55   H59   S    
H95   O41   S    
C75   O42   S    
C5    C64   T    
C20   C29   S    
C56   H62   S    
C79   H106  S    
C60   O62   S    
C21   C24   S    
C8    C34   S    
Cu2   O4    S    
C86   O48   S    
O29   S4    S    
C16   O5    A    
Cu1   O3    S    
O18   S1    D    
C35   H51   S    
C21   H42   S    
C82   C83   S    
O36   S6    D    
C44   O9    A    
Cu3   O7    S    
C12   O2    A    
C32   H33   S    
C13   H31   S    
C85   H4    S    
C84   H118  S    
C56   H24   S    
C72   H85   S    
C63   C78   S    
C75   H97   S    
