data_mof_unit_29593.cif
_audit_creation_date              2012-12-10T16:51:27-0500
_audit_creation_method            fapswitch 2.2
_symmetry_space_group_name_H-M    P1
_symmetry_Int_Tables_number       1
_space_group_crystal_system       triclinic
_cell_length_a                    7.861327
_cell_length_b                    8.564179
_cell_length_c                    12.07091
_cell_angle_alpha                 92.738289
_cell_angle_beta                  101.498722
_cell_angle_gamma                 93.98002
_cell_volume                      792.872587988

loop_
_atom_site_label
_atom_site_type_symbol
_atom_type_description
_atom_site_fract_x
_atom_site_fract_y
_atom_site_fract_z
_atom_type_partial_charge
C1    C     C_R   0.044437 0.794540 0.497482 0.968928
C2    C     C_R   0.160109 0.506719 0.832938 -0.108004
C3    C     C_2   0.067700 0.958257 0.496316 -0.369837
C4    C     C_R   0.106500 0.505058 0.710483 0.863102
C5    C     C_2   0.932884 0.041851 0.504891 -0.366988
C6    C     C_R   0.955750 0.205489 0.502913 0.922194
C7    C     C_R   0.892415 0.488597 0.289463 0.867747
C8    C     C_R   0.798215 0.271027 0.006971 -0.195386
C9    C     C_R   0.830216 0.454366 0.169221 -0.072446
C10   C     C_R   0.076376 0.600022 0.900415 -0.247492
C11   C     C_R   0.142024 0.623060 0.015801 -0.162102
C12   C     C_R   0.392046 0.478645 0.994006 -0.006415
C13   C     C_R   0.299001 0.564160 0.063907 0.347108
C14   C     C_R   0.307228 0.431312 0.882141 0.042882
C15   C     C_R   0.564701 0.437406 0.029216 0.105996
C16   C     C_R   0.631520 0.319921 0.966566 0.161170
C17   C     C_R   0.530978 0.253612 0.865001 -0.217828
C18   C     C_R   0.371986 0.310899 0.821875 -0.154326
C19   C     C_R   0.676628 0.516083 0.121494 -0.208528
C20   C     C_R   0.895060 0.334262 0.110853 -0.170938
Cl1   Cl    Cl    0.522514 0.691631 0.618945 -0.500323
Cl2   Cl    Cl    0.351266 0.578534 0.213188 -0.661105
H1    H     H_    0.015517 0.285397 0.147505 0.176172
H2    H     H_    0.194887 0.009386 0.488215 0.194725
H3    H     H_    0.805762 0.990722 0.513131 0.208319
H4    H     H_    0.469290 0.371722 0.418164 0.176762
H5    H     H_    0.577913 0.161700 0.816898 0.161045
H6    H     H_    0.849527 0.179533 0.961126 0.145788
H7    H     H_    0.643648 0.622311 0.161069 0.196642
H8    H     H_    0.960594 0.655994 0.863801 0.192448
H9    H     H_    0.071005 0.688543 0.068008 0.175571
H10   H     H_    0.298806 0.258223 0.741715 0.159728
N1    N     N_2   0.434800 0.456690 0.470850 -0.068083
N2    N     N_2   0.565200 0.543310 0.529150 0.116148
O1    O     O_R   0.893060 0.738880 0.507150 -0.591791
O2    O     O_R   0.172250 0.711130 0.488470 -0.546931
O3    O     O_R   0.944700 0.520730 0.667600 -0.604149
O4    O     O_R   0.223890 0.492980 0.648920 -0.571939
O5    O     O_R   0.827750 0.288870 0.511530 -0.638159
O6    O     O_R   0.106940 0.261120 0.492850 -0.631719
O7    O     O_R   0.776110 0.507020 0.351080 -0.600360
O8    O     O_R   0.055300 0.479270 0.332400 -0.572901
Zn1   Zn    Zn3+2 0.813580 0.518530 0.512470 1.036097
Zn2   Zn    Zn3+2 0.186420 0.481470 0.487530 1.049176

loop_
_geom_bond_atom_site_label_1
_geom_bond_atom_site_label_2
_ccdc_geom_bond_type
O3    Zn1   S    
C2    C4    S    
C20   H1    S    
O4    Zn2   S    
O1    Zn1   S    
C10   H8    S    
C9    C20   A    
C12   C15   A    
O6    Zn2   S    
N1    N2    D    
C11   H9    S    
C8    C16   A    
C12   C13   A    
C15   C19   A    
O7    Zn1   S    
C3    H2    S    
C8    C20   A    
O8    Zn2   S    
C5    H3    S    
C12   C14   A    
C13   Cl2   S    
C17   C18   A    
C7    O7    A    
C5    C6    S    
C2    C14   A    
C6    O6    A    
O2    Zn2   S    
C18   H10   S    
C10   C11   A    
C15   C16   A    
C17   H5    S    
C11   C13   A    
C4    O3    A    
C1    O1    A    
C8    H6    S    
C7    O8    A    
C7    C9    S    
C14   C18   A    
C6    O5    A    
O5    Zn1   S    
Cl1   N2    S    
H4    N1    S    
C3    C5    D    
N1    Zn2   S    
C9    C19   A    
C2    C10   A    
N2    Zn1   S    
C1    O2    A    
C4    O4    A    
C16   C17   A    
C1    C3    S    
C19   H7    S    
