data_mof_unit_62342.cif
_audit_creation_date              2012-12-10T18:14:30-0500
_audit_creation_method            fapswitch 2.2
_symmetry_space_group_name_H-M    P1
_symmetry_Int_Tables_number       1
_space_group_crystal_system       triclinic
_cell_length_a                    42.274717
_cell_length_b                    29.205169
_cell_length_c                    30.588778
_cell_angle_alpha                 89.999217
_cell_angle_beta                  136.300147
_cell_angle_gamma                 90.000038
_cell_volume                      26091.8894912

loop_
_atom_site_label
_atom_site_type_symbol
_atom_type_description
_atom_site_fract_x
_atom_site_fract_y
_atom_site_fract_z
_atom_type_partial_charge
C1    C     C_R   0.586687 0.500000 0.587093 0.894246
C2    C     C_R   0.086687 1.000000 0.587093 0.894548
C3    C     C_3   0.447956 0.509368 0.168160 -0.505968
C4    C     C_3   0.947394 0.997103 0.167655 -0.459506
C5    C     C_3   0.444122 0.510074 0.214914 0.652249
C6    C     C_3   0.943634 0.996497 0.214470 0.693196
C7    C     C_1   0.499192 0.500135 0.157887 0.162904
C8    C     C_1   0.999269 0.000080 0.157964 0.156518
C9    C     C_1   0.495456 0.499976 0.330519 0.136008
C10   C     C_1   0.995768 0.000270 0.330828 0.139893
C11   C     C_1   0.497735 0.499979 0.370872 -0.143429
C12   C     C_1   0.997894 0.000075 0.371031 -0.141138
C13   C     C_1   0.637268 0.500001 0.637588 -0.218319
C14   C     C_1   0.137268 0.999999 0.637589 -0.218854
C15   C     C_1   0.679406 0.500001 0.679664 0.007307
C16   C     C_1   0.179406 0.999998 0.679665 0.007006
C17   C     C_1   0.729140 0.500002 0.729338 0.012122
C18   C     C_1   0.229140 0.999998 0.729339 0.011896
C19   C     C_1   0.771277 0.500002 0.771430 0.013012
C20   C     C_1   0.271277 0.999998 0.771432 0.012845
C21   C     C_1   0.821012 0.500001 0.821119 0.011413
C22   C     C_1   0.321012 0.999999 0.821120 0.011350
C23   C     C_R   0.500572 0.499997 0.418255 0.935071
C24   C     C_R   0.000543 0.000008 0.418230 0.934882
C25   C     C_1   0.863150 0.500001 0.863220 -0.205768
C26   C     C_1   0.363150 0.999999 0.863221 -0.205707
C27   C     C_1   0.499993 0.499999 0.636051 -0.213204
C28   C     C_1   0.999992 0.999999 0.636051 -0.213243
C29   C     C_1   0.500013 0.499999 0.677245 0.022207
C30   C     C_1   0.000013 0.999999 0.677245 0.022487
C31   C     C_1   0.500037 0.499999 0.726272 0.010414
C32   C     C_1   0.000037 0.999999 0.726272 0.010796
C33   C     C_1   0.500056 0.499999 0.767465 0.010311
C34   C     C_1   0.000056 0.999999 0.767465 0.010719
C35   C     C_1   0.500073 0.499999 0.816485 0.021528
C36   C     C_1   0.000073 1.000000 0.816485 0.021832
C37   C     C_1   0.500075 0.500000 0.857661 -0.211530
C38   C     C_1   0.000075 1.000000 0.857661 -0.210666
C39   C     C_1   0.362679 0.500001 0.362908 -0.188541
C40   C     C_1   0.862679 0.000001 0.362907 -0.190741
C41   C     C_1   0.320544 0.500001 0.320684 0.032071
C42   C     C_1   0.820544 0.000001 0.320683 0.029293
C43   C     C_1   0.270813 0.500001 0.270877 0.029172
C44   C     C_1   0.770813 0.000000 0.270875 0.026693
C45   C     C_R   0.413256 0.500000 0.413610 0.929260
C46   C     C_R   0.913256 0.000000 0.413610 0.929652
C47   C     C_1   0.228678 0.500001 0.228699 0.024400
C48   C     C_1   0.728678 0.000000 0.228697 0.022689
C49   C     C_1   0.178946 0.500000 0.178938 0.018666
C50   C     C_1   0.678946 0.000000 0.178937 0.017704
C51   C     C_1   0.136809 0.500000 0.136796 -0.201194
C52   C     C_1   0.636809 0.000000 0.136796 -0.201601
C53   C     C_R   0.500031 0.586640 0.994603 0.918888
C54   C     C_R   0.500031 0.413361 0.994625 0.912254
C55   C     C_R   0.000031 0.086639 0.994610 0.920189
C56   C     C_R   0.000031 0.913360 0.994601 0.915679
C57   C     C_R   0.499987 0.500076 0.075934 0.959003
C58   C     C_R   0.999988 0.999886 0.075935 0.964171
C59   C     C_R   0.500046 0.500000 0.907517 0.884137
C60   C     C_R   0.000046 0.000000 0.907517 0.882531
C61   C     C_R   0.000015 0.413722 0.999135 0.895574
C62   C     C_R   0.000015 0.586278 0.999134 0.895924
C63   C     C_R   0.500015 0.913722 0.999135 0.895824
C64   C     C_R   0.500015 0.086278 0.999135 0.895350
C65   C     C_R   0.913732 0.500000 0.913761 0.895404
C66   C     C_R   0.413733 1.000000 0.913761 0.895261
C67   C     C_R   0.086229 0.500000 0.086240 0.896485
C68   C     C_R   0.586229 1.000000 0.086240 0.896324
C69   C     C_1   0.500042 0.637225 0.995466 -0.189874
C70   C     C_1   0.500042 0.362776 0.995508 -0.204610
C71   C     C_1   0.000042 0.137225 0.995479 -0.188008
C72   C     C_1   0.000042 0.862774 0.995465 -0.190778
C73   C     C_R   0.499972 0.500000 0.586145 0.886900
C74   C     C_R   0.999972 1.000000 0.586145 0.887575
C75   C     C_1   0.500047 0.679364 0.996222 0.028498
C76   C     C_1   0.500045 0.320638 0.996273 0.016476
C77   C     C_1   0.000045 0.179363 0.996237 0.028379
C78   C     C_1   0.000046 0.820636 0.996221 0.026105
C79   C     C_1   0.500046 0.729102 0.997103 0.026565
C80   C     C_1   0.500043 0.270900 0.997148 0.020298
C81   C     C_1   0.000044 0.229101 0.997116 0.025459
C82   C     C_1   0.000045 0.770898 0.997101 0.023825
C83   C     C_1   0.000040 0.271240 0.997809 0.021421
C84   C     C_1   0.000041 0.728759 0.997797 0.020531
C85   C     C_1   0.500042 0.771241 0.997799 0.022723
C86   C     C_1   0.500039 0.228761 0.997834 0.018822
C87   C     C_1   0.000033 0.320982 0.998522 0.016314
C88   C     C_1   0.000034 0.679017 0.998515 0.016074
C89   C     C_1   0.500035 0.820983 0.998517 0.017598
C90   C     C_1   0.500032 0.179018 0.998533 0.014961
C91   C     C_1   0.000026 0.363126 0.998959 -0.203024
C92   C     C_1   0.000026 0.636873 0.998956 -0.202934
C93   C     C_1   0.500027 0.863127 0.998957 -0.201925
C94   C     C_1   0.500025 0.136874 0.998962 -0.203733
C95   C     C_3   0.530813 0.536647 0.304109 0.221737
C96   C     C_3   0.513513 0.452309 0.286440 0.224613
C97   C     C_3   0.019260 0.045690 0.292256 0.235924
C98   C     C_3   0.026714 0.959941 0.299882 0.224245
C99   C     C_3   0.515694 0.452582 0.237724 0.265388
C100  C     C_3   0.531761 0.537447 0.254195 0.205171
C101  C     C_3   0.027142 0.958885 0.249445 0.257176
C102  C     C_3   0.021596 0.045102 0.243704 0.223637
C103  C     C_1   0.499783 0.500138 0.120357 -0.072944
C104  C     C_1   0.999802 0.999967 0.120376 -0.070610
C105  C     C_3   0.494593 0.500049 0.283570 -0.167364
C106  C     C_3   0.994949 0.000423 0.283932 -0.194001
C107  C     C_3   0.498060 0.500009 0.202850 -0.183171
C108  C     C_3   0.998247 0.000238 0.203037 -0.215852
H1    H     H_    0.566897 0.526269 0.279874 0.017357
H2    H     H_    0.552788 0.450738 0.266379 0.052188
H3    H     H_    0.058658 0.042281 0.272475 0.010292
H4    H     H_    0.063340 0.965560 0.275919 0.051932
H5    H     H_    0.565365 0.523634 0.348770 0.005497
H6    H     H_    0.549976 0.449703 0.334138 0.002895
H7    H     H_    0.055731 0.044193 0.340119 0.006552
H8    H     H_    0.062596 0.969069 0.345516 0.001741
H9    H     H_    0.435424 0.541871 0.141419 0.218563
H10   H     H_    0.424530 0.483542 0.130579 0.256170
H11   H     H_    0.927436 0.025817 0.133777 0.252810
H12   H     H_    0.930694 0.966595 0.136595 0.245921
O1    O     O_R   0.563110 0.535630 0.563620 -0.599315
O2    O     O_R   0.563110 0.464370 0.563620 -0.599941
O3    O     O_R   0.063110 0.035630 0.563620 -0.600076
O4    O     O_R   0.063110 0.964370 0.563620 -0.599644
O5    O     O_R   0.464380 0.500000 0.895240 -0.594820
O6    O     O_R   0.964380 0.000000 0.895240 -0.595329
O7    O     O_R   0.000010 0.436840 0.964010 -0.592373
O8    O     O_R   0.000010 0.563160 0.964010 -0.591587
O9    O     O_R   0.500010 0.936840 0.964010 -0.592668
O10   O     O_R   0.500010 0.063160 0.964010 -0.592117
O11   O     O_R   1.000000 0.436830 0.034310 -0.590722
O12   O     O_R   0.000000 0.563170 0.034310 -0.591511
O13   O     O_R   0.500000 0.936830 0.034310 -0.589686
O14   O     O_R   0.500000 0.063170 0.034310 -0.591344
O15   O     O_R   0.936840 0.500000 0.901700 -0.593386
O16   O     O_R   0.436840 0.000000 0.901700 -0.593603
O17   O     O_R   0.936840 0.500000 0.972000 -0.591263
O18   O     O_R   0.436840 0.000000 0.972000 -0.590873
O19   O     O_R   0.063130 0.500000 0.028000 -0.588406
O20   O     O_R   0.563130 0.000000 0.028000 -0.589246
O21   O     O_R   0.063120 0.500000 0.098300 -0.593512
O22   O     O_R   0.563120 0.000000 0.098300 -0.592734
O23   O     O_R   0.499970 0.535640 0.438200 -0.595840
O24   O     O_R   0.499970 0.464360 0.438200 -0.615451
O25   O     O_R   0.999970 0.035640 0.438200 -0.610696
O26   O     O_R   0.999970 0.964360 0.438200 -0.602116
O27   O     O_R   0.436830 0.535630 0.437320 -0.586800
O28   O     O_R   0.436830 0.464370 0.437320 -0.592989
O29   O     O_R   0.936830 0.035630 0.437320 -0.590992
O30   O     O_R   0.936830 0.964370 0.437320 -0.589252
O31   O     O_R   0.499970 0.535630 0.562740 -0.592055
O32   O     O_R   0.499970 0.464370 0.562740 -0.592582
O33   O     O_R   0.999970 0.035630 0.562740 -0.592471
O34   O     O_R   0.999970 0.964370 0.562740 -0.591978
O35   O     O_R   0.535670 0.563060 0.029670 -0.592606
O36   O     O_R   0.535670 0.436940 0.029670 -0.594882
O37   O     O_R   0.035670 0.063060 0.029670 -0.596252
O38   O     O_R   0.035670 0.936940 0.029670 -0.593312
O39   O     O_R   0.464380 0.563080 0.958370 -0.596359
O40   O     O_R   0.464380 0.436920 0.958370 -0.594074
O41   O     O_R   0.964380 0.063080 0.958370 -0.593465
O42   O     O_R   0.964380 0.936920 0.958370 -0.595666
O43   O     O_R   0.535670 0.500000 0.091080 -0.602484
O44   O     O_R   0.035670 0.000000 0.091080 -0.605042
O45   O     O_R   0.464370 0.500000 0.019780 -0.609339
O46   O     O_R   0.964370 0.000000 0.019780 -0.605701
O47   O     O_R   0.535670 0.500000 0.966540 -0.594747
O48   O     O_R   0.035670 0.000000 0.966540 -0.595124
Zn1   Zn    Zn3+2 0.499970 0.547590 0.500630 1.005242
Zn2   Zn    Zn3+2 0.499970 0.452410 0.500630 0.985310
Zn3   Zn    Zn3+2 0.999970 0.047590 0.500630 0.988758
Zn4   Zn    Zn3+2 0.999970 0.952410 0.500630 0.996947
Zn5   Zn    Zn3+2 0.547630 0.500000 0.040770 1.002682
Zn6   Zn    Zn3+2 0.047630 1.000000 0.040770 1.004193
Zn7   Zn    Zn3+2 0.452420 0.500000 0.945550 1.002804
Zn8   Zn    Zn3+2 0.952420 0.000000 0.945550 1.009445
Zn9   Zn    Zn3+2 0.999990 0.500000 0.953050 0.989372
Zn10  Zn    Zn3+2 0.499990 1.000000 0.953050 0.988014
Zn11  Zn    Zn3+2 0.999980 0.500000 0.046950 0.988189
Zn12  Zn    Zn3+2 0.499980 1.000000 0.046950 0.990701
O49   O     O_3   0.487103 0.415321 0.276503 -0.470133
C109  C     C_3   0.512453 0.387753 0.331048 -0.108086
H13   H     H_    0.524312 0.407800 0.371624 0.110359
H14   H     H_    0.542094 0.371609 0.343829 0.151647
H15   H     H_    0.489941 0.359954 0.320721 0.188679
O50   O     O_3   0.522365 0.580513 0.314010 -0.472968
C110  C     C_3   0.558445 0.594855 0.377594 -0.101586
H16   H     H_    0.590991 0.598073 0.391485 0.146361
H17   H     H_    0.562924 0.571024 0.410079 0.098203
H18   H     H_    0.549860 0.629072 0.382435 0.196940
O51   O     O_3   0.013710 0.917338 0.305499 -0.464651
C111  C     C_3   0.047950 0.899610 0.367606 -0.091778
H19   H     H_    0.054825 0.923157 0.402252 0.095087
H20   H     H_    0.080062 0.892750 0.381276 0.154777
H21   H     H_    0.035741 0.866655 0.369140 0.190622
O52   O     O_3   0.997119 0.085476 0.286376 -0.471438
C112  C     C_3   0.025162 0.109921 0.343901 -0.109952
H22   H     H_    0.056634 0.122573 0.358822 0.147317
H23   H     H_    0.034349 0.088622 0.381876 0.109323
H24   H     H_    0.005864 0.140108 0.336630 0.190231
S1    S     S_3+6 0.493727 0.402177 0.187645 0.078897
O53   O     O_2   0.500098 0.359788 0.221175 -0.236418
O54   O     O_2   0.444107 0.407079 0.126150 -0.248884
O55   O     O_3   0.524015 0.395765 0.171530 -0.588466
H25   H     H_    0.509125 0.370056 0.141030 0.380434
S2    S     S_3+6 0.528514 0.593402 0.224710 0.096718
O56   O     O_2   0.480085 0.608403 0.168423 -0.209103
O57   O     O_2   0.552538 0.629256 0.275462 -0.234901
O58   O     O_3   0.554894 0.590123 0.202286 -0.553121
H26   H     H_    0.587473 0.584111 0.241760 0.347182
S3    S     S_3+6 0.016719 0.903728 0.212962 0.081863
O59   O     O_2   0.966763 0.895290 0.154844 -0.242664
O60   O     O_2   0.041180 0.903501 0.194157 -0.327954
O61   O     O_3   0.037989 0.860669 0.264523 -0.498868
H27   H     H_    0.032160 0.832629 0.241354 0.383575
S4    S     S_3+6 0.006069 0.097926 0.200140 0.094109
O62   O     O_2   0.956081 0.099637 0.138992 -0.199141
O63   O     O_2   0.018088 0.139254 0.239071 -0.243752
O64   O     O_3   0.035797 0.100648 0.182814 -0.557749
H28   H     H_    0.068226 0.103772 0.224208 0.347152
S5    S     S_3+6 0.420612 0.565555 0.209248 0.127809
O65   O     O_2   0.423665 0.569528 0.261184 -0.229845
O66   O     O_2   0.444632 0.605784 0.213213 -0.188586
O67   O     O_3   0.365204 0.570773 0.139727 -0.460088
H29   H     H_    0.365241 0.573158 0.107463 0.353075
S6    S     S_3+6 0.401606 0.467243 0.190199 0.099919
O68   O     O_2   0.407246 0.457238 0.243736 -0.280020
O69   O     O_2   0.353716 0.484351 0.135123 -0.236598
O70   O     O_3   0.405626 0.417936 0.166234 -0.450263
H30   H     H_    0.384770 0.396434 0.160578 0.389034
S7    S     S_3+6 0.906382 0.043854 0.195399 0.107456
O71   O     O_2   0.856790 0.032146 0.139281 -0.218229
O72   O     O_2   0.913704 0.053320 0.250508 -0.286390
O73   O     O_3   0.915536 0.092342 0.176349 -0.456392
H31   H     H_    0.897366 0.116066 0.173509 0.389306
S8    S     S_3+6 0.913715 0.944135 0.202001 0.106784
O74   O     O_2   0.933786 0.901351 0.202955 -0.188124
O75   O     O_2   0.914483 0.940612 0.251792 -0.280781
O76   O     O_3   0.858839 0.945333 0.130509 -0.496627
H32   H     H_    0.844035 0.919075 0.130563 0.386015

loop_
_geom_bond_atom_site_label_1
_geom_bond_atom_site_label_2
_ccdc_geom_bond_type
C5    S5    S    
C96   C105  S    
O25   Zn3   S    
C87   C91   T    
C72   C78   T    
C27   C29   T    
C45   O28   A    
S1    O54   D    
S1    O53   D    
C38   C60   S    
C83   C87   S    
O76   H32   S    
C8    C104  T    
S4    O64   S    
C79   C85   T    
C96   O49   S    
C58   O44   A    
O67   H29   S    
C55   O37   A    
C59   O47   A    
C39   C41   T    
C5    C105  S    
O49   C109  S    
C101  S3    S    
C101  H4    S    
O48   Zn6   S    
C4    C108  S    
C60   O48   A    
C21   C25   T    
C63   O13   A    
C97   O52   S    
C95   C100  S    
C35   C37   T    
S4    O63   D    
S5    O67   S    
O26   Zn4   S    
C24   O25   A    
C54   O36   A    
S2    O57   D    
C65   O15   A    
O42   Zn8   S    
O1    Zn1   S    
C9    C105  S    
C96   C99   S    
C56   O42   A    
C5    S6    S    
C74   O34   A    
C63   C93   S    
C50   C52   T    
C112  H23   S    
C109  H13   S    
C110  H18   S    
C80   C86   T    
O10   Zn10  S    
C17   C19   T    
C1    O2    A    
C58   O46   A    
C98   H8    S    
O38   Zn6   S    
O30   Zn4   S    
C88   C92   T    
C56   C72   S    
C66   O18   A    
O3    Zn3   S    
O28   Zn2   S    
C76   C80   S    
C31   C33   T    
C4    H11   S    
C68   O22   A    
O22   Zn12  S    
C97   H7    S    
C67   O19   A    
C18   C20   T    
C97   C102  S    
C52   C68   S    
O37   Zn6   S    
C39   C45   S    
S6    O69   D    
C65   O17   A    
O35   Zn5   S    
C101  C108  S    
C40   C42   T    
O18   Zn12  S    
C100  H1    S    
O2    Zn2   S    
C45   O27   A    
C6    S7    S    
C73   O31   A    
C7    C107  S    
C41   C43   S    
C23   O23   A    
C102  H3    S    
C42   C44   S    
O27   Zn1   S    
C57   O43   A    
C8    C108  S    
C81   C83   T    
C90   C94   T    
C109  H14   S    
C57   C103  S    
C64   O14   A    
O36   Zn5   S    
C53   O39   A    
O51   C111  S    
C26   C66   S    
C111  H21   S    
C62   O12   A    
C56   O38   A    
C25   C65   S    
S4    O62   D    
C55   O41   A    
C47   C49   S    
S8    O74   D    
C86   C90   S    
C46   O29   A    
O64   H28   S    
O41   Zn8   S    
O11   Zn11  S    
S2    O56   D    
O52   C112  S    
C49   C51   T    
C53   C69   S    
C2    O3    A    
C99   H2    S    
C74   O33   A    
C62   C92   S    
C109  H15   S    
C32   C34   T    
C55   C71   S    
C112  H24   S    
C40   C46   S    
O70   H30   S    
O19   Zn9   S    
C3    H10   S    
O40   Zn7   S    
O39   Zn7   S    
S5    O65   D    
O32   Zn2   S    
C78   C82   S    
O20   Zn10  S    
S3    O59   D    
C54   C70   S    
C77   C81   S    
O33   Zn3   S    
O58   H26   S    
C6    C106  S    
O34   Zn4   S    
S7    O72   D    
C16   C18   S    
C51   C67   S    
O44   Zn6   S    
C48   C50   S    
C9    C11   T    
O23   Zn1   S    
C37   C59   S    
C10   C12   T    
C3    H9    S    
O5    Zn7   S    
C66   O16   A    
C97   C106  S    
C4    C6    S    
S3    O60   D    
C20   C22   S    
C53   O35   A    
C82   C84   T    
C13   C15   T    
C73   O32   A    
C70   C76   T    
S1    O55   S    
C14   C16   T    
C23   O24   A    
C68   O20   A    
C58   C104  S    
O73   H31   S    
C36   C38   T    
C67   O21   A    
C98   C101  S    
C71   C77   T    
O24   Zn2   S    
O6    Zn8   S    
O7    Zn9   S    
C102  S4    S    
C15   C17   S    
C6    S8    S    
C100  C107  S    
C85   C89   S    
C46   O30   A    
C62   O8    A    
O21   Zn11  S    
O46   Zn8   S    
C84   C88   S    
C64   O10   A    
C98   O51   S    
C3    C5    S    
C98   C106  S    
O17   Zn11  S    
O13   Zn12  S    
C61   O7    A    
C2    O4    A    
O45   Zn7   S    
S6    O70   S    
C99   C107  S    
O9    Zn10  S    
C12   C24   S    
O15   Zn9   S    
O31   Zn1   S    
S8    O76   S    
O47   Zn5   S    
S5    O66   D    
C3    C107  S    
C111  H19   S    
C60   O6    A    
C64   C94   S    
C28   C30   T    
C29   C31   S    
C24   O26   A    
C59   O5    A    
O16   Zn10  S    
C30   C32   S    
C96   H6    S    
S2    O58   S    
C75   C79   S    
C102  C108  S    
C95   H5    S    
C28   C74   S    
O61   H27   S    
C11   C23   S    
C33   C35   S    
S8    O75   D    
C69   C75   T    
S7    O73   S    
C34   C36   S    
O4    Zn4   S    
C63   O9    A    
C89   C93   T    
C112  H22   S    
C2    C14   S    
C1    O1    A    
C110  H17   S    
C100  S2    S    
C61   O11   A    
O12   Zn11  S    
C54   O40   A    
C44   C48   T    
C110  H16   S    
S3    O61   S    
C1    C13   S    
O55   H25   S    
O29   Zn3   S    
S6    O68   D    
C22   C26   T    
C95   C105  S    
S7    O71   D    
C10   C106  S    
C4    H12   S    
C57   O45   A    
C7    C103  T    
O8    Zn9   S    
O14   Zn12  S    
O50   C110  S    
C27   C73   S    
C43   C47   T    
C99   S1    S    
C61   C91   S    
C95   O50   S    
C111  H20   S    
C19   C21   S    
O43   Zn5   S    
