data_mof_unit_62518.cif
_audit_creation_date              2012-12-10T16:53:45-0500
_audit_creation_method            fapswitch 2.2
_symmetry_space_group_name_H-M    P1
_symmetry_Int_Tables_number       1
_space_group_crystal_system       triclinic
_cell_length_a                    30.370013
_cell_length_b                    31.123967
_cell_length_c                    20.616479
_cell_angle_alpha                 89.970956
_cell_angle_beta                  135.096036
_cell_angle_gamma                 89.993725
_cell_volume                      13756.5683057

loop_
_atom_site_label
_atom_site_type_symbol
_atom_type_description
_atom_site_fract_x
_atom_site_fract_y
_atom_site_fract_z
_atom_type_partial_charge
C1    C     C_R   0.806358 0.808945 0.492648 0.980877
C2    C     C_R   0.561824 0.442468 0.497877 0.879251
C3    C     C_R   0.561790 0.557548 0.497834 0.879171
C4    C     C_R   0.438210 0.442452 0.502166 0.879299
C5    C     C_R   0.938176 0.057555 0.502099 0.868669
C6    C     C_R   0.061823 0.942467 0.497877 0.880828
C7    C     C_R   0.061790 0.057548 0.497834 0.881940
C8    C     C_R   0.938542 0.942092 0.502300 0.867480
C9    C     C_R   0.664468 0.749615 0.328241 0.876914
C10   C     C_R   0.335529 0.250383 0.671759 0.880450
C11   C     C_R   0.335512 0.749602 0.671758 0.880527
C12   C     C_R   0.193046 0.191005 0.506232 0.979704
C13   C     C_R   0.664488 0.250398 0.328242 0.880570
C14   C     C_R   0.164470 0.249617 0.328241 0.880501
C15   C     C_R   0.835531 0.750385 0.671758 0.882897
C16   C     C_R   0.835512 0.249602 0.671758 0.881292
C17   C     C_R   0.164488 0.750398 0.328242 0.880522
C18   C     C_1   0.614069 0.748688 0.226664 -0.146541
C19   C     C_1   0.385929 0.251309 0.773335 -0.145535
C20   C     C_1   0.385873 0.748657 0.773339 -0.145739
C21   C     C_1   0.614127 0.251342 0.226661 -0.145586
C22   C     C_1   0.114071 0.248691 0.226665 -0.144699
C23   C     C_R   0.193040 0.808990 0.506222 0.979729
C24   C     C_1   0.885931 0.751312 0.773335 -0.145042
C25   C     C_1   0.885873 0.248658 0.773339 -0.143274
C26   C     C_1   0.114127 0.751343 0.226660 -0.145451
C27   C     C_1   0.571650 0.748282 0.142100 0.034523
C28   C     C_1   0.428348 0.251717 0.857899 0.035548
C29   C     C_1   0.428276 0.748255 0.857906 0.035273
C30   C     C_1   0.571723 0.251744 0.142094 0.035444
C31   C     C_1   0.071651 0.248284 0.142101 0.036882
C32   C     C_1   0.928351 0.751719 0.857899 0.035920
C33   C     C_1   0.928276 0.248257 0.857906 0.038454
C34   C     C_R   0.806944 0.191017 0.493742 0.979403
C35   C     C_1   0.071724 0.751745 0.142093 0.035714
C36   C     C_1   0.521306 0.748073 0.042274 0.038626
C37   C     C_1   0.478693 0.251926 0.957725 0.039222
C38   C     C_1   0.478613 0.748064 0.957734 0.038848
C39   C     C_1   0.521386 0.251935 0.042266 0.039179
C40   C     C_1   0.021307 0.248075 0.042275 0.041236
C41   C     C_1   0.978695 0.751928 0.957725 0.039496
C42   C     C_1   0.978613 0.248066 0.957734 0.041912
C43   C     C_1   0.021388 0.751936 0.042265 0.039448
C44   C     C_2   0.842102 0.908430 0.434737 -0.389248
C45   C     C_R   0.306954 0.308995 0.493768 0.979638
C46   C     C_2   0.158030 0.092279 0.566929 -0.383465
C47   C     C_2   0.158081 0.907642 0.567093 -0.383616
C48   C     C_2   0.841890 0.092401 0.432785 -0.369438
C49   C     C_2   0.341970 0.407721 0.433071 -0.384682
C50   C     C_2   0.658030 0.592279 0.566929 -0.384813
C51   C     C_2   0.658081 0.407643 0.567092 -0.384773
C52   C     C_2   0.341918 0.592357 0.432908 -0.384737
C53   C     C_2   0.902248 0.917203 0.510642 0.193996
C54   C     C_2   0.099045 0.081512 0.490189 0.197208
C55   C     C_2   0.099141 0.918535 0.490313 0.198041
C56   C     C_R   0.693046 0.691005 0.506232 0.979897
C57   C     C_2   0.900844 0.081546 0.509581 0.126169
C58   C     C_2   0.400956 0.418487 0.509811 0.199362
C59   C     C_2   0.599045 0.581512 0.490189 0.199414
C60   C     C_2   0.599142 0.418536 0.490312 0.199232
C61   C     C_2   0.400858 0.581464 0.509687 0.199264
C62   C     C_2   0.807025 0.877959 0.437418 0.735733
C63   C     C_2   0.192845 0.122844 0.563908 0.737160
C64   C     C_2   0.192894 0.877069 0.564070 0.736880
C65   C     C_2   0.807048 0.123010 0.435686 0.731458
C66   C     C_2   0.307154 0.377156 0.436092 0.736921
C67   C     C_R   0.693040 0.308990 0.506221 0.979549
C68   C     C_2   0.692846 0.622844 0.563908 0.736720
C69   C     C_2   0.692894 0.377069 0.564069 0.736672
C70   C     C_2   0.307106 0.622931 0.435931 0.736852
C71   C     C_2   0.832603 0.839558 0.475367 -0.386249
C72   C     C_2   0.165560 0.160227 0.521080 -0.390327
C73   C     C_2   0.165551 0.839759 0.521072 -0.390318
C74   C     C_2   0.834461 0.160269 0.478917 -0.384651
C75   C     C_2   0.334439 0.339773 0.478919 -0.390395
C76   C     C_2   0.665560 0.660227 0.521081 -0.390858
C77   C     C_2   0.665551 0.339759 0.521070 -0.390609
C78   C     C_R   0.306960 0.691010 0.493779 0.979728
C79   C     C_2   0.334450 0.660241 0.478930 -0.390594
C80   C     C_R   0.438176 0.557532 0.502123 0.879206
F1    F     F_    0.750110 0.889063 0.401916 -0.611066
F2    F     F_    0.251754 0.113240 0.605577 -0.610914
F3    F     F_    0.251850 0.886589 0.605894 -0.611122
F4    F     F_    0.747980 0.113585 0.393486 -0.614775
F5    F     F_    0.248246 0.386760 0.394424 -0.611347
F6    F     F_    0.751754 0.613240 0.605576 -0.611418
F7    F     F_    0.751850 0.386589 0.605893 -0.611488
F8    F     F_    0.248149 0.613411 0.394106 -0.611419
H1    H     H_    0.819254 0.921728 0.368345 0.171508
H2    H     H_    0.121593 0.168976 0.498009 0.146131
H3    H     H_    0.121536 0.831058 0.497870 0.146142
H4    H     H_    0.878631 0.168902 0.502543 0.145322
H5    H     H_    0.378406 0.331024 0.501989 0.145807
H6    H     H_    0.621594 0.668976 0.498010 0.145765
H7    H     H_    0.621535 0.331059 0.497868 0.145725
H8    H     H_    0.378465 0.668941 0.502133 0.145629
H9    H     H_    0.009262 0.932061 0.760272 0.394882
H10   H     H_    0.001012 0.057311 0.246394 0.388673
H11   H     H_    0.001422 0.943177 0.246724 0.388557
H12   H     H_    0.179550 0.081185 0.634066 0.172143
H13   H     H_    0.951215 0.023873 0.665839 0.383905
H14   H     H_    0.498990 0.442687 0.753607 0.387959
H15   H     H_    0.501014 0.557311 0.246395 0.388017
H16   H     H_    0.501412 0.443175 0.246719 0.388117
H17   H     H_    0.498576 0.556819 0.753275 0.388043
H18   H     H_    0.179536 0.918613 0.634236 0.171733
H19   H     H_    0.820423 0.081348 0.365682 0.173075
H20   H     H_    0.320449 0.418815 0.365934 0.171151
H21   H     H_    0.679551 0.581185 0.634066 0.170995
H22   H     H_    0.679537 0.418613 0.634236 0.170950
H23   H     H_    0.320463 0.581387 0.365764 0.171032
H24   H     H_    0.874612 0.830002 0.493355 0.149298
O1    O     O_R   0.820750 0.769700 0.499970 -0.630645
O2    O     O_R   0.230310 0.179230 0.500010 -0.533921
O3    O     O_R   0.230310 0.820770 0.500010 -0.534018
O4    O     O_R   0.769690 0.179230 0.499990 -0.533644
O5    O     O_R   0.269690 0.320770 0.499990 -0.534286
O6    O     O_R   0.730310 0.679230 0.500010 -0.534196
O7    O     O_R   0.730310 0.320770 0.500010 -0.534242
O8    O     O_R   0.269690 0.679230 0.499990 -0.534207
O9    O     O_R   0.712390 0.724470 0.373700 -0.602844
O10   O     O_R   0.287610 0.275530 0.626300 -0.602369
O11   O     O_R   0.287610 0.724470 0.626300 -0.602415
O12   O     O_R   0.179250 0.230300 0.500030 -0.631979
O13   O     O_R   0.712390 0.275530 0.373700 -0.602639
O14   O     O_R   0.212390 0.224470 0.373700 -0.601429
O15   O     O_R   0.787610 0.775530 0.626300 -0.602073
O16   O     O_R   0.787610 0.224470 0.626300 -0.601824
O17   O     O_R   0.212390 0.775530 0.373700 -0.602127
O18   O     O_R   0.661330 0.775540 0.373730 -0.587210
O19   O     O_R   0.338670 0.224460 0.626270 -0.585996
O20   O     O_R   0.338670 0.775540 0.626270 -0.585919
O21   O     O_R   0.661330 0.224460 0.373730 -0.585758
O22   O     O_R   0.161330 0.275540 0.373730 -0.586369
O23   O     O_R   0.179250 0.769700 0.500030 -0.631949
O24   O     O_R   0.838670 0.724460 0.626270 -0.585236
O25   O     O_R   0.838670 0.275540 0.626270 -0.585994
O26   O     O_R   0.161330 0.724460 0.373730 -0.585991
O27   O     O_R   0.419140 0.545230 0.428730 -0.650494
O28   O     O_R   0.580860 0.454770 0.571270 -0.650560
O29   O     O_R   0.580860 0.545230 0.571270 -0.650601
O30   O     O_R   0.419140 0.454770 0.428730 -0.650482
O31   O     O_R   0.919140 0.045230 0.428730 -0.643007
O32   O     O_R   0.080860 0.954770 0.571270 -0.647525
O33   O     O_R   0.080860 0.045230 0.571270 -0.646325
O34   O     O_R   0.820750 0.230300 0.499970 -0.632422
O35   O     O_R   0.919140 0.954770 0.428730 -0.648467
O36   O     O_R   0.490420 0.545230 0.571310 -0.539625
O37   O     O_R   0.509580 0.454770 0.428690 -0.539549
O38   O     O_R   0.509580 0.545230 0.428690 -0.539473
O39   O     O_R   0.490420 0.454770 0.571310 -0.539519
O40   O     O_R   0.990420 0.045230 0.571310 -0.551219
O41   O     O_R   0.009580 0.954770 0.428690 -0.539649
O42   O     O_R   0.009580 0.045230 0.428690 -0.539338
O43   O     O_R   0.990420 0.954770 0.571310 -0.541537
O44   O     O_2   0.890118 0.902662 0.627575 -0.261250
O45   O     O_R   0.320750 0.269700 0.499970 -0.631923
O46   O     O_2   0.970380 0.861855 0.652937 -0.308240
O47   O     O_3   0.991344 0.941969 0.699881 -0.524740
O48   O     O_2   0.029429 0.131288 0.339139 -0.316774
O49   O     O_2   0.116573 0.093010 0.378811 -0.251671
O50   O     O_3   0.018308 0.049509 0.307417 -0.480432
O51   O     O_2   0.116890 0.907234 0.379172 -0.252069
O52   O     O_2   0.029573 0.869029 0.339047 -0.316896
O53   O     O_3   0.018659 0.950866 0.307737 -0.480384
O54   O     O_2   0.972344 0.130290 0.661996 -0.263098
O55   O     O_2   0.883689 0.094623 0.621530 -0.258640
O56   O     O_R   0.679250 0.730300 0.500030 -0.631994
O57   O     O_3   0.979836 0.048694 0.691660 -0.463762
O58   O     O_2   0.383428 0.406989 0.621190 -0.252963
O59   O     O_2   0.470571 0.368711 0.660859 -0.317462
O60   O     O_3   0.481694 0.450489 0.692584 -0.480724
O61   O     O_2   0.529429 0.631289 0.339140 -0.317248
O62   O     O_2   0.616573 0.593011 0.378810 -0.252855
O63   O     O_3   0.518307 0.549510 0.307416 -0.480693
O64   O     O_2   0.616892 0.407236 0.379172 -0.252843
O65   O     O_2   0.529573 0.369031 0.339045 -0.317026
O66   O     O_3   0.518661 0.450869 0.307738 -0.480613
O67   O     O_R   0.679250 0.269700 0.500030 -0.632171
O68   O     O_2   0.470425 0.630968 0.660955 -0.317488
O69   O     O_2   0.383107 0.592763 0.620827 -0.252837
O70   O     O_3   0.481338 0.549130 0.692261 -0.480668
O71   O     O_R   0.320750 0.730300 0.499970 -0.632128
O72   O     O_R   0.769690 0.820770 0.499990 -0.533794
S1    S     S_3+6 0.938055 0.904578 0.624420 0.036337
S2    S     S_3+6 0.066324 0.090212 0.377096 0.056223
S3    S     S_3+6 0.066553 0.910035 0.377273 0.055958
S4    S     S_3+6 0.933537 0.090119 0.622671 0.067544
S5    S     S_3+6 0.433677 0.409787 0.622904 0.055314
S6    S     S_3+6 0.566323 0.590213 0.377096 0.055461
S7    S     S_3+6 0.566555 0.410037 0.377272 0.055505
S8    S     S_3+6 0.433445 0.589962 0.622727 0.055324
Zn1   Zn    Zn3+2 0.784090 0.715900 0.499990 1.074392
Zn2   Zn    Zn3+2 0.547600 0.500000 0.595200 1.094888
Zn3   Zn    Zn3+2 0.952400 0.000000 0.404800 1.093606
Zn4   Zn    Zn3+2 0.047600 0.000000 0.595200 1.097692
Zn5   Zn    Zn3+2 0.215910 0.284100 0.500010 1.073554
Zn6   Zn    Zn3+2 0.215910 0.715900 0.500010 1.073611
Zn7   Zn    Zn3+2 0.784090 0.284100 0.499990 1.073691
Zn8   Zn    Zn3+2 0.284090 0.215900 0.499990 1.075266
Zn9   Zn    Zn3+2 0.715910 0.784100 0.500010 1.073100
Zn10  Zn    Zn3+2 0.715910 0.215900 0.500010 1.074392
Zn11  Zn    Zn3+2 0.284090 0.784100 0.499990 1.074131
Zn12  Zn    Zn3+2 0.452400 0.500000 0.404800 1.095250

loop_
_geom_bond_atom_site_label_1
_geom_bond_atom_site_label_2
_ccdc_geom_bond_type
O22   Zn5   S    
O65   S7    D    
C68   F6    S    
O11   Zn6   S    
C69   C77   D    
C16   O25   A    
C3    O29   A    
O48   S2    D    
C6    C55   S    
O52   S3    D    
C70   F8    S    
C11   O20   A    
O23   Zn6   S    
C48   C57   D    
C9    O18   A    
C31   C40   S    
O58   S5    D    
C1    C71   S    
C5    O40   A    
C1    O1    A    
O7    Zn7   S    
C50   C59   D    
H9    O47   S    
O39   Zn2   S    
O27   Zn12  S    
C4    O30   A    
O69   S8    D    
C2    C60   S    
C5    O31   A    
C48   H19   S    
O55   S4    D    
C61   C80   S    
C34   O4    A    
O61   S6    D    
C16   C25   S    
O56   Zn9   S    
O59   S5    D    
O51   S3    D    
C78   O71   A    
C74   H4    S    
O34   Zn7   S    
O6    Zn1   S    
C8    O43   A    
C53   S1    S    
C10   O19   A    
C57   S4    S    
O43   Zn4   S    
C76   H6    S    
C44   C53   D    
H16   O66   S    
O25   Zn7   S    
O33   Zn4   S    
O3    Zn11  S    
C29   C38   S    
C30   C39   S    
C61   S8    S    
O8    Zn6   S    
C32   C41   S    
O53   S3    S    
O35   Zn3   S    
C17   O26   A    
O38   Zn12  S    
H17   O70   S    
C35   C43   S    
C69   F7    S    
C13   O13   A    
C2    O37   A    
C40   C42   T    
C12   C72   S    
O2    Zn8   S    
C41   C43   T    
C56   O56   A    
O70   S8    S    
C23   C73   S    
O9    Zn1   S    
H10   O50   S    
C1    O72   A    
C49   H20   S    
C12   O2    A    
C20   C29   T    
H14   O60   S    
C66   F5    S    
C11   C20   S    
C49   C66   S    
O40   Zn4   S    
C63   F2    S    
C17   O17   A    
C45   O45   A    
C73   H3    S    
C22   C31   T    
C47   C64   S    
O50   S2    S    
C78   C79   S    
O64   S7    D    
O14   Zn8   S    
C15   O24   A    
C14   O22   A    
C52   H23   S    
C44   C62   S    
O44   S1    D    
O63   S6    S    
O12   Zn5   S    
C77   H7    S    
C50   H21   S    
C65   C74   D    
O30   Zn12  S    
C78   O8    A    
C67   O7    A    
C24   C32   T    
C64   F3    S    
O49   S2    D    
C67   C77   S    
C72   H2    S    
C26   C35   T    
C9    O9    A    
O41   Zn3   S    
O67   Zn10  S    
C80   O36   A    
C10   C19   S    
C64   C73   D    
C47   H18   S    
O31   Zn3   S    
C71   H24   S    
C46   C54   D    
C58   S5    S    
H15   O63   S    
C13   C21   S    
O16   Zn10  S    
H13   O57   S    
C19   C28   T    
C16   O16   A    
O37   Zn12  S    
O18   Zn9   S    
O62   S6    D    
O32   Zn4   S    
O42   Zn3   S    
O26   Zn6   S    
O36   Zn2   S    
C15   C24   S    
C62   F1    S    
C34   C74   S    
C51   H22   S    
C55   S3    S    
C56   C76   S    
O68   S8    D    
O47   S1    S    
C48   C65   S    
O54   S4    D    
C8    O35   A    
C17   C26   S    
C6    O32   A    
O46   S1    D    
O5    Zn5   S    
C75   H5    S    
C47   C55   D    
C45   O5    A    
O21   Zn10  S    
C4    O39   A    
C46   H12   S    
C3    O38   A    
O72   Zn9   S    
C70   C79   D    
O1    Zn1   S    
C11   O11   A    
C18   C27   T    
O57   S4    S    
C10   O10   A    
C8    C53   S    
O4    Zn10  S    
C65   F4    S    
C23   O23   A    
C27   C36   S    
C68   C76   D    
C80   O27   A    
C21   C30   T    
C14   O14   A    
C5    C57   S    
C46   C63   S    
C45   C75   S    
O60   S5    S    
C2    O28   A    
O45   Zn8   S    
C36   C38   T    
O19   Zn8   S    
O71   Zn11  S    
O24   Zn1   S    
C37   C39   T    
C67   O67   A    
C56   O6    A    
O66   S7    S    
C34   O34   A    
C14   C22   S    
C7    O42   A    
C50   C68   S    
C28   C37   S    
C60   S7    S    
C66   C75   D    
O20   Zn11  S    
C62   C71   D    
C52   C61   D    
O29   Zn2   S    
O15   Zn9   S    
O10   Zn5   S    
C13   O21   A    
C6    O41   A    
C52   C70   S    
C49   C58   D    
C23   O3    A    
O17   Zn11  S    
C9    C18   S    
C79   H8    S    
C63   C72   D    
O13   Zn7   S    
C54   S2    S    
C4    C58   S    
C33   C42   S    
C59   S6    S    
C15   O15   A    
C51   C60   D    
C51   C69   S    
C7    C54   S    
H11   O53   S    
O28   Zn2   S    
C12   O12   A    
C44   H1    S    
C25   C33   T    
C7    O33   A    
C3    C59   S    
