data_mof_unit_19025.cif
_audit_creation_date              2012-10-26T18:52:44-0400
_audit_creation_method            fapswitch 2.2
_symmetry_space_group_name_H-M    P1
_symmetry_Int_Tables_number       1
_space_group_crystal_system       triclinic
_cell_length_a                    10.717356
_cell_length_b                    14.745535
_cell_length_c                    14.688178
_cell_angle_alpha                 64.598071
_cell_angle_beta                  103.833243
_cell_angle_gamma                 102.622087
_cell_volume                      2018.11951905

loop_
_atom_site_label
_atom_site_type_symbol
_atom_type_description
_atom_site_fract_x
_atom_site_fract_y
_atom_site_fract_z
_atom_type_partial_charge
C1    C     C_R   0.477389 0.119865 0.311754 0.535073
C2    C     C_R   0.440572 0.358165 0.069999 -0.013366
C3    C     C_R   0.426711 0.319505 0.994327 0.036519
C4    C     C_R   0.260460 0.999773 0.501119 0.545904
C5    C     C_R   0.440530 0.463309 0.040703 -0.017480
C6    C     C_R   0.445448 0.531092 0.937412 -0.004969
C7    C     C_R   0.417574 0.489862 0.861415 0.247057
C8    C     C_R   0.413445 0.385318 0.890568 0.108776
C9    C     C_R   0.433505 0.502611 0.111583 -0.132160
C10   C     C_R   0.445217 0.605911 0.085209 -0.140710
C11   C     C_R   0.469442 0.673746 0.988544 0.042667
C12   C     C_3   0.878579 0.995630 0.505136 0.104746
C13   C     C_R   0.474419 0.637086 0.914759 0.024858
C14   C     C_R   0.488602 0.778199 0.964708 -0.145850
C15   C     C_R   0.510545 0.847080 0.867462 -0.152160
C16   C     C_R   0.521903 0.880140 0.687916 0.553882
C17   C     C_R   0.513015 0.707806 0.822451 -0.124816
C18   C     C_R   0.738448 0.292785 0.652108 -0.165119
C19   C     C_R   0.697519 0.209443 0.626072 -0.002180
C20   C     C_R   0.510709 0.281881 0.517232 0.254866
C21   C     C_R   0.555953 0.374689 0.531840 -0.028710
C22   C     C_R   0.667502 0.375463 0.606577 0.023235
C23   C     C_3   0.921984 0.889732 0.583688 0.376522
C24   C     C_R   0.494594 0.465172 0.477331 0.007619
C25   C     C_R   0.530137 0.546751 0.510573 -0.015508
C26   C     C_R   0.637857 0.541686 0.588492 -0.115760
C27   C     C_R   0.706580 0.458416 0.635333 0.258456
C28   C     C_R   0.740043 0.998399 0.501949 0.600986
C29   C     C_R   0.406543 0.480595 0.385503 -0.136845
C30   C     C_R   0.337833 0.562615 0.338202 -0.140127
C31   C     C_R   0.360886 0.637119 0.376412 0.018219
C32   C     C_R   0.459935 0.632710 0.460996 -0.002399
C33   C     C_R   0.288700 0.718301 0.327499 -0.159617
C34   C     C_3   0.964718 0.080482 0.537112 -0.258839
C35   C     C_R   0.316785 0.797389 0.360077 0.246331
C36   C     C_R   0.484103 0.715618 0.490633 0.028001
C37   C     C_3   0.042025 0.014591 0.396642 -0.255643
C38   C     C_3   0.899779 0.019399 0.395711 -0.281352
C39   C     C_3   0.071211 0.894499 0.582999 -0.201788
C40   C     C_3   0.107143 0.083172 0.534150 -0.253347
C41   C     C_3   0.122957 0.998258 0.503837 0.005459
C42   C     C_3   0.979199 0.869866 0.762636 0.003066
C43   C     C_3   0.023948 0.765220 0.826488 -0.269894
C44   C     C_3   0.142316 0.770206 0.906771 -0.484334
C45   C     C_R   0.459379 0.187309 0.202406 -0.006186
C46   C     C_3   0.272527 0.586236 0.729272 0.003735
C47   C     C_3   0.184083 0.547614 0.651146 -0.254493
C48   C     C_3   0.072339 0.610050 0.593398 -0.460360
C49   C     C_3   0.789902 0.423469 0.804392 -0.007739
C50   C     C_3   0.767416 0.508702 0.829784 -0.272276
C51   C     C_3   0.771374 0.474435 0.944194 -0.476440
C52   C     C_R   0.520647 0.811813 0.795337 -0.013076
C53   C     C_R   0.425335 0.214863 0.024008 -0.124128
C54   C     C_R   0.440094 0.149427 0.126883 -0.153082
C55   C     C_R   0.460832 0.290936 0.173585 -0.134147
Cu1   Cu    Cu3+1 0.465900 0.918260 0.475680 0.971099
Cu2   Cu    Cu3+1 0.534100 0.081740 0.524320 0.945938
H1    H     H_    0.046507 0.951565 0.375484 0.133886
H2    H     H_    0.082334 0.086096 0.338020 0.122901
H3    H     H_    0.413806 0.454691 0.187290 0.095885
H4    H     H_    0.482443 0.806533 0.020254 0.105676
H5    H     H_    0.558162 0.719187 0.553484 0.146690
H6    H     H_    0.267958 0.568847 0.269516 0.100788
H7    H     H_    0.826058 0.292416 0.707276 0.135838
H8    H     H_    0.754219 0.147056 0.660026 0.124531
H9    H     H_    0.875382 0.096650 0.343262 0.109803
H10   H     H_    0.675325 0.603838 0.611603 0.116401
H11   H     H_    0.392606 0.432330 0.345669 0.096084
H12   H     H_    0.953296 0.069037 0.614720 0.132337
H13   H     H_    0.212358 0.721440 0.263042 0.084636
H14   H     H_    0.834448 0.966629 0.363684 0.131523
H15   H     H_    0.084886 0.833661 0.562215 0.096633
H16   H     H_    0.166401 0.074824 0.610031 0.131154
H17   H     H_    0.141266 0.158214 0.477049 0.149121
H18   H     H_    0.934387 0.155842 0.484051 0.125807
H19   H     H_    0.933501 0.887922 0.812179 0.144616
H20   H     H_    0.059617 0.932460 0.740917 0.107964
H21   H     H_    0.943730 0.712120 0.865367 0.161183
H22   H     H_    0.047901 0.734076 0.776970 0.151350
H23   H     H_    0.136623 0.879662 0.656904 0.092484
H24   H     H_    0.223973 0.822102 0.869156 0.155774
H25   H     H_    0.172370 0.693576 0.951567 0.155058
H26   H     H_    0.119347 0.797609 0.959731 0.139480
H27   H     H_    0.470335 0.383673 0.769214 0.250229
H28   H     H_    0.308075 0.360852 0.766827 0.243798
H29   H     H_    0.290920 0.670245 0.692963 0.167486
H30   H     H_    0.220601 0.566102 0.794320 0.117728
H31   H     H_    0.240786 0.551340 0.595067 0.186892
H32   H     H_    0.143661 0.467441 0.691346 0.158325
H33   H     H_    0.020453 0.615091 0.647746 0.172301
H34   H     H_    0.537095 0.683633 0.769859 0.179896
H35   H     H_    0.002937 0.573835 0.545449 0.170963
H36   H     H_    0.109898 0.687396 0.542598 0.138793
H37   H     H_    0.875525 0.388850 0.857752 0.151800
H38   H     H_    0.706144 0.361744 0.818018 0.125948
H39   H     H_    0.843210 0.574613 0.803977 0.169115
H40   H     H_    0.671277 0.533122 0.789146 0.175340
H41   H     H_    0.699163 0.406553 0.972513 0.162032
H42   H     H_    0.748307 0.536209 0.959064 0.154251
H43   H     H_    0.869525 0.456124 0.986555 0.142017
H44   H     H_    0.254352 0.913786 0.231890 0.198147
H45   H     H_    0.516762 0.927364 0.848153 0.127861
H46   H     H_    0.146801 0.853759 0.313479 0.189236
H47   H     H_    0.315559 0.295354 0.484819 0.202042
H48   H     H_    0.374583 0.274388 0.395139 0.223074
H49   H     H_    0.878765 0.813716 0.485216 0.191491
H50   H     H_    0.867314 0.739390 0.607667 0.225894
H51   H     H_    0.438622 0.632844 0.141714 0.112524
H52   H     H_    0.413126 0.182865 0.967953 0.146505
H53   H     H_    0.438621 0.069419 0.147242 0.124819
H54   H     H_    0.482234 0.318091 0.233710 0.119467
N1    N     N_R   0.585360 0.204570 0.560800 -0.198716
N2    N     N_R   0.414550 0.795430 0.439160 -0.209382
N3    N     N_3   0.397446 0.345823 0.813913 -0.650686
N4    N     N_3   0.244626 0.881467 0.309031 -0.556581
N5    N     N_3   0.380234 0.260056 0.471944 -0.590122
N6    N     N_3   0.848636 0.809760 0.549601 -0.584171
O1    O     O_R   0.455060 0.022100 0.338110 -0.476379
O2    O     O_3   0.393455 0.548915 0.757512 -0.608395
O3    O     O_3   0.818969 0.462400 0.704301 -0.599484
O4    O     O_R   0.512640 0.160150 0.379180 -0.508404
O5    O     O_R   0.288900 0.930980 0.479450 -0.484517
O6    O     O_R   0.346480 0.069030 0.520520 -0.472025
O7    O     O_R   0.487360 0.839850 0.620820 -0.511970
O8    O     O_R   0.544940 0.977900 0.661890 -0.502218
O9    O     O_R   0.653520 0.930970 0.479480 -0.475448
O10   O     O_R   0.711100 0.069020 0.520550 -0.526195
O11   O     O_3   0.882732 0.867023 0.679078 -0.558993

loop_
_geom_bond_atom_site_label_1
_geom_bond_atom_site_label_2
_ccdc_geom_bond_type
C11   C13   A    
H48   N5    S    
C10   H51   S    
C17   H34   S    
C44   H26   S    
C50   H39   S    
C7    C8    A    
C39   C41   S    
C19   N1    A    
C40   H16   S    
C43   H21   S    
C12   C23   S    
C26   C27   A    
C29   C30   A    
C12   C28   S    
C34   C40   S    
C26   H10   S    
C32   C36   A    
H28   N3    S    
C44   H25   S    
C2    C55   A    
Cu2   O8    S    
C30   C31   A    
C11   C14   A    
C49   O3    S    
C4    C41   S    
C43   H22   S    
Cu1   Cu2   S    
C54   H53   S    
C18   C19   A    
C46   C47   S    
C24   C29   A    
C20   N1    A    
C38   H9    S    
Cu1   N2    S    
C31   C33   A    
C35   N4    S    
Cu1   O9    S    
C49   H37   S    
C9    C10   A    
C37   H1    S    
C28   O10   A    
C42   O11   S    
C34   H18   S    
C51   H41   S    
H47   N5    S    
C21   C22   A    
C12   C38   S    
C47   H32   S    
C36   H5    S    
C36   N2    A    
C17   C52   A    
C28   O9    A    
Cu2   O10   S    
C51   H42   S    
C48   H36   S    
C18   H7    S    
C7    O2    S    
C24   C25   A    
C44   H24   S    
C20   N5    S    
C25   C26   A    
C27   O3    S    
C14   H4    S    
C4    O6    A    
Cu1   O5    S    
H46   N4    S    
C43   C44   S    
C5    C9    A    
C37   C38   S    
Cu2   O6    S    
C29   H11   S    
C47   C48   S    
C39   H15   S    
C50   C51   S    
C4    O5    A    
C15   C52   A    
C49   H38   S    
C34   H12   S    
C37   H2    S    
C33   H13   S    
C40   C41   S    
C45   C54   A    
C3    C8    A    
C22   C27   A    
H49   N6    S    
H44   N4    S    
C2    C5    A    
C42   C43   S    
C12   C34   S    
Cu1   O7    S    
C46   H30   S    
C16   O8    A    
C53   H52   S    
C51   H43   S    
C38   H14   S    
C50   H40   S    
H27   N3    S    
C55   H54   S    
C18   C22   A    
Cu1   O1    S    
C31   C32   A    
C16   C52   S    
C23   N6    S    
C53   C54   A    
C6    C7    A    
C8    N3    S    
C19   H8    S    
C42   H19   S    
C13   C17   A    
C9    H3    S    
C47   H31   S    
C2    C3    A    
C16   O7    A    
C39   H23   S    
C6    C13   A    
C3    C53   A    
C1    C45   S    
C5    C6    A    
C25   C32   A    
C23   C39   S    
C33   C35   A    
C40   H17   S    
C46   O2    S    
C35   N2    A    
C1    O1    A    
C15   H45   S    
C37   C41   S    
C1    O4    A    
C10   C11   A    
Cu2   O4    S    
Cu2   N1    S    
C20   C21   A    
C45   C55   A    
C42   H20   S    
C49   C50   S    
C48   H35   S    
C21   C24   A    
C14   C15   A    
C48   H33   S    
C30   H6    S    
H50   N6    S    
C23   O11   S    
C46   H29   S    
