data_mof_unit_9892.cif
_audit_creation_date              2013-03-05T15:49:51-0500
_audit_creation_method            fapswitch 2.2
_symmetry_space_group_name_H-M    P1
_symmetry_Int_Tables_number       1
_space_group_crystal_system       triclinic
_cell_length_a                    27.802113
_cell_length_b                    12.957484
_cell_length_c                    11.734692
_cell_angle_alpha                 99.162199
_cell_angle_beta                  92.809744
_cell_angle_gamma                 91.60348
_cell_volume                      4165.67090482

loop_
_atom_site_label
_atom_site_type_symbol
_atom_site_description
_atom_site_fract_x
_atom_site_fract_y
_atom_site_fract_z
_atom_type_partial_charge
O1    O     O_R   0.502540 0.354460 0.582000 -0.584649
O2    O     O_R   0.497460 0.645540 0.418000 -0.553587
O3    O     O_R   0.496500 0.341410 0.386200 -0.594772
O4    O     O_R   0.503500 0.658590 0.613800 -0.587581
C1    C     C_R   0.498514 0.299433 0.479312 0.787651
C2    C     C_R   0.500413 0.700613 0.521170 0.798984
O5    O     O_R   0.433290 0.506540 0.597890 -0.518276
O6    O     O_R   0.566710 0.493460 0.402110 -0.579260
O7    O     O_R   0.427240 0.493490 0.402090 -0.595954
O8    O     O_R   0.572760 0.506510 0.597910 -0.547121
C3    C     C_R   0.407769 0.501495 0.501134 0.848534
C4    C     C_R   0.592491 0.497874 0.498880 0.833171
Cu1   Cu    Cu3+1 0.503580 0.507730 0.615930 0.973023
Cu2   Cu    Cu3+1 0.496420 0.492270 0.384070 0.948548
C5    C     C_R   0.178148 0.421417 0.531309 0.524257
C6    C     C_R   0.822742 0.583825 0.474405 0.526100
O9    O     O_2   0.202407 0.339468 0.559568 -0.551286
O10   O     O_2   0.798649 0.671932 0.468093 -0.549191
N1    N     N_R   0.202926 0.507110 0.507098 -0.447972
N2    N     N_R   0.797945 0.493279 0.483492 -0.447611
C7    C     C_R   0.179548 0.591850 0.478972 0.609824
C8    C     C_R   0.821115 0.402296 0.488885 0.607854
C9    C     C_R   0.282959 0.576412 0.591356 0.215397
C10   C     C_R   0.724779 0.480306 0.592099 0.211373
C11   C     C_R   0.333487 0.579253 0.585688 0.373791
C12   C     C_R   0.674144 0.475075 0.594373 0.389791
C13   C     C_R   0.326632 0.438004 0.421269 -0.298060
C14   C     C_R   0.667990 0.506487 0.395020 -0.288941
C15   C     C_R   0.276709 0.438900 0.423213 -0.155766
C16   C     C_R   0.717895 0.506115 0.391326 -0.162996
C17   C     C_R   0.254619 0.506944 0.508159 0.263662
C18   C     C_R   0.746461 0.493946 0.489309 0.262693
C19   C     C_R   0.102548 0.504914 0.499809 -0.114820
C20   C     C_R   0.898153 0.494246 0.482522 -0.114999
C21   C     C_R   0.127677 0.418375 0.527369 0.007540
C22   C     C_R   0.873147 0.586018 0.473573 0.004879
C23   C     C_R   0.102081 0.330777 0.551216 -0.152294
C24   C     C_R   0.898862 0.678649 0.466377 -0.151690
C25   C     C_R   0.128742 0.593574 0.476470 -0.141534
C26   C     C_R   0.871869 0.400607 0.489056 -0.140658
C27   C     C_R   0.355273 0.506238 0.503371 -0.164765
C28   C     C_R   0.645494 0.492923 0.496412 -0.177850
H1    H     H_    0.342992 0.383102 0.356260 0.177718
H2    H     H_    0.647032 0.518045 0.318229 0.186876
H3    H     H_    0.254969 0.386111 0.358744 0.169939
H4    H     H_    0.734563 0.516023 0.312081 0.170088
H5    H     H_    0.120625 0.264217 0.574916 0.182000
H6    H     H_    0.880470 0.750532 0.461246 0.184154
C29   C     C_R   0.974391 0.405700 0.501449 -0.030420
C30   C     C_R   0.026236 0.590897 0.471663 -0.030518
C31   C     C_R   0.975147 0.590273 0.473837 0.090702
C32   C     C_R   0.025568 0.410543 0.513656 0.090923
C33   C     C_R   0.949390 0.496595 0.485536 0.068942
C34   C     C_R   0.051291 0.502255 0.495249 0.070348
C35   C     C_R   0.947264 0.312281 0.503433 -0.291714
C36   C     C_R   0.053200 0.677335 0.445722 -0.295103
C37   C     C_R   0.896979 0.308417 0.494828 0.517674
C38   C     C_R   0.103499 0.680558 0.450627 0.517063
O11   O     O_2   0.794880 0.314218 0.494396 -0.492045
O12   O     O_2   0.205588 0.673339 0.452429 -0.489395
C39   C     C_R   0.052108 0.326795 0.544761 -0.210159
C40   C     C_R   0.948780 0.680992 0.466601 -0.209501
H7    H     H_    0.963946 0.239095 0.508785 0.154320
H8    H     H_    0.036335 0.743644 0.418060 0.157260
H9    H     H_    0.035391 0.257475 0.567543 0.140206
H10   H     H_    0.965687 0.756441 0.464610 0.137526
C41   C     C_R   0.501153 0.814013 0.534494 -0.050722
C42   C     C_R   0.494846 0.186355 0.468951 -0.040122
C43   C     C_R   0.466010 0.018384 0.363974 -0.212526
C44   C     C_R   0.527269 0.982550 0.642959 -0.221135
C45   C     C_R   0.471745 0.126109 0.370527 -0.193284
C46   C     C_R   0.524101 0.874294 0.633168 -0.189805
C47   C     C_R   0.512839 0.138683 0.560200 -0.279546
C48   C     C_R   0.479637 0.862418 0.447924 -0.298034
C49   C     C_R   0.508136 0.030863 0.553315 0.180991
C50   C     C_R   0.484202 0.970301 0.454815 0.181358
H11   H     H_    0.459747 0.816099 0.374917 0.145197
H12   H     H_    0.530930 0.185346 0.635997 0.139541
H13   H     H_    0.540439 0.837606 0.701541 0.148771
H14   H     H_    0.457310 0.162516 0.299854 0.147628
H15   H     H_    0.447800 0.972741 0.287850 0.137716
H16   H     H_    0.545499 0.028130 0.719102 0.130809
N3    N     N_R   0.508960 0.519350 0.790140 -0.221126
N4    N     N_R   0.491040 0.480650 0.209860 -0.226741
C51   C     C_R   0.458399 0.391271 0.026216 0.408240
C52   C     C_R   0.554159 0.581466 0.970546 0.417771
C53   C     C_R   0.461311 0.405670 0.147429 -0.066759
C54   C     C_R   0.546732 0.575152 0.849191 -0.065587
C55   C     C_R   0.520888 0.541649 0.155422 0.419497
C56   C     C_R   0.478368 0.460727 0.845114 0.404016
C57   C     C_R   0.520469 0.528643 0.031347 -0.176848
C58   C     C_R   0.485079 0.459612 0.966740 -0.198426
H17   H     H_    0.571761 0.612521 0.799880 0.165013
H18   H     H_    0.440089 0.354967 0.191987 0.154189
N5    N     N_2   0.438830 0.405385 0.779035 -0.367713
H19   H     H_    0.440004 0.325049 0.767189 0.270274
C59   C     C_3   0.391826 0.447483 0.801822 -0.554876
H20   H     H_    0.379119 0.430455 0.885066 0.233647
H21   H     H_    0.365309 0.412014 0.731751 0.215713
H22   H     H_    0.393195 0.533564 0.805108 0.254379
N6    N     N_2   0.549441 0.622581 0.225371 -0.354627
H23   H     H_    0.586050 0.612571 0.227420 0.273677
C60   C     C_3   0.534913 0.728236 0.219399 -0.615777
H24   H     H_    0.547081 0.755468 0.140618 0.227697
H25   H     H_    0.551166 0.781987 0.295457 0.226667
H26   H     H_    0.495093 0.732263 0.218471 0.208639
O13   O     O_3   0.430168 0.308261 0.967867 -0.588837
C61   C     C_3   0.457509 0.217476 0.958179 -0.357852
H27   H     H_    0.466447 0.195575 0.044488 0.162646
H28   H     H_    0.490995 0.227190 0.911966 0.153806
H29   H     H_    0.435669 0.151757 0.906652 0.199458
O14   O     O_3   0.596833 0.624171 0.029203 -0.584792
C62   C     C_3   0.617626 0.707114 0.981248 -0.352896
H30   H     H_    0.590192 0.761312 0.955555 0.136833
H31   H     H_    0.639411 0.676056 0.907362 0.192779
H32   H     H_    0.642596 0.753504 0.048005 0.200102
O15   O     O_3   0.653281 0.458814 0.695009 -0.572950
C63   C     C_3   0.641172 0.351181 0.686374 -0.286526
H33   H     H_    0.624621 0.338075 0.767232 0.186408
H34   H     H_    0.673635 0.302897 0.676551 0.154360
H35   H     H_    0.614295 0.324107 0.613593 0.155294
O16   O     O_3   0.361391 0.650522 0.663714 -0.593157
C64   C     C_3   0.372494 0.738029 0.610717 -0.297165
H36   H     H_    0.395047 0.795017 0.673048 0.194582
H37   H     H_    0.339319 0.777768 0.587253 0.163729
H38   H     H_    0.393571 0.716247 0.532881 0.145988
N7    N     N_2   0.754184 0.471633 0.692783 -0.402553
H39   H     H_    0.740323 0.421621 0.743963 0.282129
C65   C     C_3   0.770703 0.570923 0.759551 -0.639551
H40   H     H_    0.795257 0.557171 0.832709 0.224875
H41   H     H_    0.739557 0.615122 0.794758 0.229646
H42   H     H_    0.790859 0.618241 0.705482 0.244673
N8    N     N_2   0.260427 0.643490 0.679627 -0.410082
H43   H     H_    0.277981 0.715109 0.705583 0.281333
C66   C     C_3   0.247858 0.594015 0.776735 -0.651941
H44   H     H_    0.228641 0.649907 0.838838 0.226919
H45   H     H_    0.280944 0.570313 0.821499 0.230618
H46   H     H_    0.223658 0.524211 0.747720 0.246914
O17   O     O_3   0.872788 0.214687 0.500125 -0.532300
C67   C     C_3   0.871892 0.152064 0.390033 -0.243375
H47   H     H_    0.908716 0.128494 0.366250 0.132641
H48   H     H_    0.854649 0.192450 0.322469 0.159061
H49   H     H_    0.850054 0.079567 0.392530 0.198025
O18   O     O_3   0.127528 0.767268 0.422591 -0.533772
C68   C     C_3   0.128711 0.848091 0.518802 -0.236582
H50   H     H_    0.146200 0.823083 0.596910 0.163900
H51   H     H_    0.091955 0.875864 0.537169 0.129993
H52   H     H_    0.150473 0.915329 0.498725 0.197520

loop_
_geom_bond_atom_site_label_1
_geom_bond_atom_site_label_2
_geom_bond_distance
_ccdc_geom_bond_type
C66   H46   1.109982 S    
N6    H23   1.029237 S    
C13   C15   1.389607 A    
C52   O14   1.396238 S    
N5    H19   1.029675 S    
N4    C53   1.353807 A    
Cu2   N4    2.023599 S    
C49   C50   1.414619 A    
N1    C17   1.436685 S    
C59   H22   1.109426 S    
C10   C18   1.408102 A    
C59   H20   1.107167 S    
C64   H36   1.109315 S    
C5    N1    1.365656 A    
C30   C34   1.417090 A    
C48   C50   1.389175 A    
O1    C1    1.296786 A    
N1    C7    1.367978 A    
C10   C12   1.409255 A    
C62   H30   1.113876 S    
C46   H13   1.083470 S    
C32   C39   1.414163 A    
C52   C54   1.417894 A    
C64   H37   1.112869 S    
C53   H18   1.082175 S    
C61   H27   1.113041 S    
C37   O17   1.383345 S    
C43   C50   1.398782 A    
C66   H45   1.111868 S    
C41   C46   1.403411 A    
C14   C28   1.403951 A    
O4    Cu1   1.958963 S    
C43   C45   1.389908 A    
C63   H33   1.109338 S    
O14   C62   1.412679 S    
C4    C28   1.478286 S    
C60   H24   1.105197 S    
C59   H21   1.110008 S    
C36   C38   1.395961 A    
C48   H11   1.082214 S    
C35   H7    1.076598 S    
C10   N7    1.424654 S    
C47   H12   1.085144 S    
C12   O15   1.383838 S    
C23   H5    1.083583 S    
C11   O16   1.383463 S    
C24   H6    1.083568 S    
C6    N2    1.365642 A    
C62   H32   1.109182 S    
C55   N6    1.420936 S    
N3    C54   1.353650 A    
N6    C60   1.449482 S    
Cu1   Cu2   2.693257 S    
C47   C49   1.388606 A    
O2    C2    1.301362 A    
C31   C40   1.414303 A    
C1    C42   1.451094 S    
O2    Cu2   1.961472 S    
C5    C21   1.400938 A    
C45   H14   1.083479 S    
C68   H51   1.112496 S    
C51   C58   1.425585 A    
C32   C34   1.421130 A    
C68   H50   1.114107 S    
C51   C53   1.402833 A    
C9    N8    1.424148 S    
C66   H44   1.110302 S    
C67   H47   1.112488 S    
C7    O12   1.349117 S    
O4    C2    1.291264 A    
C11   C27   1.411888 A    
C57   C58   1.415856 A    
C40   H10   1.076986 S    
C64   H38   1.112190 S    
C42   C47   1.397800 A    
C29   C35   1.412147 A    
C25   C38   1.409651 A    
C14   H2    1.081818 S    
C30   C36   1.411750 A    
C15   H3    1.082946 S    
C31   C33   1.420956 A    
C63   H35   1.112749 S    
C9    C17   1.410396 A    
O5    C3    1.300635 A    
O7    Cu2   1.945444 S    
N7    C65   1.445904 S    
C13   H1    1.083622 S    
C13   C27   1.399320 A    
C56   C58   1.432697 A    
C7    C25   1.412252 A    
O6    C4    1.305287 A    
C29   C32   1.421642 A    
C8    C26   1.411758 A    
C36   H8    1.076975 S    
C30   C31   1.421681 A    
C60   H25   1.109384 S    
C41   C48   1.395549 A    
C19   C25   1.413525 A    
C67   H49   1.109286 S    
O7    C3    1.296561 A    
O3    Cu2   1.958963 S    
O8    C4    1.299387 A    
C2    C41   1.452155 S    
N2    C8    1.367870 A    
C35   C37   1.395663 A    
N8    H43   1.030641 S    
C20   C26   1.413340 A    
O1    Cu1   1.961473 S    
N4    C55   1.377483 A    
O13   C61   1.410840 S    
N7    H39   1.030452 S    
C8    O11   1.349167 S    
C68   H52   1.109261 S    
C12   C28   1.419373 A    
C65   H40   1.110325 S    
N2    C18   1.436531 S    
C19   C34   1.422685 A    
C5    O9    1.350053 S    
N3    C56   1.374872 A    
C54   H17   1.078592 S    
O6    Cu2   1.954660 S    
C26   C37   1.409496 A    
C21   C23   1.395907 A    
C16   H4    1.082995 S    
C67   H48   1.114074 S    
O18   C68   1.410808 S    
O3    C1    1.295310 A    
O8    Cu1   1.945444 S    
C56   N5    1.420933 S    
C23   C39   1.386773 A    
O17   C67   1.410646 S    
N5    C59   1.450679 S    
Cu1   N3    2.023596 S    
C61   H29   1.109279 S    
C52   C57   1.428285 A    
C65   H42   1.109960 S    
C14   C16   1.390391 A    
C15   C17   1.399505 A    
O15   C63   1.412094 S    
C6    C22   1.401392 A    
C16   C18   1.397441 A    
C62   H31   1.111091 S    
C42   C45   1.402836 A    
C29   C33   1.417122 A    
C22   C24   1.396091 A    
C19   C21   1.409693 A    
C61   H28   1.114156 S    
C3    C27   1.463848 S    
C60   H26   1.109383 S    
C20   C22   1.409725 A    
C38   O18   1.383528 S    
C9    C11   1.409342 A    
C44   H16   1.083908 S    
C63   H34   1.112715 S    
C43   H15   1.083850 S    
C39   H9    1.076824 S    
O5    Cu1   1.954666 S    
C20   C33   1.422543 A    
C6    O10   1.349961 S    
C55   C57   1.438235 A    
C44   C49   1.398181 A    
N8    C66   1.445948 S    
C44   C46   1.389019 A    
C24   C40   1.387176 A    
O16   C64   1.411208 S    
C51   O13   1.381045 S    
C65   H41   1.111757 S    
