data_mof_unit_41298.cif
_audit_creation_date              2013-03-05T16:09:48-0500
_audit_creation_method            fapswitch 2.2
_symmetry_space_group_name_H-M    P1
_symmetry_Int_Tables_number       1
_space_group_crystal_system       triclinic
_cell_length_a                    12.747328
_cell_length_b                    13.906298
_cell_length_c                    15.871448
_cell_angle_alpha                 90.157052
_cell_angle_beta                  92.793991
_cell_angle_gamma                 98.226351
_cell_volume                      2781.10819237

loop_
_atom_site_label
_atom_site_type_symbol
_atom_site_description
_atom_site_fract_x
_atom_site_fract_y
_atom_site_fract_z
_atom_type_partial_charge
O1    O     O_R   0.399110 0.356330 0.494860 -0.572422
O2    O     O_R   0.600890 0.643670 0.505140 -0.570847
O3    O     O_R   0.575890 0.366540 0.503840 -0.556198
O4    O     O_R   0.424110 0.633460 0.496160 -0.562840
C1    C     C_R   0.483317 0.315884 0.499019 0.820887
C2    C     C_R   0.516686 0.684122 0.500976 0.820815
O5    O     O_R   0.411620 0.494890 0.374590 -0.572914
O6    O     O_R   0.588380 0.505110 0.625410 -0.573513
O7    O     O_R   0.588400 0.505100 0.383570 -0.568690
O8    O     O_R   0.411600 0.494900 0.616430 -0.560522
C3    C     C_R   0.500654 0.500061 0.339531 0.817571
C4    C     C_R   0.499343 0.499935 0.660467 0.818777
Cu1   Cu    Cu3+1 0.395330 0.493960 0.494680 1.013322
Cu2   Cu    Cu3+1 0.604670 0.506040 0.505320 1.012760
C5    C     C_3   0.462610 0.409482 0.971071 0.072627
C6    C     C_3   0.537309 0.590508 0.028914 0.072761
C7    C     C_3   0.563570 0.436528 0.029507 0.068977
C8    C     C_3   0.436352 0.563458 0.970473 0.067367
C9    C     C_1   0.501862 0.500233 0.249982 -0.169605
C10   C     C_1   0.498120 0.499755 0.750011 -0.165320
C11   C     C_3   0.399970 0.473150 0.024337 0.069068
C12   C     C_3   0.599955 0.526841 0.975649 0.068822
C13   C     C_3   0.500948 0.500201 0.082609 0.000899
C14   C     C_3   0.498978 0.499784 0.917377 0.000213
C15   C     C_1   0.501844 0.500292 0.174522 -0.080750
C16   C     C_1   0.498110 0.499690 0.825468 -0.079446
C17   C     C_1   0.526741 0.787308 0.502021 -0.186969
C18   C     C_1   0.473276 0.212709 0.497914 -0.183819
C19   C     C_2   0.544817 0.978899 0.504085 0.064549
C20   C     C_2   0.455214 0.021131 0.495689 0.067724
C21   C     C_1   0.464301 0.125719 0.496846 -0.031643
C22   C     C_1   0.535732 0.874305 0.503019 -0.031057
N1    N     N_1   0.238040 0.484880 0.486690 -0.146525
N2    N     N_1   0.761960 0.515120 0.513310 -0.146681
C23   C     C_2   0.027594 0.465234 0.483702 0.106873
C24   C     C_2   0.972149 0.529131 0.523463 0.106700
C25   C     C_1   0.854586 0.520189 0.516917 0.278832
C26   C     C_1   0.145311 0.477906 0.485487 0.277361
C27   C     C_3   0.631834 0.367651 0.074216 -0.381648
C28   C     C_3   0.692100 0.312624 0.013175 -0.372494
C29   C     C_3   0.750742 0.239051 0.060032 -0.825516
H1    H     H_    0.808657 0.276438 0.108276 0.267748
H2    H     H_    0.693592 0.184307 0.091253 0.253207
H3    H     H_    0.794490 0.200898 0.014647 0.240650
H4    H     H_    0.636582 0.273469 0.964542 0.223065
H5    H     H_    0.751260 0.364082 0.981002 0.226538
H6    H     H_    0.689271 0.410352 0.119731 0.199268
H7    H     H_    0.579487 0.315308 0.111746 0.195361
C30   C     C_3   0.368099 0.632307 0.925705 -0.378321
C31   C     C_3   0.307738 0.687322 0.986679 -0.375235
C32   C     C_3   0.249157 0.760893 0.939761 -0.821917
H8    H     H_    0.306357 0.815654 0.908605 0.253256
H9    H     H_    0.191331 0.723509 0.891453 0.270039
H10   H     H_    0.205317 0.799025 0.985093 0.239335
H11   H     H_    0.248524 0.635853 0.018789 0.226355
H12   H     H_    0.363191 0.726476 0.035357 0.222821
H13   H     H_    0.420466 0.684654 0.888195 0.195593
H14   H     H_    0.310720 0.589589 0.880158 0.203339
C33   C     C_3   0.421366 0.311977 0.927020 -0.389688
C34   C     C_3   0.392462 0.228984 0.988852 -0.362709
C35   C     C_3   0.342530 0.136416 0.942067 -0.841542
H15   H     H_    0.268035 0.148496 0.907007 0.254926
H16   H     H_    0.398539 0.113513 0.897086 0.254479
H17   H     H_    0.323439 0.077191 0.988040 0.243953
H18   H     H_    0.464513 0.213283 0.024978 0.225199
H19   H     H_    0.335522 0.248931 0.034105 0.223857
H20   H     H_    0.350897 0.321528 0.885667 0.198145
H21   H     H_    0.482868 0.292790 0.885352 0.190497
C36   C     C_3   0.578471 0.688017 0.072991 -0.390170
C37   C     C_3   0.607487 0.771015 0.011188 -0.361947
C38   C     C_3   0.657089 0.863646 0.058035 -0.842539
H22   H     H_    0.600823 0.886494 0.102821 0.254266
H23   H     H_    0.731471 0.851676 0.093319 0.254501
H24   H     H_    0.676307 0.922865 0.012077 0.244252
H25   H     H_    0.664672 0.751141 0.966116 0.223854
H26   H     H_    0.535529 0.786600 0.974868 0.225192
H27   H     H_    0.516881 0.707192 0.114576 0.190352
H28   H     H_    0.648869 0.678482 0.114432 0.196925
C39   C     C_3   0.707919 0.555028 0.936590 -0.383580
C40   C     C_3   0.799463 0.582613 0.002476 -0.370044
C41   C     C_3   0.906166 0.597745 0.961173 -0.824744
H29   H     H_    0.920461 0.529513 0.929979 0.255929
H30   H     H_    0.907913 0.656394 0.913662 0.264353
H31   H     H_    0.970893 0.618885 0.009941 0.241087
H32   H     H_    0.789521 0.650931 0.035269 0.226032
H33   H     H_    0.801061 0.524860 0.050223 0.226442
H34   H     H_    0.724045 0.493107 0.897331 0.198942
H35   H     H_    0.702745 0.616913 0.893293 0.195110
C42   C     C_3   0.291997 0.445010 0.063392 -0.384552
C43   C     C_3   0.200478 0.417305 0.997506 -0.367480
C44   C     C_3   0.093709 0.402783 0.038718 -0.824692
H36   H     H_    0.091714 0.344483 0.086575 0.265044
H37   H     H_    0.079584 0.471322 0.069485 0.254560
H38   H     H_    0.029009 0.381451 0.989970 0.241994
H39   H     H_    0.199156 0.474777 0.949468 0.227888
H40   H     H_    0.210219 0.348708 0.965067 0.226380
H41   H     H_    0.297155 0.383194 0.106769 0.195690
H42   H     H_    0.275863 0.506996 0.102567 0.198884
C45   C     C_3   0.345635 0.960178 0.486309 -0.386566
C46   C     C_3   0.253302 0.019748 0.474391 -0.350098
C47   C     C_3   0.146881 0.953711 0.464680 -0.790529
H43   H     H_    0.145502 0.904663 0.409153 0.254246
H44   H     H_    0.132572 0.909407 0.522227 0.275927
H45   H     H_    0.082093 0.998707 0.455181 0.244389
H46   H     H_    0.251890 0.068344 0.529951 0.231715
H47   H     H_    0.263951 0.065081 0.416993 0.231493
H48   H     H_    0.343943 0.910827 0.430828 0.203088
H49   H     H_    0.333137 0.914769 0.543525 0.213650
C48   C     C_3   0.654378 0.039891 0.513473 -0.380909
C49   C     C_3   0.746789 0.980380 0.525117 -0.354455
C50   C     C_3   0.853165 0.046503 0.534750 -0.775278
H50   H     H_    0.867281 0.090927 0.477247 0.278126
H51   H     H_    0.854622 0.095452 0.590353 0.257951
H52   H     H_    0.918033 0.001566 0.544066 0.242066
H53   H     H_    0.736330 0.934929 0.582460 0.232167
H54   H     H_    0.748104 0.931905 0.469462 0.231642
H55   H     H_    0.666760 0.085479 0.456350 0.216408
H56   H     H_    0.656118 0.089077 0.569070 0.205812
N3    N     N_R   0.027146 0.610505 0.572252 0.108449
O9    O     O_R   0.980130 0.685967 0.585288 -0.368256
O10   O     O_R   0.117493 0.605195 0.612563 -0.370713
N4    N     N_R   0.972557 0.382384 0.436797 0.108640
O11   O     O_R   0.020912 0.342048 0.378777 -0.366202
O12   O     O_R   0.880686 0.339069 0.458702 -0.376398

loop_
_geom_bond_atom_site_label_1
_geom_bond_atom_site_label_2
_geom_bond_distance
_ccdc_geom_bond_type
C47   H43   1.110848 S    
C8    C11   1.549510 S    
C29   H1    1.111085 S    
C36   H27   1.110224 S    
C50   H50   1.110973 S    
C40   H32   1.108044 S    
C39   H34   1.110027 S    
C41   H29   1.111008 S    
C48   H55   1.112327 S    
C43   H39   1.107382 S    
C11   C42   1.536919 S    
C28   H5    1.107528 S    
C45   H49   1.112306 S    
C3    C9    1.422103 S    
C46   H46   1.111929 S    
C7    C13   1.547695 S    
O1    C1    1.280236 A    
C19   C48   1.527133 S    
C24   C25   1.484435 S    
C14   C16   1.458230 S    
C12   C39   1.536934 S    
C19   C22   1.442492 S    
C23   N4    1.444605 S    
C20   C21   1.442408 S    
N2    C25   1.171297 T    
C30   H13   1.109958 S    
C7    C27   1.536305 S    
O4    Cu1   1.921903 S    
C35   H16   1.111020 S    
C24   N3    1.444608 S    
C49   C50   1.526395 S    
C40   H33   1.107347 S    
C33   H20   1.110177 S    
C45   C46   1.538037 S    
O6    Cu2   1.927198 S    
C37   C38   1.525720 S    
C34   H19   1.107680 S    
C33   C34   1.533170 S    
C47   H44   1.110963 S    
Cu1   Cu2   2.646771 S    
C29   H2    1.111032 S    
C36   H28   1.110165 S    
O2    C2    1.280244 A    
O2    Cu2   1.921418 S    
C39   H35   1.110068 S    
C41   H30   1.110914 S    
C48   H56   1.112402 S    
N3    O10   1.301512 A    
C28   H4    1.107837 S    
C32   H8    1.111036 S    
C23   C26   1.484499 S    
O4    C2    1.283666 A    
C44   H36   1.110959 S    
C38   H23   1.110969 S    
C20   C45   1.527089 S    
C31   H12   1.107853 S    
C30   H14   1.110053 S    
C42   H41   1.110079 S    
C34   C35   1.525715 S    
C32   H9    1.111097 S    
C23   C24   1.381108 D    
C35   H17   1.110493 S    
O5    C3    1.281141 A    
O7    Cu2   1.933175 S    
Cu1   N1    1.988678 S    
C19   C20   1.358251 D    
C33   H21   1.110222 S    
C44   H37   1.111063 S    
C1    C18   1.422110 S    
C2    C17   1.422253 S    
C5    C11   1.549274 S    
O6    C4    1.281152 A    
C4    C10   1.422045 S    
C31   C32   1.525613 S    
C50   H51   1.110855 S    
O7    C3    1.282833 A    
O3    Cu2   1.921903 S    
O8    C4    1.282789 A    
C28   C29   1.525609 S    
C34   H18   1.107587 S    
C6    C13   1.547921 S    
C11   C13   1.548306 S    
C37   H26   1.107564 S    
C29   H3    1.110448 S    
C8    C14   1.547673 S    
O1    Cu1   1.921415 S    
N4    O12   1.301596 A    
C49   H54   1.111926 S    
C27   C28   1.533309 S    
C41   H31   1.110577 S    
C27   H6    1.110046 S    
C5    C7    1.549562 S    
C5    C14   1.547873 S    
C6    C12   1.549298 S    
C17   C22   1.198773 T    
C5    C33   1.535823 S    
C18   C21   1.198693 T    
C6    C36   1.535850 S    
C31   H11   1.107546 S    
C40   C41   1.526391 S    
O3    C1    1.283603 A    
O8    Cu1   1.933177 S    
Cu2   N2    1.988676 S    
C38   H24   1.110501 S    
N3    O9    1.301582 A    
C43   H40   1.108110 S    
C47   H45   1.110223 S    
C45   H48   1.112398 S    
C46   H47   1.111956 S    
C7    C12   1.549507 S    
C42   H42   1.110035 S    
C32   H10   1.110446 S    
C42   C43   1.534005 S    
C38   H22   1.111007 S    
C48   C49   1.537943 S    
C44   H38   1.110561 S    
C43   C44   1.526385 S    
C10   C16   1.197613 T    
C46   C47   1.526351 S    
C50   H52   1.110220 S    
C12   C14   1.548303 S    
C13   C15   1.458276 S    
C35   H15   1.110983 S    
C9    C15   1.197646 T    
C36   C37   1.533146 S    
C39   C40   1.533995 S    
O5    Cu1   1.927197 S    
C6    C8    1.549576 S    
C30   C31   1.533257 S    
C37   H25   1.107662 S    
N1    C26   1.171319 T    
N4    O11   1.301553 A    
C49   H53   1.111952 S    
C8    C30   1.536350 S    
C27   H7    1.109970 S    
