data_mof_unit_5709.cif
_audit_creation_date              2012-12-10T16:43:23-0500
_audit_creation_method            fapswitch 2.2
_symmetry_space_group_name_H-M    P1
_symmetry_Int_Tables_number       1
_space_group_crystal_system       triclinic
_cell_length_a                    10.734008
_cell_length_b                    8.678494
_cell_length_c                    7.460965
_cell_angle_alpha                 102.89724
_cell_angle_beta                  94.136502
_cell_angle_gamma                 92.350702
_cell_volume                      674.560298229

loop_
_atom_site_label
_atom_site_type_symbol
_atom_type_description
_atom_site_fract_x
_atom_site_fract_y
_atom_site_fract_z
_atom_type_partial_charge
C1    C     C_R   0.496184 0.199806 0.453349 0.861970
C2    C     C_R   0.072885 0.651660 0.558917 0.091599
C3    C     C_R   0.129841 0.506785 0.507524 -0.169477
C4    C     C_R   0.059310 0.363887 0.448186 -0.200805
C5    C     C_R   0.930214 0.359576 0.441158 0.397873
C6    C     C_R   0.870886 0.503513 0.493761 -0.186876
C7    C     C_2   0.494622 0.031891 0.427134 -0.356360
C8    C     C_2   0.506154 0.968129 0.572866 -0.380104
C9    C     C_R   0.262983 0.501131 0.502565 0.801559
C10   C     C_R   0.504187 0.800201 0.546634 0.854946
C11   C     C_R   0.737055 0.500224 0.497611 0.772106
C12   C     C_R   0.143824 0.797685 0.614548 -0.149173
C13   C     C_R   0.084903 0.939692 0.661516 -0.133222
C14   C     C_R   0.954965 0.938760 0.654238 -0.074842
C15   C     C_R   0.883331 0.795853 0.599857 -0.138632
C16   C     C_R   0.941207 0.650273 0.551445 0.044196
Cu1   Cu    Cu3+1 0.513920 0.517380 0.684380 0.957222
Cu2   Cu    Cu3+1 0.486080 0.482620 0.315620 0.960699
H1    H     H_    0.105378 0.253983 0.407448 0.158758
H2    H     H_    0.597646 0.622070 0.051146 0.231868
H3    H     H_    0.244887 0.803330 0.621577 0.129934
H4    H     H_    0.140242 0.050830 0.703271 0.134530
H5    H     H_    0.909442 0.049196 0.690402 0.162984
H6    H     H_    0.782652 0.800818 0.594733 0.127053
H7    H     H_    0.483936 0.960390 0.286659 0.184384
H8    H     H_    0.516853 0.039610 0.713348 0.183752
H9    H     H_    0.402356 0.377927 0.948853 0.225619
N1    N     N_2   0.465100 0.456430 0.038520 -0.213479
N2    N     N_2   0.534900 0.543570 0.961480 -0.211483
O1    O     O_R   0.509050 0.286130 0.619770 -0.583569
O2    O     O_R   0.485540 0.256780 0.308360 -0.586407
O3    O     O_R   0.331410 0.514680 0.655740 -0.586754
O4    O     O_R   0.307900 0.485330 0.344330 -0.570770
O5    O     O_R   0.514460 0.743220 0.691640 -0.588288
O6    O     O_R   0.490950 0.713870 0.380230 -0.580304
O7    O     O_R   0.692100 0.514670 0.655670 -0.570581
O8    O     O_R   0.668590 0.485320 0.344260 -0.581044
O9    O     O_3   0.867252 0.212328 0.384205 -0.737826
H10   H     H_    0.776000 0.221750 0.387235 0.318945

loop_
_geom_bond_atom_site_label_1
_geom_bond_atom_site_label_2
_ccdc_geom_bond_type
C14   H5    S    
C10   O6    A    
C3    C9    S    
Cu1   O7    S    
C13   C14   A    
C2    C16   A    
Cu2   O6    S    
C7    H7    S    
C2    C12   A    
C2    C3    A    
Cu2   N1    S    
C7    C8    D    
C10   O5    A    
C5    O9    S    
C9    O4    A    
Cu1   O1    S    
N1    N2    D    
O9    H10   S    
C15   H6    S    
Cu2   O8    S    
C13   H4    S    
Cu1   Cu2   S    
H2    N2    S    
C5    C6    A    
Cu2   O4    S    
Cu1   O5    S    
C6    C16   A    
C3    C4    A    
Cu1   N2    S    
C1    O2    A    
C8    H8    S    
C12   C13   A    
C8    C10   S    
C6    C11   S    
C11   O8    A    
Cu1   O3    S    
C14   C15   A    
C1    O1    A    
Cu2   O2    S    
C9    O3    A    
C1    C7    S    
C4    H1    S    
C12   H3    S    
C15   C16   A    
C4    C5    A    
H9    N1    S    
C11   O7    A    
