data_mof_unit_14186.cif
_audit_creation_date              2013-03-05T15:55:18-0500
_audit_creation_method            fapswitch 2.2
_symmetry_space_group_name_H-M    P1
_symmetry_Int_Tables_number       1
_space_group_crystal_system       triclinic
_cell_length_a                    27.243837
_cell_length_b                    10.672935
_cell_length_c                    9.970711
_cell_angle_alpha                 91.194998
_cell_angle_beta                  88.461683
_cell_angle_gamma                 93.432785
_cell_volume                      2892.41739193

loop_
_atom_site_label
_atom_site_type_symbol
_atom_site_description
_atom_site_fract_x
_atom_site_fract_y
_atom_site_fract_z
_atom_type_partial_charge
O1    O     O_R   0.500000 0.316780 0.614690 -0.637915
O2    O     O_R   0.500000 0.316750 0.385360 -0.587089
C1    C     C_R   0.505178 0.261942 0.498576 0.918892
O3    O     O_R   0.428760 0.500030 0.614650 -0.623987
O4    O     O_R   0.428750 0.500010 0.385320 -0.590111
C2    C     C_R   0.405929 0.496506 0.501657 0.964369
Zn1   Zn    Zn3+2 0.500000 0.500020 0.653130 0.960257
Zn2   Zn    Zn3+2 0.500000 0.499980 0.346870 1.024633
O5    O     O_R   0.500000 0.683250 0.614640 -0.626959
O6    O     O_R   0.500000 0.683220 0.385310 -0.594248
O7    O     O_R   0.571250 0.499990 0.614680 -0.628641
O8    O     O_R   0.571240 0.499970 0.385350 -0.570779
C3    C     C_R   0.503989 0.739973 0.501093 0.885596
C4    C     C_R   0.594011 0.498015 0.498239 0.914674
C5    C     C_R   0.171247 0.415638 0.611231 0.572805
O9    O     O_2   0.193836 0.431872 0.729742 -0.526419
N1    N     N_R   0.198117 0.425588 0.493805 -0.341906
C6    C     C_R   0.176497 0.412448 0.371832 0.553481
C7    C     C_R   0.273561 0.559445 0.467763 -0.109973
C8    C     C_R   0.324517 0.576450 0.469803 -0.250819
C9    C     C_R   0.329649 0.359126 0.536490 0.192470
C10   C     C_R   0.278337 0.341808 0.532021 0.299765
C11   C     C_R   0.250452 0.442719 0.498794 0.179979
C12   C     C_R   0.097232 0.373837 0.484386 -0.052877
C13   C     C_R   0.120456 0.387193 0.608802 -0.025324
C14   C     C_R   0.092661 0.371998 0.727687 -0.118338
C15   C     C_R   0.125567 0.387385 0.364768 -0.027564
C16   C     C_R   0.352624 0.477409 0.504971 -0.144839
C17   C     C_R   0.645170 0.466181 0.492651 -0.131491
C18   C     C_R   0.966411 0.303714 0.595309 -0.001120
C19   C     C_R   0.970127 0.337738 0.351558 0.054929
C20   C     C_R   0.942445 0.317499 0.472902 0.082844
C21   C     C_R   0.937873 0.266797 0.709252 -0.248548
C22   C     C_R   0.886731 0.260396 0.709071 0.345689
C23   C     C_R   0.862268 0.292907 0.592513 -0.103534
C24   C     C_R   0.890378 0.316163 0.472934 -0.087505
C25   C     C_R   0.866560 0.343011 0.354028 -0.019020
C26   C     C_R   0.816127 0.359850 0.358885 0.560129
N2    N     N_R   0.790259 0.347978 0.477346 -0.350941
C27   C     C_R   0.811198 0.308324 0.590796 0.609406
C28   C     C_R   0.703718 0.314911 0.422557 -0.094621
C29   C     C_R   0.656162 0.354438 0.425261 -0.248016
C30   C     C_R   0.682276 0.540133 0.557035 0.211068
C31   C     C_R   0.730698 0.501654 0.551352 0.298080
C32   C     C_R   0.741029 0.387719 0.485240 0.164401
O10   O     O_2   0.782592 0.289280 0.701643 -0.460431
C33   C     C_R   0.017919 0.329383 0.600698 0.070516
C34   C     C_R   0.045664 0.348533 0.479654 0.079811
C35   C     C_R   0.022250 0.344944 0.354091 0.048576
C36   C     C_R   0.042374 0.343001 0.723985 -0.200328
H1    H     H_    0.627525 0.296305 0.376914 0.169014
H2    H     H_    0.711761 0.227822 0.371160 0.184317
O11   O     O_2   0.204319 0.422482 0.258051 -0.533008
C37   C     C_R   0.102675 0.373894 0.241203 -0.115027
H3    H     H_    0.342099 0.666858 0.444147 0.176883
H4    H     H_    0.251914 0.636621 0.441121 0.179367
C38   C     C_R   0.944595 0.356080 0.232718 -0.196723
C39   C     C_R   0.893824 0.359673 0.234482 -0.077699
O12   O     O_2   0.793318 0.392462 0.247336 -0.499125
C40   C     C_R   0.051960 0.353109 0.235662 -0.203173
H5    H     H_    0.962865 0.375068 0.137532 0.146181
H6    H     H_    0.037200 0.342269 0.136636 0.139495
H7    H     H_    0.483251 0.102568 0.298832 0.214753
C41   C     C_R   0.569393 0.146466 0.690995 -0.171245
H8    H     H_    0.575067 0.247235 0.685543 0.169791
C42   C     C_R   0.594011 0.087850 0.790549 -0.107413
H9    H     H_    0.615881 0.143533 0.861549 0.169979
C43   C     C_R   0.591707 0.957762 0.796348 -0.079366
H10   H     H_    0.611710 0.912274 0.872108 0.187839
C44   C     C_R   0.565141 0.885673 0.701902 -0.133323
H11   H     H_    0.567509 0.785633 0.706723 0.183744
C45   C     C_R   0.538791 0.943005 0.601578 0.101774
C46   C     C_R   0.540570 0.075200 0.597292 0.089723
C47   C     C_R   0.515148 0.131456 0.494594 -0.124208
C48   C     C_R   0.497370 0.060638 0.385919 -0.140080
H12   H     H_    0.476596 0.881789 0.309026 0.184838
C49   C     C_R   0.494443 0.933403 0.390858 -0.164787
C50   C     C_R   0.512095 0.873877 0.501223 -0.103941
C51   C     C_R   0.415433 0.391146 0.133328 0.315775
C52   C     C_R   0.372762 0.374526 0.058525 -0.169827
H13   H     H_    0.337984 0.344394 0.106557 0.211206
C53   C     C_R   0.377224 0.358717 0.921020 -0.180836
C54   C     C_R   0.423034 0.378933 0.859321 -0.094651
H14   H     H_    0.428240 0.345234 0.759144 0.235785
C55   C     C_R   0.461676 0.440274 0.928072 0.098379
C56   C     C_R   0.460207 0.442190 0.071981 0.032862
N3    N     N_R   0.499540 0.498800 0.142780 -0.139300
C57   C     C_R   0.536481 0.560905 0.068874 0.308216
H15   H     H_    0.566025 0.609592 0.871558 0.183702
C58   C     C_R   0.536472 0.559709 0.926570 -0.137505
N4    N     N_R   0.499520 0.498720 0.857170 -0.136259
Br1   Br    Br    0.367391 0.218550 0.578787 -0.447686
H16   H     H_    0.123831 0.380704 0.147775 0.195219
Br2   Br    Br    0.667391 0.694873 0.647299 -0.438074
H17   H     H_    0.876124 0.379447 0.141877 0.219190
Br3   Br    Br    0.783238 0.605993 0.628569 -0.341982
Br4   Br    Br    0.245822 0.179477 0.565137 -0.380074
Br5   Br    Br    0.587413 0.662586 0.152933 -0.433860
Br6   Br    Br    0.412013 0.257764 0.256287 -0.471853
H18   H     H_    0.346112 0.321648 0.864274 0.214612
H19   H     H_    0.109645 0.382831 0.824613 0.188379
Br7   Br    Br    0.854621 0.207991 0.874939 -0.376685
H20   H     H_    0.954625 0.240630 0.800559 0.167691
H21   H     H_    0.023250 0.337259 0.819963 0.139963

loop_
_geom_bond_atom_site_label_1
_geom_bond_atom_site_label_2
_geom_bond_distance
_ccdc_geom_bond_type
C7    H4    1.082854 S    
C42   C43   1.388424 A    
N3    C57   1.376928 A    
C36   H21   1.078352 S    
C17   C29   1.400732 A    
C28   C29   1.385798 A    
C7    C8    1.389870 A    
C12   C15   1.408442 A    
C39   H17   1.083439 S    
C55   N4    1.361660 A    
C15   C37   1.396667 A    
C37   C40   1.388566 A    
C49   C50   1.392829 A    
Zn1   O7    1.968514 S    
N1    C11   1.428659 S    
C35   C40   1.414799 A    
C20   C24   1.417700 A    
C51   Br6   1.894487 S    
C24   C25   1.409437 A    
C14   C36   1.387651 A    
C14   H19   1.083687 S    
C26   N2    1.363336 A    
O7    C4    1.301840 A    
C5    C13   1.399540 A    
C5    O9    1.350092 S    
C30   Br2   1.923707 S    
C40   H6    1.077477 S    
C22   C23   1.414676 A    
C46   C47   1.415004 A    
C1    C47   1.434326 S    
O5    C3    1.293898 A    
C37   H16   1.083629 S    
C45   C50   1.420764 A    
C6    O11   1.349900 S    
C2    C16   1.453900 S    
C33   C34   1.418634 A    
C43   H10   1.082770 S    
C41   C46   1.416429 A    
C44   H11   1.075663 S    
C28   H2    1.083087 S    
C25   C39   1.396277 A    
C29   H1    1.084326 S    
N2    C32   1.430402 S    
C42   H9    1.082611 S    
C10   Br4   1.928677 S    
O1    Zn1   1.985052 S    
C9    C10   1.400874 A    
C17   C30   1.405414 A    
C19   C35   1.418365 A    
C8    H3    1.083654 S    
N1    C6    1.366419 A    
C33   C36   1.414566 A    
C38   C39   1.385655 A    
C47   C48   1.389307 A    
C12   C34   1.416520 A    
C18   C33   1.415795 A    
C12   C13   1.408362 A    
C52   C53   1.380867 A    
N2    C27   1.366611 A    
C56   N3    1.398912 A    
C52   H13   1.084488 S    
C8    C16   1.397679 A    
O3    Zn1   1.988499 S    
C13   C14   1.396387 A    
C55   C56   1.434110 A    
C51   C52   1.398393 A    
O1    C1    1.294477 A    
C23   C24   1.417803 A    
C41   C42   1.392272 A    
C7    C11   1.398506 A    
C30   C31   1.404290 A    
C25   C26   1.395756 A    
C31   Br3   1.927248 S    
C54   H14   1.063331 S    
Zn2   O8    1.988495 S    
Zn1   N4    2.034445 S    
C21   C22   1.390915 A    
C22   Br7   1.927578 S    
H12   C49   1.084472 S    
C48   C49   1.357382 A    
O3    C2    1.300241 A    
C34   C35   1.419049 A    
C54   C55   1.394389 A    
C9    C16   1.412676 A    
C57   C58   1.418664 A    
C27   O10   1.346990 S    
C4    C17   1.453569 S    
C31   C32   1.410685 A    
C5    N1    1.366689 A    
C3    C50   1.432965 S    
C18   C21   1.408905 A    
C21   H20   1.078557 S    
C53   H18   1.082296 S    
C19   C20   1.421854 A    
O2    Zn2   2.000740 S    
C6    C15   1.400636 A    
O8    C4    1.300870 A    
C45   C46   1.410335 A    
O6    C3    1.296584 A    
O4    Zn2   1.968517 S    
C38   H5    1.077090 S    
Zn2   N3    2.035069 S    
C41   H8    1.079646 S    
C19   C38   1.412960 A    
O2    C1    1.297049 A    
C18   C20   1.413991 A    
C58   N4    1.362413 A    
O4    C2    1.301455 A    
H7    C48   1.075622 S    
C23   C27   1.411395 A    
C26   O12   1.350366 S    
Zn1   O5    2.000742 S    
Zn2   O6    1.985052 S    
C53   C54   1.383714 A    
C43   C44   1.393643 A    
C28   C32   1.395346 A    
C10   C11   1.404708 A    
C44   C45   1.416708 A    
H15   C58   1.081515 S    
C51   C56   1.432870 A    
C57   Br5   1.910433 S    
C9    Br1   1.928894 S    
