data_mof_unit_64241.cif
_audit_creation_date              2012-12-10T17:29:28-0500
_audit_creation_method            fapswitch 2.2
_symmetry_space_group_name_H-M    P1
_symmetry_Int_Tables_number       1
_space_group_crystal_system       triclinic
_cell_length_a                    21.550719
_cell_length_b                    21.606506
_cell_length_c                    22.201429
_cell_angle_alpha                 119.560328
_cell_angle_beta                  119.484409
_cell_angle_gamma                 89.362669
_cell_volume                      7452.14233681

loop_
_atom_site_label
_atom_site_type_symbol
_atom_type_description
_atom_site_fract_x
_atom_site_fract_y
_atom_site_fract_z
_atom_type_partial_charge
C1    C     C_R   0.500452 0.121059 0.501940 0.876686
C2    C     C_R   0.499373 0.878703 0.497696 0.858198
C3    C     C_3   0.708793 0.212008 0.916963 0.135387
C4    C     C_3   0.291606 0.787455 0.082947 0.110968
C5    C     C_3   0.707393 0.270834 0.049029 -0.427326
C6    C     C_3   0.293092 0.716846 0.950900 -0.370262
C7    C     C_3   0.791573 0.292598 0.082862 0.204872
C8    C     C_3   0.208950 0.706758 0.917285 0.190754
C9    C     C_3   0.812006 0.219661 0.047819 -0.385696
C10   C     C_3   0.197679 0.784985 0.952849 -0.401450
C11   C     C_3   0.763564 0.172243 0.950938 -0.451906
C12   C     C_3   0.245569 0.832111 0.049837 -0.401987
C13   C     C_1   0.837762 0.337720 0.175064 -0.056775
C14   C     C_1   0.162611 0.661893 0.825024 -0.059764
C15   C     C_1   0.662910 0.164899 0.824744 0.037959
C16   C     C_1   0.337048 0.834433 0.175262 0.023555
C17   C     C_1   0.624985 0.126252 0.749392 -0.029895
C18   C     C_1   0.374781 0.873185 0.250604 -0.007685
C19   C     C_3   0.440765 0.227508 0.518593 0.241954
C20   C     C_3   0.546517 0.764053 0.463747 0.324132
C21   C     C_3   0.449875 0.303120 0.527380 -0.431611
C22   C     C_3   0.551144 0.697934 0.474154 -0.423753
C23   C     C_R   0.579922 0.080688 0.659759 0.874035
C24   C     C_R   0.419988 0.919410 0.340251 0.933924
C25   C     C_3   0.578575 0.248768 0.569492 -0.437737
C26   C     C_3   0.419081 0.757504 0.442821 -0.407712
C27   C     C_3   0.480724 0.171557 0.415482 0.170674
C28   C     C_3   0.535058 0.831319 0.589458 0.214571
C29   C     C_3   0.499029 0.190071 0.501617 -0.069686
C30   C     C_3   0.500845 0.809596 0.497957 -0.115651
C31   C     C_3   0.501170 0.311241 0.500214 0.011750
C32   C     C_3   0.499108 0.689200 0.500541 0.004727
C33   C     C_3   0.581131 0.316426 0.562868 -0.399885
C34   C     C_3   0.418913 0.684229 0.438921 -0.369349
C35   C     C_3   0.470842 0.240766 0.411872 -0.407249
C36   C     C_3   0.528563 0.759642 0.588703 -0.379800
C37   C     C_3   0.697046 0.547537 0.469540 -0.453596
C38   C     C_3   0.303396 0.453174 0.531373 -0.451511
C39   C     C_3   0.831204 0.529334 0.586835 -0.399949
C40   C     C_3   0.168720 0.470110 0.413044 -0.400681
C41   C     C_3   0.760933 0.532502 0.589176 -0.358578
C42   C     C_3   0.238959 0.466678 0.410649 -0.359479
C43   C     C_3   0.689335 0.498851 0.499899 0.089309
C44   C     C_3   0.310638 0.501170 0.500090 0.090067
C45   C     C_3   0.755329 0.418413 0.437223 -0.411750
C46   C     C_3   0.244409 0.581607 0.562371 -0.411483
C47   C     C_3   0.683990 0.417633 0.438416 0.120202
C48   C     C_3   0.315547 0.582505 0.560815 0.119200
C49   C     C_R   0.879100 0.499256 0.497925 0.762672
C50   C     C_R   0.120901 0.500743 0.502092 0.761978
C51   C     C_R   0.920353 0.420066 0.340227 0.815143
C52   C     C_R   0.079702 0.579927 0.659796 0.814951
C53   C     C_R   0.379499 0.500679 0.499798 0.796500
C54   C     C_R   0.620493 0.499359 0.500202 0.797852
C55   C     C_R   0.501771 0.379753 0.499953 0.826842
C56   C     C_R   0.498355 0.620349 0.500211 0.818796
C57   C     C_3   0.809972 0.499219 0.497720 0.110526
C58   C     C_3   0.190015 0.500750 0.502298 0.112757
C59   C     C_3   0.768835 0.549092 0.469965 -0.346264
C60   C     C_3   0.231470 0.451354 0.530674 -0.348797
C61   C     C_3   0.658472 0.229881 0.952336 0.132572
C62   C     C_3   0.342405 0.765025 0.048910 0.137207
C63   C     C_3   0.761125 0.288415 0.953256 0.231546
C64   C     C_3   0.233240 0.715267 0.046667 0.236785
C65   C     C_3   0.804448 0.337467 0.050578 -0.407915
C66   C     C_3   0.186782 0.667252 0.949288 -0.403962
C67   C     C_1   0.875499 0.375124 0.250475 -0.169971
C68   C     C_1   0.124728 0.624757 0.749591 -0.167650
Cu1   Cu    Cu3+1 0.437520 1.000000 0.500030 1.092763
Cu2   Cu    Cu3+1 0.562480 1.000000 0.499970 1.073333
Cu3   Cu    Cu3+1 0.000200 0.562470 0.499990 0.959556
Cu4   Cu    Cu3+1 0.999800 0.437530 0.500010 0.956363
Cu5   Cu    Cu3+1 0.458730 0.458690 0.417370 0.968369
Cu6   Cu    Cu3+1 0.541270 0.541310 0.582630 0.963118
H1    H     H_    0.647531 0.525003 0.405259 0.182549
H2    H     H_    0.352882 0.476411 0.595874 0.184013
H3    H     H_    0.865271 0.357252 0.078229 0.160451
H4    H     H_    0.126103 0.657779 0.924298 0.155616
H5    H     H_    0.734670 0.115370 0.926501 0.197828
H6    H     H_    0.283004 0.885646 0.075355 0.236389
H7    H     H_    0.801346 0.163762 0.928806 0.175410
H8    H     H_    0.207883 0.847578 0.072031 0.177721
H9    H     H_    0.803096 0.186443 0.069988 0.181095
H10   H     H_    0.213195 0.814677 0.930848 0.181284
H11   H     H_    0.696752 0.235358 0.068011 0.183687
H12   H     H_    0.308479 0.740073 0.923716 0.176254
H13   H     H_    0.872332 0.233274 0.071254 0.177680
H14   H     H_    0.137546 0.778910 0.929280 0.181508
H15   H     H_    0.383750 0.190626 0.462517 0.141362
H16   H     H_    0.604365 0.801218 0.501357 0.165975
H17   H     H_    0.393777 0.306391 0.488653 0.130734
H18   H     H_    0.609867 0.708025 0.522443 0.164315
H19   H     H_    0.739296 0.395736 0.372616 0.135745
H20   H     H_    0.260719 0.604495 0.627114 0.135019
H21   H     H_    0.475069 0.351166 0.592959 0.234317
H22   H     H_    0.536550 0.644688 0.415772 0.217090
H23   H     H_    0.594769 0.268237 0.633157 0.254363
H24   H     H_    0.388942 0.745089 0.378757 0.251924
H25   H     H_    0.606067 0.368683 0.625982 0.212524
H26   H     H_    0.397236 0.636564 0.374120 0.238803
H27   H     H_    0.530516 0.160679 0.413405 0.114411
H28   H     H_    0.501327 0.862442 0.611738 0.111126
H29   H     H_    0.410783 0.233186 0.369980 0.228298
H30   H     H_    0.583404 0.761405 0.635825 0.240010
H31   H     H_    0.500646 0.248436 0.385838 0.169593
H32   H     H_    0.489784 0.756156 0.606978 0.152893
H33   H     H_    0.621721 0.223783 0.561862 0.184580
H34   H     H_    0.387081 0.785882 0.469598 0.174956
H35   H     H_    0.618079 0.317940 0.541753 0.177432
H36   H     H_    0.380212 0.673725 0.454654 0.166818
H37   H     H_    0.699133 0.605562 0.510766 0.178322
H38   H     H_    0.301776 0.395154 0.490815 0.172207
H39   H     H_    0.635187 0.397732 0.374462 0.153775
H40   H     H_    0.364661 0.603226 0.624900 0.153028
H41   H     H_    0.857932 0.492638 0.606683 0.174820
H42   H     H_    0.141962 0.506611 0.392867 0.174977
H43   H     H_    0.872589 0.586223 0.632104 0.165612
H44   H     H_    0.127346 0.413232 0.368046 0.163647
H45   H     H_    0.783656 0.381220 0.454971 0.194500
H46   H     H_    0.215752 0.618571 0.544444 0.195072
H47   H     H_    0.754069 0.529040 0.406389 0.171716
H48   H     H_    0.246122 0.471660 0.594271 0.171747
H49   H     H_    0.766857 0.591816 0.631561 0.188399
H50   H     H_    0.233241 0.407245 0.368929 0.184905
H51   H     H_    0.756809 0.502397 0.616333 0.167415
H52   H     H_    0.242790 0.496041 0.382676 0.168823
H53   H     H_    0.806111 0.607836 0.513334 0.196678
H54   H     H_    0.194451 0.392517 0.487529 0.193053
H55   H     H_    0.691944 0.321923 0.077549 0.166705
H56   H     H_    0.301972 0.660922 0.927611 0.171163
H57   H     H_    0.633052 0.270490 0.939941 0.202166
H58   H     H_    0.370034 0.728280 0.067712 0.177163
H59   H     H_    0.803315 0.275740 0.937383 0.112530
H60   H     H_    0.193758 0.733652 0.065673 0.109850
H61   H     H_    0.786438 0.388167 0.072461 0.228149
H62   H     H_    0.194941 0.611092 0.924333 0.229269
O1    O     O_R   0.447230 0.091150 0.500010 -0.506538
O2    O     O_R   0.552770 0.908850 0.499990 -0.520011
O3    O     O_R   0.443640 0.534850 0.569740 -0.591773
O4    O     O_R   0.556360 0.465150 0.430260 -0.590963
O5    O     O_R   0.465150 0.373960 0.430230 -0.586991
O6    O     O_R   0.534850 0.626040 0.569770 -0.587898
O7    O     O_R   0.534860 0.443740 0.569790 -0.590520
O8    O     O_R   0.465140 0.556260 0.430210 -0.584324
O9    O     O_R   0.552760 0.091150 0.499960 -0.614286
O10   O     O_R   0.447240 0.908850 0.500040 -0.620864
O11   O     O_R   0.507510 0.060280 0.620590 -0.556955
O12   O     O_R   0.492490 0.939720 0.379410 -0.554702
O13   O     O_R   0.613050 0.060280 0.620540 -0.564672
O14   O     O_R   0.386950 0.939720 0.379460 -0.577452
O15   O     O_R   0.909030 0.552780 0.500030 -0.588512
O16   O     O_R   0.090970 0.447220 0.499970 -0.589694
O17   O     O_R   0.909010 0.447270 0.500050 -0.591461
O18   O     O_R   0.090990 0.552730 0.499950 -0.591391
O19   O     O_R   0.939920 0.492480 0.379430 -0.572047
O20   O     O_R   0.060080 0.507520 0.620570 -0.572365
O21   O     O_R   0.939890 0.386970 0.379440 -0.579785
O22   O     O_R   0.060110 0.613030 0.620560 -0.578450
O23   O     O_R   0.373940 0.465070 0.430170 -0.593445
O24   O     O_R   0.626060 0.534930 0.569830 -0.592941
N1    N     N_2   0.594393 0.167590 0.911291 -0.422031
H63   H     H_    0.556736 0.184748 0.927133 0.259883
C69   C     C_3   0.604294 0.098452 0.904201 -0.622863
H64   H     H_    0.552671 0.064931 0.886965 0.219143
H65   H     H_    0.651492 0.109118 0.964189 0.215008
H66   H     H_    0.612326 0.064404 0.852997 0.251597
N2    N     N_2   0.403040 0.830359 0.088774 -0.418122
H67   H     H_    0.455866 0.832809 0.130019 0.257771
C70   C     C_3   0.401931 0.866093 0.047738 -0.646666
H68   H     H_    0.441802 0.923559 0.095627 0.229315
H69   H     H_    0.345765 0.870538 0.012625 0.229433
H70   H     H_    0.419976 0.834547 0.005068 0.214650
S1    S     S_3+6 0.440842 0.238667 0.605521 0.025172
O25   O     O_2   0.513802 0.237752 0.667223 -0.241017
O26   O     O_2   0.426828 0.310646 0.650544 -0.287682
O27   O     O_3   0.371866 0.167865 0.568386 -0.479048
H71   H     H_    0.324984 0.173994 0.532540 0.338837
S2    S     S_3+6 0.511116 0.729016 0.356203 -0.001149
O28   O     O_2   0.571036 0.705786 0.341665 -0.285409
O29   O     O_2   0.442530 0.662170 0.296808 -0.267791
O30   O     O_3   0.489943 0.794300 0.335960 -0.538306
H72   H     H_    0.478973 0.772171 0.279346 0.383700
S3    S     S_3+6 0.403771 0.088360 0.322019 -0.041286
O31   O     O_2   0.351896 0.064092 0.338356 -0.284612
O32   O     O_2   0.359147 0.100904 0.253715 -0.296245
O33   O     O_3   0.439950 0.019655 0.288437 -0.554184
H73   H     H_    0.463874 0.033777 0.266813 0.346313
S4    S     S_3+6 0.631054 0.891808 0.667136 -0.046753
O34   O     O_2   0.684463 0.850033 0.654712 -0.307061
O35   O     O_2   0.642860 0.958438 0.664596 -0.316780
O36   O     O_3   0.649636 0.921787 0.761762 -0.551627
H74   H     H_    0.699720 0.959657 0.802234 0.369389
N3    N     N_2   0.672423 0.367297 0.460326 -0.442408
H75   H     H_    0.717424 0.376983 0.515368 0.259074
C71   C     C_3   0.637832 0.288817 0.393107 -0.728761
H76   H     H_    0.630043 0.256201 0.416226 0.221178
H77   H     H_    0.673859 0.268081 0.369688 0.233415
H78   H     H_    0.582028 0.279875 0.341157 0.241288
N4    N     N_2   0.326071 0.632150 0.537697 -0.443440
H79   H     H_    0.280800 0.621392 0.482200 0.259843
C72   C     C_3   0.359241 0.710961 0.603918 -0.725919
H80   H     H_    0.364967 0.743250 0.579603 0.223640
H81   H     H_    0.415779 0.721336 0.655920 0.241304
H82   H     H_    0.323303 0.730872 0.627664 0.233508
S5    S     S_3+6 0.717162 0.341712 0.910832 -0.007602
O37   O     O_2   0.777971 0.404147 0.941372 -0.267985
O38   O     O_2   0.671955 0.293553 0.817018 -0.269537
O39   O     O_3   0.661829 0.379173 0.942878 -0.550293
H83   H     H_    0.640517 0.406380 0.916062 0.397979
S6    S     S_3+6 0.271203 0.658272 0.085791 -0.011881
O40   O     O_2   0.319112 0.704927 0.179652 -0.274777
O41   O     O_2   0.206957 0.600062 0.056215 -0.257209
O42   O     O_3   0.321904 0.614771 0.049364 -0.560877
H84   H     H_    0.342466 0.587768 0.076604 0.400669

loop_
_geom_bond_atom_site_label_1
_geom_bond_atom_site_label_2
_ccdc_geom_bond_type
C59   H47   S    
C40   H44   S    
Cu6   O7    S    
C63   C65   S    
C8    C66   S    
C55   O5    A    
Cu5   O23   S    
C27   C29   S    
C41   C43   S    
Cu5   Cu6   S    
C1    O9    A    
C69   H64   S    
C6    H56   S    
C45   H19   S    
N1    H63   S    
C42   H50   S    
C39   C41   S    
Cu5   O5    S    
O30   H72   S    
C11   H7    S    
C21   C31   S    
C10   H14   S    
C17   C23   S    
C22   C32   S    
S4    O36   S    
Cu4   O20   S    
Cu1   O14   S    
C32   C36   S    
C49   O17   A    
C69   H65   S    
C35   H29   S    
S3    O32   D    
C21   H17   S    
C1    O1    A    
C57   C59   S    
C59   H53   S    
C39   C57   S    
C4    C62   S    
C45   C57   S    
C49   C57   S    
S4    O35   D    
C72   H80   S    
C44   C53   S    
C26   C34   S    
C54   O4    A    
C37   C59   S    
O39   H83   S    
N3    C71   S    
C34   H26   S    
C31   C33   S    
C18   C24   S    
C4    C12   S    
C5    H55   S    
C52   C68   S    
C71   H78   S    
C56   O6    A    
C45   H45   S    
Cu5   O8    S    
C45   C47   S    
C62   N2    S    
Cu6   O6    S    
N4    H79   S    
C47   H39   S    
C46   C58   S    
C25   C29   S    
Cu1   O10   S    
C72   H81   S    
C64   S6    S    
Cu1   Cu2   S    
Cu2   O13   S    
C42   C44   S    
C11   H5    S    
N1    C69   S    
S2    O28   D    
C58   C60   S    
C46   C48   S    
C3    C61   S    
Cu1   O1    S    
C66   H4    S    
C64   H60   S    
C53   O23   A    
C40   C58   S    
C49   O15   A    
C48   N4    S    
C36   H32   S    
O36   H74   S    
C50   C58   S    
C70   H68   S    
C62   H58   S    
C60   H54   S    
C69   H66   S    
C55   O7    A    
C52   O22   A    
N2    C70   S    
C24   O12   A    
S3    O33   S    
C26   H34   S    
N2    H67   S    
C5    C7    S    
C61   H57   S    
C38   H2    S    
C37   H1    S    
C21   H21   S    
C27   C35   S    
S1    O25   D    
Cu3   O18   S    
C20   H16   S    
C27   H27   S    
Cu4   O21   S    
S4    O34   D    
C33   H25   S    
C32   C34   S    
C4    C16   S    
C2    O2    A    
S3    O31   D    
C19   S1    S    
C38   C44   S    
C19   H15   S    
C41   H51   S    
C7    C65   S    
C65   H3    S    
C43   C54   S    
S2    O29   D    
C46   H20   S    
O42   H84   S    
C24   O14   A    
Cu3   O19   S    
C1    C29   S    
C12   H8    S    
Cu2   O9    S    
C51   C67   S    
C60   H48   S    
C9    C11   S    
C65   H61   S    
S1    O26   D    
C10   C12   S    
C9    H9    S    
C28   H28   S    
C38   C60   S    
C6    C8    S    
C25   H23   S    
O27   H71   S    
C26   H24   S    
Cu2   O2    S    
S6    O41   D    
C34   H36   S    
C70   H70   S    
C61   N1    S    
C37   C43   S    
C33   H35   S    
C38   H38   S    
C19   C29   S    
C63   H59   S    
Cu3   O15   S    
C25   H33   S    
C48   H40   S    
C13   C67   T    
S5    O39   S    
C7    C9    S    
Cu3   O22   S    
S5    O37   D    
C8    C14   S    
Cu4   O17   S    
C72   H82   S    
C19   C21   S    
C53   O3    A    
C22   H22   S    
C47   N3    S    
C16   C18   T    
C22   H18   S    
C20   C22   S    
C40   C42   S    
C46   H46   S    
C20   S2    S    
C26   C30   S    
Cu5   O4    S    
C3    C63   S    
Cu4   O16   S    
C2    O10   A    
S6    O42   S    
Cu6   O3    S    
C4    C64   S    
C39   H41   S    
C6    H12   S    
Cu6   O24   S    
C2    C30   S    
C6    C62   S    
C28   C30   S    
C5    H11   S    
Cu3   Cu4   S    
C44   C48   S    
C39   H43   S    
C51   O19   A    
C20   C30   S    
C41   H49   S    
C36   H30   S    
C40   H42   S    
C23   O11   A    
C50   O18   A    
Cu1   O11   S    
C12   H6    S    
C10   H10   S    
S1    O27   S    
C28   S4    S    
C51   O21   A    
C66   H62   S    
C31   C35   S    
S6    O40   D    
C23   O13   A    
C52   O20   A    
C27   S3    S    
C37   H37   S    
S2    O30   S    
C3    C11   S    
C42   H52   S    
C54   O24   A    
C71   H76   S    
C56   O8    A    
C50   O16   A    
C7    C13   S    
Cu2   O12   S    
C28   C36   S    
C8    C10   S    
N3    H75   S    
C63   S5    S    
C25   C33   S    
N4    C72   S    
C14   C68   T    
C3    C15   S    
C35   H31   S    
C31   C55   S    
O33   H73   S    
C15   C17   T    
S5    O38   D    
C43   C47   S    
C32   C56   S    
C9    H13   S    
C5    C61   S    
C64   C66   S    
C71   H77   S    
C70   H69   S    
