data_mof_unit_32578.cif
_audit_creation_date              2012-10-26T20:22:30-0400
_audit_creation_method            fapswitch 2.2
_symmetry_space_group_name_H-M    P1
_symmetry_Int_Tables_number       1
_space_group_crystal_system       triclinic
_cell_length_a                    9.57608
_cell_length_b                    10.805049
_cell_length_c                    17.212901
_cell_angle_alpha                 91.481875
_cell_angle_beta                  85.746214
_cell_angle_gamma                 90.177184
_cell_volume                      1775.51766041

loop_
_atom_site_label
_atom_site_type_symbol
_atom_type_description
_atom_site_fract_x
_atom_site_fract_y
_atom_site_fract_z
_atom_type_partial_charge
C1    C     C_R   0.500071 0.737603 0.499956 0.579164
C2    C     C_R   0.079877 0.418340 0.453036 0.199775
C3    C     C_R   0.070307 0.581519 0.545905 0.494423
C4    C     C_R   0.930772 0.417268 0.454465 0.476642
C5    C     C_R   0.481012 0.500408 0.649846 0.549186
C6    C     C_R   0.518767 0.499563 0.350380 0.535281
C7    C     C_R   0.466744 0.497453 0.734517 0.002042
C8    C     C_R   0.531213 0.494029 0.266029 -0.035912
C9    C     C_R   0.534528 0.585083 0.780713 0.119571
C10   C     C_R   0.484099 0.591785 0.222051 0.117772
C11   C     C_R   0.520900 0.575460 0.861653 -0.184680
C12   C     C_R   0.499836 0.262358 0.499403 0.603847
C13   C     C_R   0.495426 0.579280 0.140865 -0.160539
C14   C     C_R   0.440690 0.480209 0.896372 0.020319
C15   C     C_R   0.548450 0.470074 0.104122 0.009368
C16   C     C_R   0.368574 0.396875 0.850300 0.402458
C17   C     C_R   0.597874 0.374950 0.148337 0.399974
C18   C     C_R   0.381591 0.405736 0.769648 -0.110290
C19   C     C_R   0.589644 0.387328 0.229071 -0.113215
C20   C     C_2   0.432957 0.468834 0.981552 0.181327
C21   C     C_2   0.552777 0.456735 0.018732 0.178561
C22   C     C_3   0.531484 0.785211 0.721919 -0.266258
C23   C     C_R   0.607040 0.934147 0.456835 0.309780
C24   C     C_3   0.287674 0.731306 0.250359 -0.269921
C25   C     C_3   0.800389 0.508196 0.991736 -0.268217
C26   C     C_3   0.206560 0.570712 0.010121 -0.282145
C27   C     C_3   0.889227 0.807896 0.576548 -0.170078
C28   C     C_3   0.158256 0.348931 0.322149 -0.253528
C29   C     C_R   0.390790 0.065636 0.540508 0.326220
C30   C     C_R   0.607098 0.062374 0.456754 0.349348
C31   C     C_R   0.391026 0.937472 0.540828 0.329503
C32   C     C_R   0.499313 0.128436 0.498873 -0.101149
C33   C     C_R   0.499663 0.871434 0.499407 -0.117302
C34   C     C_R   0.922547 0.585881 0.544207 0.208226
Cu1   Cu    Cu3+1 0.359340 0.499980 0.500000 1.105613
Cu2   Cu    Cu3+1 0.640660 0.500020 0.500000 1.101683
F1    F     F_    0.289226 0.305087 0.883232 -0.578358
F2    F     F_    0.650778 0.269307 0.113472 -0.573791
F3    F     F_    0.709906 0.871313 0.413973 -0.574175
F4    F     F_    0.286929 0.128287 0.582679 -0.569168
F5    F     F_    0.709876 0.121604 0.413641 -0.513729
F6    F     F_    0.287334 0.878328 0.583340 -0.542504
F7    F     F_    0.135738 0.659049 0.594674 -0.553126
F8    F     F_    0.865743 0.334304 0.409104 -0.560274
H1    H     H_    0.626135 0.312480 0.263075 0.195006
H2    H     H_    0.261884 0.824687 0.275770 0.171937
H3    H     H_    0.221011 0.662126 0.282141 0.144231
H4    H     H_    0.264259 0.730217 0.188118 0.152259
H5    H     H_    0.682359 0.396678 0.919806 0.265438
H6    H     H_    0.896266 0.474728 0.957411 0.173602
H7    H     H_    0.821174 0.508636 0.054351 0.174669
H8    H     H_    0.777744 0.603874 0.974273 0.123267
H9    H     H_    0.291211 0.438170 0.079711 0.255229
H10   H     H_    0.105234 0.559504 0.044976 0.141315
H11   H     H_    0.184799 0.574044 0.947740 0.179211
H12   H     H_    0.327690 0.339195 0.734314 0.184464
H13   H     H_    0.255463 0.659137 0.028274 0.128212
H14   H     H_    0.749434 0.666477 0.611251 0.308828
H15   H     H_    0.794840 0.862428 0.566087 0.141844
H16   H     H_    0.965762 0.816600 0.525138 0.213856
H17   H     H_    0.935443 0.847939 0.628842 0.210182
H18   H     H_    0.135946 0.240597 0.419668 0.290882
H19   H     H_    0.241175 0.290817 0.291129 0.149018
H20   H     H_    0.179730 0.447100 0.308064 0.145669
H21   H     H_    0.055760 0.321483 0.300796 0.203865
H22   H     H_    0.463552 0.654867 0.106063 0.141664
H23   H     H_    0.572288 0.642574 0.897742 0.126091
H24   H     H_    0.694885 0.713902 0.778918 0.266140
H25   H     H_    0.601348 0.854363 0.692226 0.135000
H26   H     H_    0.473728 0.830851 0.773206 0.179377
H27   H     H_    0.455724 0.752084 0.680238 0.211923
H28   H     H_    0.464217 0.723628 0.313375 0.275609
N1    N     N_R   0.147930 0.499970 0.499980 -0.260703
N2    N     N_R   0.852070 0.500030 0.500020 -0.269215
N3    N     N_2   0.614378 0.683616 0.746545 -0.529204
N4    N     N_2   0.434034 0.705267 0.257977 -0.482475
N5    N     N_2   0.684156 0.427161 0.976952 -0.452340
N6    N     N_2   0.297449 0.467690 0.023098 -0.460402
N7    N     N_2   0.850561 0.680067 0.590519 -0.485652
N8    N     N_2   0.158864 0.330819 0.405186 -0.438398
O1    O     O_R   0.381260 0.680340 0.500000 -0.423074
O2    O     O_R   0.618740 0.319660 0.500000 -0.414458
O3    O     O_R   0.618830 0.680370 0.500010 -0.488804
O4    O     O_R   0.381170 0.319630 0.499990 -0.451289
O5    O     O_R   0.367440 0.500000 0.613600 -0.452036
O6    O     O_R   0.632560 0.500000 0.386400 -0.443862
O7    O     O_R   0.605010 0.500030 0.613600 -0.522582
O8    O     O_R   0.394990 0.499970 0.386400 -0.516019

loop_
_geom_bond_atom_site_label_1
_geom_bond_atom_site_label_2
_ccdc_geom_bond_type
C31   F6    S    
Cu1   Cu2   S    
H28   N4    S    
C26   H11   S    
Cu1   O1    S    
C1    C33   S    
H24   N3    S    
C3    F7    S    
C26   N6    S    
C25   N5    S    
H18   N8    S    
C29   C32   A    
C27   N7    S    
C27   H16   S    
C11   C14   A    
Cu2   O3    S    
C1    O1    A    
C6    O8    A    
C12   O4    A    
C7    C9    A    
C25   H6    S    
C27   H17   S    
C10   N4    S    
Cu2   O2    S    
C23   C33   A    
C31   C33   A    
C30   F5    S    
C22   H25   S    
C4    N2    A    
C18   H12   S    
C16   F1    S    
C5    O5    A    
C12   C32   S    
C22   N3    S    
C28   N8    S    
C26   H10   S    
C11   H23   S    
C13   H22   S    
Cu2   O7    S    
C8    C19   A    
C24   H4    S    
C23   C30   A    
C14   C20   S    
C5    C7    S    
C24   N4    S    
C6    C8    S    
C4    F8    S    
C3    C34   A    
Cu2   O6    S    
C2    C4    A    
C25   H7    S    
C34   N7    S    
Cu1   O8    S    
C7    C18   A    
C12   O2    A    
C9    C11   A    
C2    N1    A    
Cu2   N2    S    
H14   N7    S    
C34   N2    A    
C28   H20   S    
C16   C18   A    
C13   C15   A    
C14   C16   A    
C22   H27   S    
C15   C17   A    
Cu1   N1    S    
C24   H3    S    
C10   C13   A    
Cu1   O4    S    
C19   H1    S    
C1    O3    A    
C6    O6    A    
C20   N6    S    
C24   H2    S    
C28   H21   S    
C25   H8    S    
C29   C31   A    
C27   H15   S    
C30   C32   A    
Cu1   O5    S    
C23   F3    S    
C29   F4    S    
C17   C19   A    
H5    N5    S    
H9    N6    S    
C17   F2    S    
C3    N1    A    
C26   H13   S    
C2    N8    S    
C5    O7    A    
C28   H19   S    
C15   C21   S    
C20   C21   D    
C8    C10   A    
C21   N5    S    
C9    N3    S    
C22   H26   S    
