data_mof_unit_28134.cif
_audit_creation_date              2012-12-10T18:00:33-0500
_audit_creation_method            fapswitch 2.2
_symmetry_space_group_name_H-M    P1
_symmetry_Int_Tables_number       1
_space_group_crystal_system       triclinic
_cell_length_a                    18.397169
_cell_length_b                    18.44854
_cell_length_c                    27.55908
_cell_angle_alpha                 90.0044
_cell_angle_beta                  89.995229
_cell_angle_gamma                 90.113914
_cell_volume                      9353.55823423

loop_
_atom_site_label
_atom_site_type_symbol
_atom_type_description
_atom_site_fract_x
_atom_site_fract_y
_atom_site_fract_z
_atom_type_partial_charge
C1    C     C_1   0.500504 0.000032 0.569045 -0.003460
C2    C     C_1   0.500639 0.000032 0.474532 -0.057289
C3    C     C_3   0.106568 0.802105 0.416402 -0.503790
C4    C     C_3   0.603884 0.704618 0.672246 0.052861
C5    C     C_3   0.567321 0.699224 0.622617 -0.244584
C6    C     C_3   0.510910 0.638554 0.621472 -0.507827
C7    C     C_3   0.384591 0.277346 0.340923 0.037657
C8    C     C_3   0.462253 0.284198 0.360169 -0.244144
C9    C     C_3   0.464468 0.280392 0.415435 -0.496863
C10   C     C_3   0.304945 0.569088 0.734761 0.050384
C11   C     C_3   0.387426 0.562897 0.729166 -0.266913
C12   C     C_3   0.418416 0.505277 0.763027 -0.507683
C13   C     C_1   0.999827 0.500594 0.525477 -0.053772
C14   C     C_3   0.746107 0.362760 0.349758 0.044366
C15   C     C_3   0.683298 0.333313 0.380686 -0.266897
C16   C     C_3   0.703554 0.331241 0.434363 -0.503136
C17   C     C_3   0.381639 0.720844 0.340421 0.044118
C18   C     C_3   0.430698 0.740377 0.383193 -0.246899
C19   C     C_3   0.488806 0.682730 0.391158 -0.497889
C20   C     C_3   0.699188 0.180521 0.636033 0.035352
C21   C     C_3   0.652831 0.171564 0.590396 -0.250204
C22   C     C_3   0.684856 0.115141 0.556072 -0.491372
C23   C     C_3   0.678961 0.588829 0.301059 0.056779
C24   C     C_1   0.999848 0.500594 0.474546 -0.052579
C25   C     C_3   0.645694 0.554787 0.346531 -0.238079
C26   C     C_3   0.581167 0.506208 0.334245 -0.501485
C27   C     C_3   0.177955 0.308962 0.638732 0.042661
C28   C     C_3   0.209961 0.258826 0.599974 -0.256103
C29   C     C_3   0.152126 0.235103 0.563574 -0.500186
C30   C     C_3   0.563234 0.295238 0.240092 0.039968
C31   C     C_3   0.545023 0.375166 0.232384 -0.264355
C32   C     C_3   0.502307 0.386170 0.185473 -0.497650
C33   C     C_3   0.353724 0.766124 0.643565 0.039508
C34   C     C_3   0.316679 0.712492 0.608921 -0.259453
C35   C     C_1   0.000058 0.499963 0.025456 -0.056629
C36   C     C_3   0.314476 0.741976 0.557200 -0.501133
C37   C     C_3   0.316431 0.430104 0.255037 0.030429
C38   C     C_3   0.330778 0.504812 0.277117 -0.246505
C39   C     C_3   0.369561 0.554835 0.241387 -0.502399
C40   C     C_3   0.812961 0.694415 0.635473 0.039501
C41   C     C_3   0.818456 0.647271 0.590034 -0.251378
C42   C     C_3   0.873060 0.678194 0.553825 -0.491078
C43   C     C_3   0.928725 0.810869 0.240186 0.037054
C44   C     C_3   0.003638 0.824579 0.218171 -0.249144
C45   C     C_3   0.054280 0.860910 0.254711 -0.498535
C46   C     C_1   0.000040 0.499966 0.974511 -0.057509
C47   C     C_3   0.196094 0.316544 0.863930 0.039112
C48   C     C_3   0.148945 0.324348 0.909280 -0.250713
C49   C     C_3   0.179334 0.381550 0.943778 -0.489462
C50   C     C_3   0.229752 0.890881 0.162229 0.059074
C51   C     C_3   0.162263 0.876528 0.131120 -0.265746
C52   C     C_3   0.118844 0.945870 0.123057 -0.508969
C53   C     C_3   0.681669 0.200013 0.864488 0.034411
C54   C     C_3   0.673241 0.154090 0.910304 -0.250997
C55   C     C_3   0.619300 0.187849 0.945725 -0.493225
C56   C     C_3   0.067274 0.194653 0.253805 0.042690
C57   C     C_1   0.500089 0.000526 0.025456 -0.053730
C58   C     C_3   0.078632 0.114421 0.266323 -0.260081
C59   C     C_3   0.021056 0.087442 0.301887 -0.508516
C60   C     C_3   0.810978 0.696664 0.864721 0.036971
C61   C     C_3   0.861678 0.691786 0.908522 -0.248038
C62   C     C_3   0.829930 0.643536 0.948212 -0.490843
C63   C     C_3   0.827531 0.087665 0.207479 0.051102
C64   C     C_3   0.857054 0.042105 0.165606 -0.229652
C65   C     C_3   0.928278 0.005268 0.179069 -0.479478
C66   C     C_3   0.265629 0.853232 0.856478 0.040344
C67   C     C_3   0.211488 0.816638 0.891039 -0.260383
C68   C     C_1   0.500096 0.000589 0.974526 -0.053559
C69   C     C_3   0.240661 0.814605 0.942858 -0.501328
C70   C     C_3   0.890977 0.213337 0.834125 0.045205
C71   C     C_3   0.944213 0.231524 0.874903 -0.245134
C72   C     C_3   0.002067 0.172993 0.880104 -0.486615
C73   C     C_3   0.211924 0.651225 0.143287 0.036132
C74   C     C_3   0.277900 0.670773 0.111929 -0.254886
C75   C     C_3   0.307237 0.604379 0.085407 -0.504105
C76   C     C_3   0.206106 0.105840 0.829313 0.051878
C77   C     C_3   0.204199 0.067207 0.878309 -0.244117
C78   C     C_3   0.142813 0.011590 0.880487 -0.507261
C79   C     C_R   0.500008 0.000150 0.879219 0.496935
C80   C     C_3   0.740816 0.854899 0.144983 0.041520
C81   C     C_3   0.801064 0.831224 0.110045 -0.261156
C82   C     C_3   0.773246 0.826437 0.057964 -0.500667
C83   C     C_3   0.068385 0.804597 0.765587 0.049631
C84   C     C_3   0.062787 0.886928 0.771064 -0.266442
C85   C     C_3   0.004710 0.918020 0.737509 -0.507550
C86   C     C_3   0.843469 0.284240 0.138772 0.052729
C87   C     C_3   0.803619 0.237768 0.101078 -0.264741
C88   C     C_3   0.790481 0.279927 0.054254 -0.500892
C89   C     C_3   0.792536 0.910517 0.816790 0.061909
C90   C     C_R   0.500007 0.000058 0.120777 0.496908
C91   C     C_3   0.861446 0.907007 0.847930 -0.256492
C92   C     C_3   0.900537 0.980083 0.849340 -0.511895
C93   C     C_3   0.243609 0.126789 0.152257 0.045504
C94   C     C_3   0.180208 0.152175 0.120460 -0.259719
C95   C     C_3   0.198775 0.146382 0.066610 -0.505288
C96   C     C_R   0.000007 0.499996 0.879185 0.493836
C97   C     C_1   0.500419 0.000006 0.430962 -0.006293
C98   C     C_R   0.000029 0.499995 0.120808 0.488092
C99   C     C_R   0.999989 0.500119 0.379224 0.489939
C100  C     C_R   0.999981 0.500113 0.620781 0.492582
C101  C     C_R   0.500092 0.999999 0.379188 0.497610
C102  C     C_R   0.500160 0.000006 0.620813 0.495696
C103  C     C_R   0.640111 0.140080 0.750030 0.528848
C104  C     C_R   0.359684 0.859785 0.249874 0.558411
C105  C     C_R   0.860032 0.640283 0.749883 0.524532
C106  C     C_R   0.139975 0.359711 0.250318 0.523777
C107  C     C_R   0.359742 0.859792 0.750014 0.523913
C108  C     C_1   0.999897 0.500416 0.569033 -0.004596
C109  C     C_R   0.639458 0.140859 0.248955 0.522444
C110  C     C_R   0.140164 0.359936 0.749991 0.519723
C111  C     C_R   0.860475 0.640844 0.250892 0.527967
C112  C     C_R   0.640957 0.860483 0.250610 0.523132
C113  C     C_R   0.360089 0.140610 0.750256 0.544401
C114  C     C_R   0.858808 0.360675 0.249168 0.517878
C115  C     C_R   0.140127 0.640114 0.749972 0.516486
C116  C     C_R   0.360250 0.140769 0.249393 0.535804
C117  C     C_R   0.640626 0.860124 0.749795 0.544134
C118  C     C_R   0.140130 0.639957 0.249982 0.516763
C119  C     C_1   0.999929 0.500416 0.430985 -0.000814
C120  C     C_R   0.859736 0.359828 0.749994 0.554403
C121  C     C_R   0.300342 0.247607 0.711693 0.205842
C122  C     C_R   0.695726 0.749382 0.286913 0.200947
C123  C     C_R   0.757490 0.295561 0.709388 0.189592
C124  C     C_R   0.233153 0.712874 0.293221 0.200089
C125  C     C_R   0.701909 0.755038 0.710540 0.188141
C126  C     C_R   0.318340 0.265004 0.271249 0.183861
C127  C     C_R   0.261879 0.684901 0.724696 0.209430
C128  C     C_R   0.734993 0.316350 0.273107 0.216752
C129  C     C_R   0.290551 0.762550 0.292102 0.191500
C130  C     C_1   0.000054 0.499977 0.069027 -0.004195
C131  C     C_R   0.706577 0.239328 0.708473 0.187531
C132  C     C_R   0.744663 0.691836 0.283560 0.195118
C133  C     C_R   0.242396 0.296007 0.709570 0.208740
C134  C     C_R   0.678323 0.267211 0.266673 0.212725
C135  C     C_R   0.310884 0.741826 0.719984 0.210575
C136  C     C_R   0.265611 0.319415 0.269608 0.193172
C137  C     C_R   0.758467 0.704637 0.709185 0.185767
C138  C     C_R   0.817138 0.763095 0.226730 0.199367
C139  C     C_R   0.205315 0.259422 0.791088 0.186059
C140  C     C_R   0.261332 0.790971 0.207508 0.200953
C141  C     C_1   0.000022 0.499982 0.930947 -0.007078
C142  C     C_R   0.739391 0.206698 0.791580 0.187056
C143  C     C_R   0.180808 0.234526 0.231513 0.209870
C144  C     C_R   0.798816 0.744875 0.789185 0.194756
C145  C     C_R   0.757724 0.189550 0.218650 0.193204
C146  C     C_R   0.241550 0.810782 0.779968 0.210359
C147  C     C_R   0.795470 0.257846 0.790689 0.189240
C148  C     C_R   0.213086 0.732489 0.206527 0.210974
C149  C     C_R   0.255705 0.202870 0.789878 0.188142
C150  C     C_R   0.760639 0.812631 0.222123 0.206702
C151  C     C_R   0.184623 0.761720 0.775255 0.209392
C152  C     C_1   0.500043 0.000328 0.069017 -0.001420
C153  C     C_R   0.806266 0.247459 0.214382 0.191563
C154  C     C_R   0.749187 0.801800 0.787510 0.201665
C155  C     C_R   0.236932 0.184788 0.225774 0.207101
C156  C     C_R   0.196463 0.304234 0.750140 -0.058887
C157  C     C_R   0.806364 0.698851 0.253472 -0.058692
C158  C     C_R   0.696155 0.196060 0.750021 -0.046107
C159  C     C_R   0.302912 0.803964 0.249832 -0.053434
C160  C     C_R   0.804833 0.697084 0.749494 -0.054388
C161  C     C_R   0.195974 0.303673 0.250863 -0.054060
C162  C     C_R   0.303491 0.803594 0.749988 -0.065829
C163  C     C_1   0.500051 0.000449 0.930969 -0.003027
C164  C     C_R   0.692992 0.199353 0.245275 -0.059604
C165  C     C_R   0.196210 0.695803 0.249937 -0.055677
C166  C     C_R   0.803438 0.303692 0.750027 -0.042132
C167  C     C_R   0.699345 0.806575 0.252786 -0.063498
C168  C     C_R   0.304824 0.197792 0.750671 -0.053882
C169  C     C_R   0.799823 0.307257 0.246188 -0.066530
C170  C     C_R   0.196126 0.696171 0.749955 -0.069966
C171  C     C_R   0.304699 0.197699 0.248477 -0.054409
C172  C     C_R   0.697911 0.805005 0.749288 -0.051187
C173  C     C_3   0.408813 0.290027 0.681246 0.057633
C174  C     C_1   0.500681 0.000050 0.525478 -0.055161
C175  C     C_3   0.402232 0.360785 0.652495 -0.254732
C176  C     C_3   0.474708 0.401191 0.650501 -0.511309
C177  C     C_3   0.661663 0.792474 0.361755 0.041828
C178  C     C_3   0.703034 0.750374 0.400879 -0.265842
C179  C     C_3   0.717215 0.797340 0.445479 -0.501616
C180  C     C_3   0.712743 0.390793 0.666018 0.045622
C181  C     C_3   0.729401 0.442171 0.623982 -0.245614
C182  C     C_3   0.671010 0.500226 0.619059 -0.488841
C183  C     C_3   0.153788 0.708554 0.357548 0.039863
C184  C     C_3   0.173053 0.774231 0.389122 -0.256444
H1    H     H_    0.457659 0.260470 0.668214 0.185715
H2    H     H_    0.670807 0.702271 0.412043 0.167415
H3    H     H_    0.369409 0.405828 0.244553 0.159860
H4    H     H_    0.278330 0.529796 0.287848 0.220691
H5    H     H_    0.364840 0.498878 0.310200 0.162204
H6    H     H_    0.424777 0.533872 0.233350 0.141166
H7    H     H_    0.374840 0.609750 0.257414 0.134615
H8    H     H_    0.338210 0.559226 0.207121 0.137333
H9    H     H_    0.868231 0.700640 0.651537 0.115483
H10   H     H_    0.791980 0.748758 0.624711 0.148636
H11   H     H_    0.835631 0.591682 0.600399 0.193090
H12   H     H_    0.764210 0.643822 0.572433 0.154266
H13   H     H_    0.755987 0.731706 0.386172 0.192428
H14   H     H_    0.856585 0.733544 0.542455 0.138962
H15   H     H_    0.875189 0.642910 0.521207 0.154393
H16   H     H_    0.928159 0.680396 0.570261 0.146556
H17   H     H_    0.935671 0.774694 0.272276 0.113062
H18   H     H_    0.905350 0.863291 0.252657 0.131339
H19   H     H_    0.027638 0.772268 0.206534 0.219733
H20   H     H_    0.998362 0.859629 0.185640 0.161601
H21   H     H_    0.033818 0.915743 0.263976 0.141198
H22   H     H_    0.109393 0.866281 0.238938 0.143813
H23   H     H_    0.058317 0.827949 0.288287 0.134897
H24   H     H_    0.750371 0.845466 0.435488 0.142849
H25   H     H_    0.202306 0.370822 0.846625 0.114821
H26   H     H_    0.250615 0.296117 0.875033 0.147948
H27   H     H_    0.092933 0.340028 0.898559 0.194605
H28   H     H_    0.146219 0.271402 0.928443 0.154439
H29   H     H_    0.235127 0.366674 0.955468 0.140625
H30   H     H_    0.144071 0.385312 0.976387 0.154465
H31   H     H_    0.180662 0.435392 0.925743 0.145313
H32   H     H_    0.262090 0.934326 0.144462 0.167333
H33   H     H_    0.213610 0.912652 0.198455 0.126115
H34   H     H_    0.178950 0.853999 0.095415 0.181109
H35   H     H_    0.747332 0.765379 0.473052 0.148614
H36   H     H_    0.126541 0.836641 0.149434 0.202611
H37   H     H_    0.102202 0.969707 0.158378 0.155059
H38   H     H_    0.069225 0.933396 0.101677 0.145098
H39   H     H_    0.151945 0.985903 0.102646 0.147475
H40   H     H_    0.627285 0.206603 0.847225 0.117083
H41   H     H_    0.703261 0.254292 0.875012 0.154359
H42   H     H_    0.653915 0.098999 0.900245 0.199914
H43   H     H_    0.726961 0.148744 0.928423 0.162041
H44   H     H_    0.638130 0.242587 0.956955 0.141260
H45   H     H_    0.614726 0.153164 0.978521 0.155144
H46   H     H_    0.665023 0.815575 0.461628 0.150087
H47   H     H_    0.564769 0.192197 0.928671 0.148448
H48   H     H_    0.009979 0.202342 0.242123 0.178735
H49   H     H_    0.074888 0.228937 0.286776 0.099384
H50   H     H_    0.076201 0.081281 0.232702 0.187892
H51   H     H_    0.133048 0.107099 0.283063 0.176081
H52   H     H_    0.021990 0.120538 0.335555 0.145769
H53   H     H_    0.032278 0.030181 0.311628 0.143460
H54   H     H_    0.966202 0.090493 0.285223 0.131910
H55   H     H_    0.800369 0.640884 0.850818 0.117900
H56   H     H_    0.758748 0.721541 0.876601 0.154125
H57   H     H_    0.710649 0.422959 0.700276 0.129949
H58   H     H_    0.914907 0.669326 0.896897 0.205982
H59   H     H_    0.871013 0.747024 0.923436 0.159020
H60   H     H_    0.777180 0.665633 0.961021 0.142762
H61   H     H_    0.868100 0.641394 0.979393 0.157311
H62   H     H_    0.821673 0.587576 0.934345 0.148973
H63   H     H_    0.808899 0.051076 0.237075 0.135286
H64   H     H_    0.872681 0.121851 0.221863 0.145470
H65   H     H_    0.816182 0.000498 0.155366 0.198043
H66   H     H_    0.866811 0.077304 0.133570 0.168106
H67   H     H_    0.971614 0.046478 0.184231 0.146368
H68   H     H_    0.658633 0.365500 0.659602 0.164079
H69   H     H_    0.944874 0.968220 0.149358 0.142301
H70   H     H_    0.921754 0.973778 0.213024 0.156427
H71   H     H_    0.282953 0.905668 0.872601 0.163146
H72   H     H_    0.315897 0.819733 0.853206 0.109536
H73   H     H_    0.159134 0.846540 0.890686 0.191538
H74   H     H_    0.201193 0.760156 0.878859 0.187176
H75   H     H_    0.292909 0.784585 0.944154 0.147097
H76   H     H_    0.200862 0.786739 0.966771 0.152067
H77   H     H_    0.249209 0.870545 0.956692 0.147191
H78   H     H_    0.921952 0.209585 0.799395 0.128022
H79   H     H_    0.782848 0.468762 0.630251 0.206656
H80   H     H_    0.865612 0.159846 0.842027 0.164976
H81   H     H_    0.971127 0.284199 0.866981 0.209806
H82   H     H_    0.914111 0.236629 0.909713 0.161292
H83   H     H_    0.976446 0.120342 0.889655 0.132739
H84   H     H_    0.040734 0.188134 0.909315 0.152093
H85   H     H_    0.032561 0.167072 0.845601 0.167396
H86   H     H_    0.170491 0.624669 0.119911 0.157909
H87   H     H_    0.227394 0.610425 0.171254 0.096556
H88   H     H_    0.262123 0.712550 0.084856 0.188499
H89   H     H_    0.321722 0.693314 0.135233 0.182406
H90   H     H_    0.732480 0.410765 0.589615 0.162042
H91   H     H_    0.324081 0.562197 0.111858 0.137985
H92   H     H_    0.355237 0.620140 0.063348 0.148440
H93   H     H_    0.265105 0.581607 0.060849 0.146851
H94   H     H_    0.216481 0.065298 0.800212 0.151343
H95   H     H_    0.151847 0.130598 0.822880 0.146830
H96   H     H_    0.256965 0.039468 0.884501 0.179906
H97   H     H_    0.196159 0.107783 0.907650 0.169845
H98   H     H_    0.089312 0.038677 0.876763 0.137640
H99   H     H_    0.144396 0.982873 0.915872 0.142550
H100  H     H_    0.148878 0.971346 0.850903 0.187746
H101  H     H_    0.617312 0.474780 0.611924 0.133386
H102  H     H_    0.715864 0.905411 0.130741 0.167032
H103  H     H_    0.696452 0.813425 0.145744 0.103676
H104  H     H_    0.846755 0.870680 0.111600 0.179381
H105  H     H_    0.821672 0.777089 0.120888 0.203286
H106  H     H_    0.727820 0.786845 0.055506 0.147091
H107  H     H_    0.817843 0.808194 0.033727 0.150857
H108  H     H_    0.754145 0.880353 0.045407 0.151166
H109  H     H_    0.014632 0.780441 0.774537 0.181394
H110  H     H_    0.079603 0.790236 0.726896 0.091466
H111  H     H_    0.048847 0.900446 0.809245 0.169674
H112  H     H_    0.418706 0.302325 0.720418 0.099403
H113  H     H_    0.684440 0.536678 0.588303 0.148306
H114  H     H_    0.115857 0.912366 0.762059 0.191010
H115  H     H_    0.018192 0.906073 0.699046 0.142680
H116  H     H_    0.002077 0.977727 0.742213 0.139949
H117  H     H_    0.950642 0.894482 0.746235 0.144970
H118  H     H_    0.895177 0.303792 0.122499 0.172634
H119  H     H_    0.810974 0.333697 0.147326 0.105355
H120  H     H_    0.836559 0.188994 0.092662 0.174491
H121  H     H_    0.750304 0.220036 0.115833 0.190932
H122  H     H_    0.756732 0.328572 0.061602 0.143729
H123  H     H_    0.761366 0.244912 0.027816 0.150264
H124  H     H_    0.667936 0.532916 0.652799 0.172401
H125  H     H_    0.843014 0.297091 0.037977 0.151421
H126  H     H_    0.761606 0.959846 0.827162 0.187544
H127  H     H_    0.807666 0.917479 0.777773 0.095316
H128  H     H_    0.847034 0.890911 0.885599 0.183131
H129  H     H_    0.899108 0.865909 0.832751 0.197569
H130  H     H_    0.913457 0.998778 0.812033 0.143549
H131  H     H_    0.952051 0.974766 0.870021 0.141649
H132  H     H_    0.865970 0.021278 0.867491 0.154929
H133  H     H_    0.260421 0.071998 0.139946 0.153070
H134  H     H_    0.291761 0.162862 0.146754 0.111167
H135  H     H_    0.128806 0.666323 0.381002 0.160249
H136  H     H_    0.131256 0.118724 0.128234 0.188649
H137  H     H_    0.167552 0.209676 0.128714 0.198521
H138  H     H_    0.246750 0.180688 0.057963 0.147377
H139  H     H_    0.151943 0.165316 0.044613 0.149834
H140  H     H_    0.210719 0.089293 0.056674 0.141975
H141  H     H_    0.111613 0.723583 0.330332 0.095808
H142  H     H_    0.215761 0.758806 0.415704 0.188543
H143  H     H_    0.194442 0.818619 0.365898 0.183911
H144  H     H_    0.063586 0.818749 0.390391 0.138653
H145  H     H_    0.122103 0.849821 0.438691 0.148665
H146  H     H_    0.084755 0.759372 0.440819 0.147637
H147  H     H_    0.562030 0.717023 0.700187 0.154547
H148  H     H_    0.384196 0.348751 0.614846 0.186102
H149  H     H_    0.628281 0.650947 0.680895 0.143843
H150  H     H_    0.540416 0.751552 0.613985 0.177720
H151  H     H_    0.609225 0.688450 0.594460 0.169036
H152  H     H_    0.537045 0.585340 0.628119 0.137395
H153  H     H_    0.484135 0.637216 0.585380 0.142768
H154  H     H_    0.469035 0.647809 0.649677 0.189598
H155  H     H_    0.361481 0.224592 0.353417 0.134693
H156  H     H_    0.351551 0.322405 0.356108 0.172524
H157  H     H_    0.495988 0.239639 0.345092 0.228762
H158  H     H_    0.485924 0.336723 0.348177 0.172452
H159  H     H_    0.361219 0.396357 0.669929 0.196255
H160  H     H_    0.432080 0.325181 0.431427 0.143816
H161  H     H_    0.521562 0.285640 0.428024 0.147594
H162  H     H_    0.442523 0.227595 0.428211 0.157426
H163  H     H_    0.280332 0.515549 0.726124 0.178287
H164  H     H_    0.290825 0.580790 0.773431 0.090762
H165  H     H_    0.400661 0.548307 0.691060 0.170151
H166  H     H_    0.413304 0.615805 0.737741 0.190294
H167  H     H_    0.406820 0.519413 0.801431 0.142846
H168  H     H_    0.478233 0.502125 0.758137 0.140296
H169  H     H_    0.394358 0.451396 0.754753 0.143125
H170  H     H_    0.495049 0.412290 0.687694 0.143429
H171  H     H_    0.764721 0.414980 0.365542 0.163495
H172  H     H_    0.793733 0.325389 0.351828 0.106150
H173  H     H_    0.634585 0.368029 0.375997 0.183790
H174  H     H_    0.669388 0.277449 0.368857 0.189077
H175  H     H_    0.751983 0.296385 0.440031 0.147772
H176  H     H_    0.657561 0.308617 0.455652 0.144942
H177  H     H_    0.715402 0.386797 0.447800 0.146315
H178  H     H_    0.416252 0.715041 0.307409 0.133182
H179  H     H_    0.354685 0.668042 0.348243 0.166169
H180  H     H_    0.457666 0.793260 0.376002 0.206757
H181  H     H_    0.467459 0.453573 0.631278 0.143800
H182  H     H_    0.397328 0.745641 0.416638 0.162080
H183  H     H_    0.463230 0.629780 0.400056 0.140618
H184  H     H_    0.524655 0.699088 0.421680 0.141320
H185  H     H_    0.522383 0.676658 0.357950 0.190296
H186  H     H_    0.705238 0.126627 0.653855 0.117024
H187  H     H_    0.753827 0.201170 0.625207 0.152230
H188  H     H_    0.597014 0.154521 0.600815 0.201088
H189  H     H_    0.649137 0.224463 0.571233 0.160742
H190  H     H_    0.740441 0.131440 0.544654 0.141678
H191  H     H_    0.650062 0.110465 0.523287 0.154327
H192  H     H_    0.515733 0.368575 0.630598 0.152892
H193  H     H_    0.687153 0.061361 0.574137 0.147917
H194  H     H_    0.699983 0.545160 0.277067 0.160307
H195  H     H_    0.635081 0.618042 0.281085 0.132846
H196  H     H_    0.687547 0.522457 0.365819 0.172609
H197  H     H_    0.627068 0.598249 0.371340 0.169380
H198  H     H_    0.538930 0.537096 0.314231 0.135943
H199  H     H_    0.556791 0.484730 0.368195 0.136900
H200  H     H_    0.599691 0.459961 0.311861 0.193408
H201  H     H_    0.150837 0.355198 0.620352 0.168064
H202  H     H_    0.134643 0.279959 0.659519 0.095883
H203  H     H_    0.610350 0.813146 0.377860 0.163885
H204  H     H_    0.254302 0.287510 0.580364 0.183370
H205  H     H_    0.233020 0.209830 0.617559 0.190829
H206  H     H_    0.107641 0.205522 0.582371 0.143030
H207  H     H_    0.176862 0.198490 0.536214 0.149461
H208  H     H_    0.129225 0.282972 0.544537 0.152102
H209  H     H_    0.511999 0.265134 0.246929 0.205038
H210  H     H_    0.585968 0.272744 0.205631 0.093786
H211  H     H_    0.512054 0.394992 0.263429 0.168436
H212  H     H_    0.596149 0.407214 0.230361 0.175747
H213  H     H_    0.535922 0.370447 0.153699 0.143998
H214  H     H_    0.693576 0.841225 0.350526 0.105705
H215  H     H_    0.487330 0.444123 0.181672 0.135677
H216  H     H_    0.451896 0.352937 0.185765 0.147835
H217  H     H_    0.406421 0.783106 0.627457 0.163485
H218  H     H_    0.320441 0.816442 0.646920 0.110281
H219  H     H_    0.346497 0.660191 0.609027 0.192541
H220  H     H_    0.260073 0.702306 0.621203 0.187308
H221  H     H_    0.284559 0.794198 0.556144 0.146169
H222  H     H_    0.286256 0.702573 0.533223 0.154972
H223  H     H_    0.370529 0.750397 0.543255 0.145621
H224  H     H_    0.281907 0.436758 0.222082 0.110562
O1    O     O_3   0.500000 1.000000 0.750000 -0.451270
O2    O     O_R   0.439180 1.000000 0.143550 -0.550016
O3    O     O_R   0.000000 0.560820 0.856450 -0.543500
O4    O     O_R   0.000000 0.439180 0.143550 -0.549538
O5    O     O_R   0.939180 0.500000 0.356450 -0.546094
O6    O     O_R   0.060820 0.500000 0.643550 -0.536396
O7    O     O_R   0.500000 0.939180 0.356450 -0.557015
O8    O     O_R   0.500000 0.060820 0.643550 -0.543947
O9    O     O_R   0.060820 0.500000 0.356450 -0.534891
O10   O     O_R   0.939180 0.500000 0.643550 -0.554276
O11   O     O_R   0.500000 0.060820 0.356450 -0.546438
O12   O     O_3   0.500000 1.000000 0.250000 -0.447940
O13   O     O_R   0.500000 0.939180 0.643550 -0.546106
O14   O     O_R   0.646050 0.085470 0.778020 -0.518644
O15   O     O_R   0.353950 0.914530 0.221980 -0.531057
O16   O     O_R   0.914530 0.646050 0.778020 -0.516294
O17   O     O_R   0.085470 0.353950 0.221980 -0.511295
O18   O     O_R   0.353950 0.914530 0.778020 -0.520405
O19   O     O_R   0.646050 0.085470 0.221980 -0.495658
O20   O     O_R   0.085470 0.353950 0.778020 -0.514407
O21   O     O_R   0.914530 0.646050 0.221980 -0.509823
O22   O     O_R   0.646050 0.914530 0.221980 -0.516488
O23   O     O_3   0.000000 0.500000 0.750000 -0.451658
O24   O     O_R   0.353950 0.085470 0.778020 -0.512788
O25   O     O_R   0.914530 0.353950 0.221980 -0.515925
O26   O     O_R   0.085470 0.646050 0.778020 -0.514666
O27   O     O_R   0.353950 0.085470 0.221980 -0.526541
O28   O     O_R   0.646050 0.914530 0.778020 -0.525913
O29   O     O_R   0.085470 0.646050 0.221980 -0.529989
O30   O     O_R   0.914530 0.353950 0.778020 -0.519228
O31   O     O_R   0.146050 0.585470 0.278020 -0.526139
O32   O     O_R   0.853950 0.414530 0.721980 -0.519389
O33   O     O_R   0.414530 0.146050 0.278020 -0.526245
O34   O     O_3   0.000000 0.500000 0.250000 -0.455747
O35   O     O_R   0.585470 0.853950 0.721980 -0.511924
O36   O     O_R   0.853950 0.414530 0.278020 -0.520250
O37   O     O_R   0.146050 0.585470 0.721980 -0.513968
O38   O     O_R   0.585470 0.853950 0.278020 -0.520400
O39   O     O_R   0.414530 0.146050 0.721980 -0.525917
O40   O     O_R   0.146050 0.414530 0.721980 -0.523468
O41   O     O_R   0.853950 0.585470 0.278020 -0.502890
O42   O     O_R   0.414530 0.853950 0.721980 -0.520155
O43   O     O_R   0.585470 0.146050 0.278020 -0.534687
O44   O     O_R   0.853950 0.585470 0.721980 -0.514664
O45   O     O_R   0.439180 0.000000 0.856450 -0.546611
O46   O     O_R   0.146050 0.414530 0.278020 -0.503628
O47   O     O_R   0.585470 0.146050 0.721980 -0.518270
O48   O     O_R   0.414530 0.853950 0.278020 -0.515864
O49   O     O_3   0.347822 0.244542 0.672700 -0.540759
O50   O     O_3   0.642466 0.746538 0.322476 -0.547885
O51   O     O_3   0.767680 0.337437 0.668228 -0.540173
O52   O     O_3   0.216981 0.678066 0.336498 -0.544098
O53   O     O_3   0.656215 0.760880 0.670796 -0.535649
O54   O     O_3   0.386488 0.281085 0.289731 -0.565314
O55   O     O_3   0.276920 0.620192 0.701207 -0.529791
O56   O     O_R   0.560820 1.000000 0.143550 -0.544960
O57   O     O_3   0.723139 0.377000 0.301567 -0.541124
O58   O     O_3   0.329493 0.776227 0.334126 -0.541567
O59   O     O_3   0.664220 0.229781 0.667454 -0.548187
O60   O     O_3   0.737677 0.633849 0.315206 -0.534307
O61   O     O_3   0.233884 0.338017 0.668293 -0.539656
O62   O     O_3   0.608948 0.286823 0.281330 -0.553810
O63   O     O_3   0.369318 0.733171 0.688869 -0.548450
O64   O     O_3   0.280923 0.386466 0.289843 -0.535515
O65   O     O_3   0.765591 0.660511 0.668836 -0.543407
O66   O     O_3   0.883130 0.778557 0.204952 -0.529173
O67   O     O_R   0.000000 0.439180 0.856450 -0.554386
O68   O     O_3   0.161960 0.267601 0.831770 -0.543119
O69   O     O_3   0.274609 0.828528 0.164816 -0.545868
O70   O     O_3   0.729843 0.164420 0.832583 -0.548983
O71   O     O_3   0.112216 0.216177 0.214606 -0.533083
O72   O     O_3   0.844817 0.739392 0.828710 -0.541386
O73   O     O_3   0.767742 0.128339 0.190298 -0.531862
O74   O     O_3   0.232801 0.868977 0.811137 -0.547954
O75   O     O_3   0.837534 0.268172 0.831806 -0.541368
O76   O     O_3   0.179725 0.714324 0.163084 -0.546467
O77   O     O_3   0.262391 0.158180 0.830003 -0.535264
O78   O     O_R   0.000000 0.560820 0.143550 -0.534692
O79   O     O_3   0.770010 0.871222 0.191349 -0.538061
O80   O     O_3   0.119796 0.776392 0.798918 -0.531715
O81   O     O_3   0.861609 0.242698 0.180356 -0.539104
O82   O     O_3   0.747006 0.849870 0.826155 -0.537607
O83   O     O_3   0.222232 0.120568 0.201553 -0.542770
O84   O     O_R   0.560820 0.000000 0.856450 -0.542425
Zn1   Zn    Zn3+2 0.500000 0.086790 0.710340 0.930163
Zn2   Zn    Zn3+2 0.000000 0.413210 0.789660 0.924259
Zn3   Zn    Zn3+2 0.413210 1.000000 0.210340 0.924686
Zn4   Zn    Zn3+2 0.586790 1.000000 0.789660 0.931697
Zn5   Zn    Zn3+2 0.000000 0.413210 0.210340 0.931339
Zn6   Zn    Zn3+2 0.000000 0.586790 0.789660 0.930797
Zn7   Zn    Zn3+2 0.586790 1.000000 0.210340 0.939603
Zn8   Zn    Zn3+2 0.413210 1.000000 0.789660 0.932904
Zn9   Zn    Zn3+2 0.500000 0.913210 0.289660 0.928617
Zn10  Zn    Zn3+2 0.913210 0.500000 0.710340 0.925830
Zn11  Zn    Zn3+2 0.086790 0.500000 0.289660 0.937103
Zn12  Zn    Zn3+2 0.500000 0.913210 0.710340 0.932982
Zn13  Zn    Zn3+2 0.500000 0.086790 0.289660 0.915315
Zn14  Zn    Zn3+2 0.086790 0.500000 0.710340 0.933786
Zn15  Zn    Zn3+2 0.913210 0.500000 0.289660 0.932850
Zn16  Zn    Zn3+2 0.000000 0.586790 0.210340 0.931954

loop_
_geom_bond_atom_site_label_1
_geom_bond_atom_site_label_2
_ccdc_geom_bond_type
C85   H117  S    
C92   H132  S    
C52   H38   S    
C93   H133  S    
C176  H170  S    
C34   H219  S    
C16   H175  S    
C91   H129  S    
C120  C166  S    
C15   H173  S    
C127  C170  A    
C151  C170  A    
C75   H93   S    
C90   O56   A    
O67   Zn2   S    
O18   Zn8   S    
C59   H53   S    
C99   O5    A    
C140  C159  A    
C5    C6    S    
C85   H116  S    
O28   Zn4   S    
C37   H224  S    
C57   C152  T    
C49   H29   S    
C73   C74   S    
C118  O29   A    
C14   O57   S    
C53   H41   S    
O23   Zn10  S    
C18   H182  S    
C65   H69   S    
C43   H17   S    
C44   H19   S    
C45   H21   S    
C60   H56   S    
C144  C160  A    
C3    C184  S    
C105  O16   A    
C123  C131  A    
C126  C136  A    
C176  H192  S    
C21   C22   S    
C104  O15   A    
C148  C165  A    
C182  H113  S    
C149  C168  A    
C142  C158  A    
O47   Zn1   S    
O34   Zn11  S    
C5    H150  S    
C175  H148  S    
C46   C141  T    
C51   H34   S    
C173  H112  S    
C112  O38   A    
C51   C52   S    
C100  O6    A    
C42   H14   S    
C101  O7    A    
C90   C152  S    
C58   H51   S    
C73   H87   S    
C76   O77   S    
C27   O61   S    
C74   H88   S    
C62   H61   S    
C69   H77   S    
C31   H212  S    
C91   H128  S    
O2    Zn3   S    
C107  O42   A    
O84   Zn4   S    
C116  C171  S    
C183  H135  S    
O10   Zn10  S    
O36   Zn15  S    
C43   C44   S    
C50   O69   S    
O35   Zn12  S    
C40   O65   S    
C39   H7    S    
C175  C176  S    
C132  O60   S    
C107  C162  S    
C4    O53   S    
C81   H104  S    
O31   Zn11  S    
C19   H184  S    
C93   O83   S    
C69   H76   S    
C64   H66   S    
C111  O41   A    
C94   H136  S    
C36   H221  S    
C104  C159  S    
C114  O36   A    
C11   H166  S    
C8    H157  S    
C39   H6    S    
C121  C168  A    
C28   C29   S    
C4    H147  S    
C122  C167  A    
C137  C160  A    
C179  H35   S    
C99   O9    A    
O32   Zn10  S    
O6    Zn14  S    
C4    C5    S    
O29   Zn16  S    
C95   H139  S    
C90   O2    A    
C63   H63   S    
C49   H31   S    
C80   H102  S    
C132  C157  A    
C117  O28   A    
O1    Zn1   S    
C106  O46   A    
O12   Zn13  S    
C25   C26   S    
C41   H11   S    
C30   H209  S    
C117  C172  S    
C37   H3    S    
C38   H4    S    
C60   O72   S    
C83   H110  S    
C29   H206  S    
O41   Zn15  S    
C144  C154  A    
C22   H191  S    
C78   H99   S    
C67   H74   S    
C82   H107  S    
C99   C119  S    
C178  H2    S    
C109  O19   A    
C20   C21   S    
C117  O35   A    
O1    Zn8   S    
C146  O74   S    
C31   H211  S    
C143  C161  A    
C150  O79   S    
C61   H59   S    
C10   O55   S    
C88   H122  S    
C45   H22   S    
C30   O62   S    
C112  O22   A    
C155  O83   S    
C66   O74   S    
C113  C168  S    
C178  C179  S    
C153  O81   S    
C7    C8    S    
C84   H111  S    
C26   H200  S    
C180  H57   S    
C70   H80   S    
C173  H1    S    
C32   H213  S    
C33   H217  S    
C113  O24   A    
C79   O45   A    
C102  O13   A    
C21   H188  S    
C38   C39   S    
C27   H201  S    
C105  C160  S    
O43   Zn13  S    
C72   H84   S    
C22   H193  S    
C106  C161  S    
O7    Zn9   S    
C111  O21   A    
O16   Zn6   S    
C31   C32   S    
C86   H118  S    
C73   O76   S    
C36   H223  S    
C89   C91   S    
C96   O67   A    
C134  O62   S    
C133  O61   S    
C122  O50   S    
C66   C67   S    
C4    H149  S    
O42   Zn12  S    
C20   H186  S    
C13   C108  T    
O78   Zn16  S    
C110  O40   A    
C176  H181  S    
C40   H9    S    
C173  C175  S    
C54   H43   S    
C25   H196  S    
C100  C108  S    
C115  O26   A    
C48   H28   S    
O11   Zn13  S    
C29   H208  S    
C138  O66   S    
C103  O14   A    
O4    Zn5   S    
C116  O27   A    
C91   C92   S    
C12   H168  S    
O23   Zn14  S    
C129  O58   S    
C112  C167  S    
C107  O18   A    
C6    H154  S    
C128  C134  A    
C56   O71   S    
C143  C155  A    
C83   C84   S    
C17   C18   S    
C14   H171  S    
C35   C130  T    
O34   Zn15  S    
O22   Zn7   S    
C124  O52   S    
C178  H13   S    
C66   H72   S    
C86   H119  S    
C71   H82   S    
C17   H179  S    
C9    H160  S    
C143  O71   S    
C72   H85   S    
C96   O3    A    
C19   H185  S    
C57   C68   S    
O30   Zn2   S    
C173  O49   S    
C26   H198  S    
C20   O59   S    
C70   H78   S    
C3    H146  S    
C127  O55   S    
C54   C55   S    
O38   Zn9   S    
C34   H220  S    
C142  C147  A    
C16   H176  S    
C135  O63   S    
C63   C64   S    
C175  H159  S    
C95   H140  S    
O23   Zn2   S    
C50   H33   S    
C11   H165  S    
C47   H25   S    
C7    H156  S    
C71   C72   S    
C182  H101  S    
C180  H68   S    
C183  H141  S    
C85   H115  S    
O40   Zn14  S    
C56   C58   S    
C34   C36   S    
C20   H187  S    
C61   C62   S    
C113  O39   A    
C86   O81   S    
C10   C11   S    
O33   Zn13  S    
C28   H205  S    
C101  O11   A    
C17   O58   S    
C102  O8    A    
C44   H20   S    
C14   C15   S    
C77   H97   S    
C81   H105  S    
C89   O82   S    
O39   Zn1   S    
C114  C169  S    
O25   Zn5   S    
C87   C88   S    
C128  O57   S    
C133  C156  A    
C41   C42   S    
C151  O80   S    
C114  O25   A    
C89   H126  S    
C181  C182  S    
C47   O68   S    
C146  C162  A    
C88   H125  S    
C77   H96   S    
C42   H15   S    
C127  C135  A    
C10   H163  S    
C73   H86   S    
C30   C31   S    
C106  O17   A    
C62   H62   S    
C80   O79   S    
O14   Zn4   S    
O1    Zn12  S    
C89   H127  S    
C18   C19   S    
C96   C141  S    
C123  C166  A    
C2    C97   T    
C32   H215  S    
C9    H162  S    
C70   C71   S    
C105  O44   A    
C19   H183  S    
C69   H75   S    
O15   Zn3   S    
C3    H144  S    
C92   H131  S    
C52   H37   S    
C15   H174  S    
C93   H134  S    
C36   H222  S    
C139  O68   S    
C125  O53   S    
C126  O54   S    
C95   H138  S    
C8    H158  S    
C136  C161  A    
O21   Zn16  S    
C18   H180  S    
C144  O72   S    
O8    Zn1   S    
C55   H47   S    
C59   H54   S    
C84   C85   S    
O13   Zn12  S    
C177  O50   S    
C103  O47   A    
C125  C137  A    
C58   C59   S    
C53   C54   S    
C120  O30   A    
C49   H30   S    
C139  C149  A    
C60   C61   S    
C136  O64   S    
C30   H210  S    
C148  O76   S    
C48   H27   S    
C50   H32   S    
O46   Zn11  S    
C38   H5    S    
C65   H70   S    
C98   C130  S    
C43   H18   S    
C50   C51   S    
C33   O63   S    
C60   H55   S    
C78   H100  S    
C67   H73   S    
C82   H108  S    
C48   C49   S    
C79   O84   A    
C87   H121  S    
C83   O80   S    
C180  C181  S    
C68   C163  T    
C61   H58   S    
C179  H24   S    
C24   C119  T    
C21   H189  S    
C118  C165  S    
C76   H95   S    
O19   Zn7   S    
C86   C87   S    
O17   Zn5   S    
C58   H50   S    
C109  C164  S    
C103  C158  S    
C62   H60   S    
C74   H89   S    
O44   Zn10  S    
C184  H143  S    
C64   C65   S    
C111  C157  S    
C39   H8    S    
C177  H203  S    
C7    O54   S    
C150  C167  A    
C134  C164  A    
C124  C129  A    
C23   H194  S    
C94   C95   S    
C98   O4    A    
C110  C156  S    
C10   H164  S    
C64   H65   S    
O3    Zn6   S    
C74   C75   S    
C52   H39   S    
C177  C178  S    
C153  C169  A    
C147  O75   S    
O37   Zn14  S    
C35   C46   S    
C145  O73   S    
C1    C102  S    
C28   H204  S    
O20   Zn2   S    
O23   Zn6   S    
O45   Zn8   S    
C93   C94   S    
C75   H92   S    
C131  C158  A    
C83   H109  S    
C55   H45   S    
C6    H152  S    
C59   H52   S    
O56   Zn7   S    
C183  C184  S    
C140  C148  A    
C154  O82   S    
C81   C82   S    
C40   H10   S    
C138  C150  A    
C53   H40   S    
C63   H64   S    
C120  O32   A    
C12   H169  S    
C37   C38   S    
C16   H177  S    
C29   H207  S    
O9    Zn11  S    
C41   H12   S    
C131  O59   S    
C43   O66   S    
C15   C16   S    
C56   H48   S    
C22   H190  S    
C125  C172  A    
C78   H98   S    
O27   Zn3   S    
C126  C171  A    
C82   H106  S    
C54   H42   S    
C8    C9    S    
C14   H172  S    
C116  O33   A    
O34   Zn16  S    
C77   C78   S    
O24   Zn8   S    
C145  C153  A    
C177  H214  S    
C180  O51   S    
C121  O49   S    
C71   H81   S    
C17   H178  S    
C87   H120  S    
O5    Zn15  S    
C122  C132  A    
C181  H90   S    
C109  O43   A    
C84   H114  S    
C26   H199  S    
C3    H145  S    
C92   H130  S    
C1    C174  T    
C32   H216  S    
C33   H218  S    
C75   H91   S    
C115  O37   A    
C76   C77   S    
C137  O65   S    
C27   H202  S    
C100  O10   A    
C115  C170  S    
C72   H83   S    
C124  C165  A    
C13   C24   S    
C146  C151  A    
C67   C69   S    
C110  O20   A    
C55   H44   S    
C7    H155  S    
C147  C166  A    
C47   C48   S    
C181  H79   S    
O12   Zn3   S    
C33   C34   S    
C154  C172  A    
C63   O73   S    
C118  O31   A    
C70   O75   S    
C179  H46   S    
O12   Zn9   S    
C183  O52   S    
C40   C41   S    
C65   H67   S    
C135  C162  A    
C56   H49   S    
C23   O60   S    
C129  C159  A    
C142  O70   S    
C25   H197  S    
C80   H103  S    
O1    Zn4   S    
C98   O78   A    
C44   C45   S    
C79   C163  S    
C80   C81   S    
O48   Zn9   S    
O34   Zn5   S    
C11   C12   S    
C12   H167  S    
C145  C164  A    
C123  O51   S    
C51   H36   S    
C5    H151  S    
C94   H137  S    
C37   O64   S    
C76   H94   S    
C42   H16   S    
C149  O77   S    
C6    H153  S    
C2    C174  S    
C104  O48   A    
C138  C157  A    
C139  C156  A    
C182  H124  S    
C184  H142  S    
C23   C25   S    
C140  O69   S    
O12   Zn7   S    
C155  C171  A    
C128  C169  A    
C66   H71   S    
C88   H123  S    
C45   H23   S    
C47   H26   S    
C9    H161  S    
C27   C28   S    
C23   H195  S    
C121  C133  A    
C53   O70   S    
C97   C101  S    
O26   Zn6   S    
