data_mof_unit_7742.cif
_audit_creation_date              2012-12-11T14:10:55-0500
_audit_creation_method            fapswitch 2.2
_symmetry_space_group_name_H-M    P1
_symmetry_Int_Tables_number       1
_space_group_crystal_system       triclinic
_cell_length_a                    19.71575
_cell_length_b                    17.245974
_cell_length_c                    15.425273
_cell_angle_alpha                 89.99983
_cell_angle_beta                  52.360415
_cell_angle_gamma                 90.000202
_cell_volume                      4153.2362263

loop_
_atom_site_label
_atom_site_type_symbol
_atom_type_description
_atom_site_fract_x
_atom_site_fract_y
_atom_site_fract_z
_atom_type_partial_charge
C1    C     C_R   0.339370 0.175315 0.048575 -0.062319
C2    C     C_3   0.681814 0.743795 0.444286 0.344091
C3    C     C_3   0.775252 0.200563 0.427985 0.324098
C4    C     C_3   0.224647 0.799539 0.572112 0.324041
C5    C     C_3   0.724861 0.700649 0.571936 0.324113
C6    C     C_3   0.275392 0.299564 0.427858 0.324034
C7    C     C_3   0.181989 0.756037 0.444159 0.343952
C8    C     C_3   0.818167 0.243811 0.555737 0.344080
C9    C     C_2   0.286148 0.687990 0.954938 -0.108039
C10   C     C_2   0.713847 0.312013 0.045070 -0.108302
C11   C     C_2   0.809051 0.742811 0.905640 -0.071244
C12   C     C_R   0.660630 0.824685 0.951424 -0.062322
C13   C     C_2   0.190955 0.257191 0.094353 -0.071252
C14   C     C_2   0.690948 0.242811 0.094362 -0.071277
C15   C     C_2   0.309047 0.757191 0.905645 -0.071204
C16   C     C_2   0.213853 0.187990 0.045060 -0.108089
C17   C     C_2   0.786150 0.812011 0.954936 -0.108299
C18   C     C_R   0.346364 0.831081 0.219696 -0.052455
C19   C     C_R   0.653653 0.168900 0.780297 -0.052294
C20   C     C_R   0.610569 0.803263 0.785623 -0.085923
C21   C     C_R   0.389457 0.196750 0.214342 -0.086086
C22   C     C_R   0.889461 0.303251 0.214354 -0.085969
C23   C     C_R   0.625471 0.196897 0.005321 -0.101944
C24   C     C_R   0.110556 0.696745 0.785648 -0.086082
C25   C     C_R   0.153634 0.331078 0.780304 -0.052452
C26   C     C_R   0.846347 0.668898 0.219703 -0.052278
C27   C     C_R   0.365352 0.890046 0.897014 -0.109692
C28   C     C_R   0.634646 0.109955 0.102989 -0.109660
C29   C     C_R   0.670099 0.912943 0.049059 -0.056145
C30   C     C_R   0.329901 0.087057 0.950940 -0.056076
C31   C     C_R   0.829900 0.412944 0.950943 -0.056134
C32   C     C_R   0.170099 0.587057 0.049059 -0.056079
C33   C     C_R   0.134648 0.390046 0.102985 -0.109707
C34   C     C_R   0.374528 0.803103 0.994680 -0.101853
C35   C     C_R   0.865354 0.609955 0.897011 -0.109656
C36   C     C_R   0.397859 0.105476 0.310006 -0.074375
C37   C     C_R   0.602176 0.894553 0.689970 -0.074526
C38   C     C_R   0.646535 0.076570 0.684443 -0.028397
C39   C     C_R   0.353460 0.923424 0.315555 -0.028305
C40   C     C_R   0.853469 0.576573 0.315560 -0.028424
C41   C     C_R   0.146539 0.423423 0.684444 -0.028295
C42   C     C_R   0.102155 0.605469 0.689986 -0.074391
C43   C     C_R   0.897857 0.394533 0.310011 -0.074458
C44   C     C_R   0.287585 0.148384 0.022871 0.118188
C45   C     C_R   0.874529 0.696897 0.994679 -0.101941
C46   C     C_R   0.712415 0.851616 0.977127 0.118262
C47   C     C_R   0.653146 0.185502 0.067261 0.135640
C48   C     C_R   0.346851 0.814500 0.932744 0.135665
C49   C     C_R   0.846854 0.685502 0.932740 0.135637
C50   C     C_R   0.153150 0.314500 0.067255 0.135658
C51   C     C_R   0.212415 0.648384 0.977128 0.118163
C52   C     C_R   0.787582 0.351618 0.022877 0.118261
C53   C     C_R   0.302132 0.865870 0.321228 0.248638
C54   C     C_R   0.697881 0.134103 0.678764 0.248633
C55   C     C_R   0.627770 0.820144 0.686938 0.287074
C56   C     C_R   0.125472 0.303104 0.005319 -0.101874
C57   C     C_R   0.372292 0.179897 0.313006 0.286924
C58   C     C_R   0.872289 0.320112 0.313025 0.286990
C59   C     C_R   0.127733 0.679886 0.686978 0.286953
C60   C     C_R   0.197865 0.365868 0.678771 0.248631
C61   C     C_R   0.802124 0.634106 0.321239 0.248658
C62   C     C_3   0.273234 0.204229 0.523567 0.325327
C63   C     C_3   0.726611 0.795809 0.476320 0.325235
C64   C     C_3   0.820215 0.148563 0.460103 0.350469
C65   C     C_3   0.179681 0.851402 0.539854 0.350602
C66   C     C_3   0.679874 0.648596 0.539904 0.350383
C67   C     C_R   0.160630 0.675316 0.951424 -0.062297
C68   C     C_3   0.320346 0.351412 0.460147 0.350631
C69   C     C_3   0.226768 0.704218 0.476412 0.325319
C70   C     C_3   0.773391 0.295770 0.523622 0.325248
C71   C     C_3   0.618512 0.715903 0.564186 0.364359
C72   C     C_3   0.381515 0.283947 0.435993 0.364240
C73   C     C_3   0.287045 0.770482 0.454000 0.335742
C74   C     C_3   0.712982 0.229613 0.546115 0.335852
C75   C     C_3   0.212972 0.270502 0.545965 0.335740
C76   C     C_3   0.787068 0.729688 0.453791 0.335898
C77   C     C_3   0.881531 0.215910 0.435853 0.364333
C78   C     C_R   0.839368 0.324686 0.048580 -0.062341
C79   C     C_3   0.118498 0.783948 0.564020 0.364244
C80   C     C_3   0.664188 0.767481 0.595328 -0.450494
C81   C     C_3   0.335869 0.232576 0.404599 -0.450528
C82   C     C_3   0.242544 0.822773 0.421211 -0.440237
C83   C     C_3   0.757479 0.177187 0.578766 -0.440210
C84   C     C_3   0.257462 0.322777 0.578784 -0.440230
C85   C     C_3   0.742548 0.677206 0.421225 -0.440236
C86   C     C_3   0.835876 0.267435 0.404628 -0.450464
C87   C     C_3   0.164154 0.732562 0.595385 -0.450545
C88   C     C_3   0.318003 0.256031 0.555849 0.343946
Cl1   Cl    Cl    0.505256 0.708820 0.640891 -0.468475
Cl2   Cl    Cl    0.760702 0.891915 0.426425 -0.434371
Cl3   Cl    Cl    0.856072 0.051720 0.417820 -0.384184
Cl4   Cl    Cl    0.143646 0.948222 0.582102 -0.383990
Cl5   Cl    Cl    0.644042 0.551759 0.582266 -0.384232
Cl6   Cl    Cl    0.356387 0.448234 0.417926 -0.383986
Cl7   Cl    Cl    0.261109 0.608116 0.426616 -0.434094
Cl8   Cl    Cl    0.739236 0.391867 0.573490 -0.434328
Cl9   Cl    Cl    0.348478 0.228146 0.638991 -0.464977
Cl10  Cl    Cl    0.651098 0.771372 0.361322 -0.464491
Cl11  Cl    Cl    0.741136 0.168736 0.350101 -0.502928
Cl12  Cl    Cl    0.494764 0.290820 0.359580 -0.468144
Cl13  Cl    Cl    0.258606 0.831570 0.650119 -0.503057
Cl14  Cl    Cl    0.759063 0.668904 0.649757 -0.502904
Cl15  Cl    Cl    0.241462 0.331618 0.349829 -0.503058
Cl16  Cl    Cl    0.151483 0.728173 0.361041 -0.464916
Cl17  Cl    Cl    0.848801 0.271466 0.638762 -0.464630
Cl18  Cl    Cl    0.399451 0.757877 0.383678 -0.419264
Cl19  Cl    Cl    0.600576 0.242357 0.616625 -0.419390
Cl20  Cl    Cl    0.100569 0.257910 0.616258 -0.419258
Cl21  Cl    Cl    0.899482 0.742482 0.383188 -0.419393
Cl22  Cl    Cl    0.994781 0.208879 0.359231 -0.468401
Cl23  Cl    Cl    0.005247 0.790833 0.640462 -0.468130
Cl24  Cl    Cl    0.238874 0.108129 0.573352 -0.434077
H1    H     H_    0.327478 0.780116 0.198720 0.154619
H2    H     H_    0.638458 0.083811 0.163650 0.142457
H3    H     H_    0.690414 0.946559 0.088698 0.126162
H4    H     H_    0.309587 0.053442 0.911299 0.126195
H5    H     H_    0.809585 0.446559 0.911304 0.126159
H6    H     H_    0.190413 0.553441 0.088700 0.126194
H7    H     H_    0.138462 0.416189 0.163645 0.142455
H8    H     H_    0.861542 0.583812 0.836351 0.142454
H9    H     H_    0.404632 0.078377 0.367556 0.163331
H10   H     H_    0.595384 0.921655 0.632440 0.163406
H11   H     H_    0.659111 0.042383 0.617373 0.168843
H12   H     H_    0.672556 0.219858 0.801260 0.154555
H13   H     H_    0.340873 0.957620 0.382626 0.168808
H14   H     H_    0.840899 0.542384 0.382627 0.168853
H15   H     H_    0.159127 0.457618 0.617371 0.168803
H16   H     H_    0.095382 0.578371 0.632436 0.163337
H17   H     H_    0.904648 0.421634 0.367541 0.163384
H18   H     H_    0.309580 0.667008 0.998470 0.141196
H19   H     H_    0.690415 0.332995 0.001537 0.141186
H20   H     H_    0.787616 0.722613 0.859487 0.163291
H21   H     H_    0.212390 0.277390 0.140506 0.163220
H22   H     H_    0.712383 0.222612 0.140515 0.163284
H23   H     H_    0.610332 0.746633 0.815703 0.154612
H24   H     H_    0.287612 0.777390 0.859492 0.163201
H25   H     H_    0.190421 0.167009 0.001527 0.141203
H26   H     H_    0.809581 0.832993 0.998469 0.141180
H27   H     H_    0.329630 0.224765 0.097675 0.120206
H28   H     H_    0.670370 0.775235 0.902324 0.120206
H29   H     H_    0.617905 0.251553 0.977960 0.111114
H30   H     H_    0.382096 0.748447 0.022038 0.111120
H31   H     H_    0.882095 0.751552 0.022041 0.111112
H32   H     H_    0.117905 0.248447 0.977961 0.111119
H33   H     H_    0.170370 0.724766 0.902325 0.120196
H34   H     H_    0.389717 0.253370 0.184228 0.154717
H35   H     H_    0.829626 0.275238 0.097685 0.120221
H36   H     H_    0.889710 0.246626 0.184256 0.154645
H37   H     H_    0.110301 0.753368 0.815755 0.154709
H38   H     H_    0.172517 0.280113 0.801281 0.154634
H39   H     H_    0.827442 0.719857 0.198742 0.154518
H40   H     H_    0.361539 0.916190 0.836354 0.142450
N1    N     N_R   0.408680 0.130810 0.995780 -0.052648
N2    N     N_R   0.578590 0.132790 0.846380 -0.059895
N3    N     N_R   0.578590 0.867210 0.846380 -0.069947
N4    N     N_R   0.421410 0.132790 0.153620 -0.069942
N5    N     N_R   0.921410 0.367210 0.153620 -0.069943
N6    N     N_R   0.078590 0.632790 0.846380 -0.069945
N7    N     N_R   0.078590 0.367210 0.846380 -0.059935
N8    N     N_R   0.921410 0.632790 0.153620 -0.059881
N9    N     N_R   0.403840 0.921910 0.935760 -0.056856
N10   N     N_R   0.596160 0.078090 0.064240 -0.056859
N11   N     N_R   0.596160 0.921910 0.064240 -0.048887
N12   N     N_R   0.591320 0.869190 0.004220 -0.052661
N13   N     N_R   0.403840 0.078090 0.935760 -0.048893
N14   N     N_R   0.903840 0.421910 0.935760 -0.048887
N15   N     N_R   0.096160 0.578090 0.064240 -0.048892
N16   N     N_R   0.096160 0.421910 0.064240 -0.056858
N17   N     N_R   0.903840 0.578090 0.935760 -0.056858
N18   N     N_R   0.426250 0.076100 0.213650 -0.073876
N19   N     N_R   0.573750 0.923900 0.786350 -0.073895
N20   N     N_R   0.573750 0.076100 0.786350 -0.058391
N21   N     N_R   0.426250 0.923900 0.213650 -0.058392
N22   N     N_R   0.926250 0.576100 0.213650 -0.058399
N23   N     N_R   0.591320 0.130810 0.004220 -0.057502
N24   N     N_R   0.073750 0.423900 0.786350 -0.058392
N25   N     N_R   0.073750 0.576100 0.786350 -0.073879
N26   N     N_R   0.926250 0.423900 0.213650 -0.073888
N27   N     N_R   0.408680 0.869190 0.995780 -0.057503
N28   N     N_R   0.908680 0.630810 0.995780 -0.057500
N29   N     N_R   0.091320 0.369190 0.004220 -0.057501
N30   N     N_R   0.091320 0.630810 0.004220 -0.052642
N31   N     N_R   0.908680 0.369190 0.995780 -0.052661
N32   N     N_R   0.421410 0.867210 0.153620 -0.059928
Ni1   Ni    Ni4+2 0.500000 0.131570 0.000000 0.248351
Ni2   Ni    Ni4+2 0.500000 0.868430 0.000000 0.248323
Ni3   Ni    Ni4+2 0.000000 0.631570 0.000000 0.248371
Ni4   Ni    Ni4+2 0.000000 0.368430 0.000000 0.248309
Ni5   Ni    Ni4+2 0.488900 0.000000 0.862310 0.265391
Ni6   Ni    Ni4+2 0.511100 0.000000 0.137690 0.265390
Ni7   Ni    Ni4+2 0.988900 0.500000 0.862310 0.265396
Ni8   Ni    Ni4+2 0.011100 0.500000 0.137690 0.265375

loop_
_geom_bond_atom_site_label_1
_geom_bond_atom_site_label_2
_ccdc_geom_bond_type
C27   C48   A    
C65   Cl4   S    
C28   C47   A    
C27   H40   S    
N25   Ni7   S    
C20   N3    A    
C8    C83   S    
C64   C77   S    
C29   N11   A    
N11   N12   A    
C9    C51   S    
N5    Ni4   S    
C74   C83   S    
C39   N21   A    
C10   C52   S    
C8    Cl17  S    
C66   C85   S    
C79   C87   S    
C34   N27   A    
C28   N10   A    
C6    C75   S    
C43   N26   A    
N27   Ni2   S    
C30   H4    S    
C3    C64   S    
C23   N23   A    
N15   Ni8   S    
C11   H20   S    
C65   C79   S    
C26   H39   S    
C67   N30   A    
N6    N25   A    
N14   Ni7   S    
N12   Ni2   S    
C4    C65   S    
C24   N6    A    
C75   C84   S    
N15   N30   A    
C12   N12   A    
C56   N29   A    
C42   N25   A    
N21   Ni6   S    
C8    C70   S    
N19   Ni5   S    
C2    C85   S    
C78   N31   A    
C3    C74   S    
C41   H15   S    
C70   C74   S    
C31   H5    S    
C18   C53   A    
C74   Cl19  S    
C10   H19   S    
C65   C82   S    
C11   C17   D    
C16   H25   S    
N21   N32   A    
C76   Cl21  S    
C71   Cl1   S    
C35   C49   A    
N13   Ni5   S    
C12   H28   S    
C26   N8    A    
C17   H26   S    
C25   C60   A    
C18   N32   A    
N9    N27   A    
C16   C44   S    
N17   N28   A    
C38   H11   S    
C69   C87   S    
C42   H16   S    
N5    N26   A    
C6    C68   S    
C29   H3    S    
C75   Cl20  S    
C6    C81   S    
N6    Ni3   S    
C3    C86   S    
C30   C44   A    
C35   H8    S    
N8    N22   A    
C15   C48   S    
C20   C55   A    
C52   C78   A    
C58   C86   S    
C18   H1    S    
C54   C83   S    
C72   C88   S    
N29   Ni4   S    
C37   N19   A    
C63   C80   S    
N2    Ni1   S    
C19   H12   S    
C23   C47   A    
C68   C84   S    
C84   C88   S    
C43   H17   S    
C17   C46   S    
C30   N13   A    
N9    Ni5   S    
C36   C57   A    
C10   C14   D    
C4    C87   S    
C25   N7    A    
N24   Ni7   S    
N10   N23   A    
C14   H22   S    
C33   C50   A    
C9    H18   S    
C62   C88   S    
C50   C56   A    
C67   H33   S    
C1    N1    A    
C53   C82   S    
C37   C55   A    
N7    Ni4   S    
C70   Cl8   S    
C64   C83   S    
C21   C57   A    
C11   C49   S    
N28   Ni3   S    
N3    N19   A    
N23   Ni1   S    
N26   Ni8   S    
C1    C44   A    
C66   C71   S    
C38   C54   A    
C31   N14   A    
C45   C49   A    
C68   C72   S    
C40   H14   S    
C4    Cl13  S    
N2    N20   A    
C51   C67   A    
C6    Cl15  S    
C5    C80   S    
C69   C73   S    
C4    C73   S    
C61   C85   S    
C78   H35   S    
C66   Cl5   S    
C19   C54   A    
C12   C46   A    
C62   C81   S    
C22   H36   S    
C77   C86   S    
C33   H7    S    
N7    N24   A    
C8    C77   S    
C35   N17   A    
C57   C81   S    
C62   C75   S    
C45   N28   A    
C33   N16   A    
C34   C48   A    
N17   Ni7   S    
C2    C71   S    
C70   C86   S    
C73   C82   S    
N10   Ni6   S    
C2    C63   S    
C39   H13   S    
C7    C79   S    
C72   Cl12  S    
C32   C51   A    
C5    Cl14  S    
C34   H30   S    
N1    N13   A    
C64   Cl3   S    
C13   H21   S    
C41   N24   A    
N4    Ni1   S    
N14   N31   A    
C72   C81   S    
C41   C60   A    
C32   H6    S    
C5    C66   S    
C69   Cl7   S    
N3    Ni2   S    
C1    H27   S    
C42   C59   A    
C22   C58   A    
C71   C80   S    
C13   C16   D    
C38   N20   A    
C14   C47   S    
C15   H24   S    
C22   N5    A    
N20   Ni5   S    
C68   Cl6   S    
N18   Ni6   S    
C36   N18   A    
N16   Ni8   S    
C31   C52   A    
C79   Cl23  S    
C29   C46   A    
C7    Cl16  S    
C21   H34   S    
C5    C76   S    
C7    C69   S    
C9    C15   D    
C88   Cl9   S    
N31   Ni4   S    
C27   N9    A    
C40   N22   A    
C55   C80   S    
C60   C84   S    
C73   Cl18  S    
C39   C53   A    
N1    Ni1   S    
C24   C59   A    
C28   H2    S    
C63   Cl2   S    
N4    N18   A    
C13   C50   S    
C21   N4    A    
N32   Ni2   S    
C36   H9    S    
N11   Ni6   S    
N30   Ni3   S    
C20   H23   S    
C77   Cl22  S    
C59   C87   S    
C24   H37   S    
C40   C61   A    
C37   H10   S    
C56   H32   S    
C3    Cl11  S    
C7    C82   S    
C62   Cl24  S    
C2    Cl10  S    
N16   N29   A    
C63   C76   S    
C32   N15   A    
C23   H29   S    
C45   H31   S    
C19   N2    A    
C43   C58   A    
C25   H38   S    
N8    Ni3   S    
C76   C85   S    
N22   Ni8   S    
C26   C61   A    
