data_mof_unit_35485.cif
_audit_creation_date              2012-12-10T17:40:24-0500
_audit_creation_method            fapswitch 2.2
_symmetry_space_group_name_H-M    P1
_symmetry_Int_Tables_number       1
_space_group_crystal_system       triclinic
_cell_length_a                    13.852612
_cell_length_b                    15.034028
_cell_length_c                    15.83657
_cell_angle_alpha                 87.906291
_cell_angle_beta                  69.957599
_cell_angle_gamma                 89.557699
_cell_volume                      3096.28655658

loop_
_atom_site_label
_atom_site_type_symbol
_atom_type_description
_atom_site_fract_x
_atom_site_fract_y
_atom_site_fract_z
_atom_type_partial_charge
C1    C     C_R   0.499893 0.670882 0.498828 0.949139
C2    C     C_R   0.496913 0.767492 0.500025 -0.243920
C3    C     C_R   0.544465 0.189912 0.419482 0.298083
C4    C     C_R   0.463033 0.809765 0.582666 0.290776
C5    C     C_R   0.530333 0.097012 0.416285 -0.039944
C6    C     C_R   0.449514 0.903400 0.583938 -0.040232
C7    C     C_R   0.487247 0.047343 0.499081 -0.056928
C8    C     C_R   0.485904 0.953221 0.500563 -0.059133
C9    C     C_R   0.443575 0.091643 0.580383 -0.027306
C10   C     C_R   0.519562 0.909283 0.418274 -0.030855
C11   C     C_R   0.554575 0.051285 0.334802 0.426362
C12   C     C_R   0.499489 0.329197 0.501373 0.925678
C13   C     C_R   0.400191 0.949992 0.663781 0.424250
C14   C     C_R   0.547391 0.959049 0.337075 -0.202657
C15   C     C_R   0.397356 0.042466 0.660659 -0.199692
C16   C     C_R   0.437389 0.501551 0.672019 0.841790
C17   C     C_R   0.562574 0.498914 0.327846 0.875140
C18   C     C_R   0.225230 0.563701 0.449619 0.441158
C19   C     C_R   0.773565 0.438245 0.553233 0.469596
C20   C     C_R   0.186878 0.438633 0.552560 0.579073
C21   C     C_R   0.814643 0.559632 0.446406 0.593983
C22   C     C_R   0.085153 0.435337 0.550210 -0.133671
C23   C     C_R   0.388703 0.558193 0.087509 -0.197876
C24   C     C_R   0.914556 0.565527 0.452593 -0.135412
C25   C     C_R   0.050958 0.502005 0.502628 -0.036398
C26   C     C_R   0.947559 0.500434 0.502630 -0.046882
C27   C     C_R   0.120423 0.569402 0.454016 -0.157597
C28   C     C_R   0.877530 0.433768 0.552094 -0.140895
C29   C     C_R   0.017620 0.366120 0.593871 -0.251970
C30   C     C_R   0.981391 0.635889 0.410329 -0.245844
C31   C     C_R   0.914307 0.366090 0.598990 0.530552
C32   C     C_R   0.081816 0.639748 0.411991 0.521565
C33   C     C_R   0.401013 0.511416 0.769777 -0.111514
C34   C     C_R   0.623517 0.488369 0.903812 -0.213249
C35   C     C_R   0.599281 0.495630 0.229189 -0.117082
C36   C     C_R   0.274624 0.562844 0.906649 0.409451
C37   C     C_R   0.732379 0.465903 0.087369 0.396649
C38   C     C_R   0.303465 0.544889 0.815610 -0.171536
C39   C     C_R   0.699868 0.471055 0.180599 -0.190391
C40   C     C_R   0.469498 0.495155 0.815664 -0.222715
C41   C     C_R   0.530369 0.513698 0.183938 -0.192201
C42   C     C_R   0.446075 0.518247 0.905617 0.049348
C43   C     C_R   0.559799 0.508869 0.090008 0.036785
C44   C     C_R   0.345831 0.550474 0.952162 0.055731
C45   C     C_R   0.319326 0.570703 0.042575 -0.128633
C46   C     C_R   0.662575 0.483801 0.041459 0.071740
C47   C     C_R   0.519570 0.509698 0.950242 0.107121
C48   C     C_R   0.488884 0.525461 0.043721 0.089766
C49   C     C_3   0.175869 0.400324 0.696663 -0.190281
C50   C     C_3   0.839668 0.585095 0.297777 -0.275966
C51   C     C_3   0.833297 0.297972 0.736036 -0.185555
C52   C     C_3   0.120661 0.781042 0.434119 -0.181955
C53   C     C_3   0.441371 0.250515 0.708892 -0.281411
C54   C     C_3   0.651106 0.760343 0.300414 -0.280450
C55   C     C_R   0.693175 0.476155 0.948425 -0.157209
C56   C     C_R   0.443816 0.184767 0.580162 0.421339
C57   C     C_R   0.522138 0.816118 0.418215 0.416279
C58   C     C_R   0.498512 0.232777 0.500806 -0.220114
Cl1   Cl    Cl    0.318660 0.634153 0.373158 -0.527327
Cl2   Cl    Cl    0.680366 0.366111 0.626356 -0.618818
Cl3   Cl    Cl    0.149399 0.603607 0.959681 -0.541413
Cl4   Cl    Cl    0.860848 0.434238 0.031625 -0.566309
Cl5   Cl    Cl    0.624392 0.254955 0.326340 -0.522131
Cl6   Cl    Cl    0.448525 0.742554 0.680728 -0.534875
Cl7   Cl    Cl    0.580876 0.102996 0.227357 -0.478959
Cl8   Cl    Cl    0.328485 0.899958 0.769021 -0.466300
Cu1   Cu    Cu3+1 0.402580 0.500010 0.499990 1.066869
Cu2   Cu    Cu3+1 0.597420 0.499990 0.500010 1.061713
H1    H     H_    0.244247 0.596477 0.079988 0.209971
H2    H     H_    0.655018 0.482766 0.831936 0.156411
H3    H     H_    0.564131 0.926351 0.273880 0.218583
H4    H     H_    0.358922 0.075999 0.722597 0.216321
H5    H     H_    0.100984 0.366297 0.729807 0.149096
H6    H     H_    0.165802 0.473315 0.706314 0.131540
H7    H     H_    0.228217 0.376357 0.732109 0.205279
H8    H     H_    0.848290 0.511382 0.294269 0.170486
H9    H     H_    0.916401 0.617007 0.268557 0.184028
H10   H     H_    0.795209 0.606239 0.254320 0.178747
H11   H     H_    0.804396 0.364562 0.761898 0.141565
H12   H     H_    0.771367 0.459452 0.908873 0.189650
H13   H     H_    0.902323 0.279970 0.753432 0.146968
H14   H     H_    0.772320 0.248617 0.771091 0.214732
H15   H     H_    0.170567 0.839084 0.402469 0.211827
H16   H     H_    0.139168 0.759182 0.494773 0.161495
H17   H     H_    0.039459 0.803579 0.453845 0.140726
H18   H     H_    0.478818 0.315926 0.686070 0.199060
H19   H     H_    0.499463 0.199169 0.710161 0.185779
H20   H     H_    0.388547 0.257224 0.779065 0.191547
H21   H     H_    0.666597 0.712754 0.245489 0.194980
H22   H     H_    0.684612 0.733004 0.350132 0.207610
H23   H     H_    0.044967 0.309939 0.623774 0.191025
H24   H     H_    0.690446 0.823937 0.270674 0.172685
H25   H     H_    0.955358 0.690464 0.377180 0.189338
H26   H     H_    0.452768 0.528582 0.224375 0.197552
H27   H     H_    0.541057 0.464125 0.779117 0.188479
H28   H     H_    0.752656 0.453227 0.215147 0.192690
H29   H     H_    0.250469 0.559514 0.780312 0.180647
H30   H     H_    0.361478 0.577645 0.156408 0.184414
N1    N     N_R   0.256170 0.500070 0.500040 -0.264359
N2    N     N_R   0.743830 0.499930 0.499960 -0.252742
O1    O     O_R   0.417730 0.629750 0.499970 -0.531792
O2    O     O_3   0.787579 0.613765 0.385943 -0.591428
O3    O     O_3   0.853527 0.294174 0.642491 -0.529144
O4    O     O_3   0.140775 0.713263 0.371138 -0.533519
O5    O     O_3   0.382726 0.228619 0.655261 -0.573421
O6    O     O_3   0.543918 0.771672 0.338675 -0.553401
O7    O     O_R   0.582270 0.370250 0.500030 -0.529974
O8    O     O_R   0.582270 0.629730 0.499980 -0.552048
O9    O     O_R   0.417730 0.370270 0.500020 -0.526903
O10   O     O_R   0.371590 0.500020 0.629830 -0.585672
O11   O     O_R   0.628410 0.499980 0.370170 -0.570214
O12   O     O_R   0.536130 0.499990 0.629840 -0.546627
O13   O     O_R   0.463870 0.500010 0.370160 -0.549417
O14   O     O_3   0.218659 0.377896 0.605309 -0.538900

loop_
_geom_bond_atom_site_label_1
_geom_bond_atom_site_label_2
_ccdc_geom_bond_type
C30   C32   A    
C23   C45   A    
C22   C29   A    
C14   H3    S    
C2    C4    A    
C37   Cl4   S    
C2    C57   A    
C16   O10   A    
C7    C8    A    
C15   H4    S    
C16   O12   A    
C52   H17   S    
C24   C26   A    
C54   H22   S    
C30   H25   S    
C11   C14   A    
C51   O3    S    
C17   O11   A    
C1    C2    S    
Cu2   O12   S    
C52   H16   S    
Cu1   O9    S    
C41   H26   S    
C22   C25   A    
C46   C55   A    
C49   H7    S    
C53   H18   S    
Cu2   O7    S    
C43   C48   A    
C34   H2    S    
Cu1   N1    S    
C12   C58   S    
C40   C42   A    
C49   O14   S    
C34   C55   A    
C41   C43   A    
C42   C44   A    
C38   H29   S    
C50   H10   S    
C12   O9    A    
C51   H11   S    
C13   Cl8   S    
C56   O5    S    
C33   C40   A    
C54   O6    S    
C17   O13   A    
Cu1   Cu2   S    
C10   C57   A    
C54   H21   S    
C4    C6    A    
C10   C14   A    
C5    C7    A    
C21   N2    A    
C6    C8    A    
C25   C26   A    
C45   H1    S    
Cu2   O11   S    
C31   O3    S    
C52   H15   S    
C35   C39   A    
Cu2   N2    S    
C54   H24   S    
C50   H8    S    
C16   C33   S    
Cu1   O10   S    
C47   C48   A    
C32   O4    S    
C53   H19   S    
C9    C56   A    
C19   C28   A    
C51   H14   S    
C21   O2    S    
C8    C10   A    
C20   C22   A    
C50   O2    S    
C13   C15   A    
C49   H5    S    
C36   C44   A    
C18   N1    A    
C40   H27   S    
C36   Cl3   S    
C50   H9    S    
C1    O1    A    
C29   H23   S    
C44   C45   A    
Cu1   O1    S    
C7    C9    A    
C51   H13   S    
C52   O4    S    
C23   C48   A    
C27   C32   A    
C28   C31   A    
C18   C27   A    
C3    C5    A    
C12   O7    A    
C19   N2    A    
C5    C11   A    
C3    Cl5   S    
C19   Cl2   S    
C25   C27   A    
Cu2   O8    S    
C4    Cl6   S    
C26   C28   A    
C33   C38   A    
C36   C38   A    
Cu1   O13   S    
C29   C31   A    
C6    C13   A    
C20   O14   S    
C55   H12   S    
C20   N1    A    
C56   C58   A    
C57   O6    S    
C53   H20   S    
C42   C47   A    
C9    C15   A    
C35   C41   A    
C43   C46   A    
C24   C30   A    
C39   H28   S    
C1    O8    A    
C3    C58   A    
C53   O5    S    
C18   Cl1   S    
C23   H30   S    
C37   C39   A    
C21   C24   A    
C49   H6    S    
C34   C47   A    
C17   C35   S    
C37   C46   A    
C11   Cl7   S    
