data_mof_unit_44832.cif
_audit_creation_date              2013-03-05T15:41:05-0500
_audit_creation_method            fapswitch 2.2
_symmetry_space_group_name_H-M    P1
_symmetry_Int_Tables_number       1
_space_group_crystal_system       triclinic
_cell_length_a                    10.964971
_cell_length_b                    10.919018
_cell_length_c                    18.592811
_cell_angle_alpha                 90.540103
_cell_angle_beta                  90.087154
_cell_angle_gamma                 60.264014
_cell_volume                      1932.83083448

loop_
_atom_site_label
_atom_site_type_symbol
_atom_site_description
_atom_site_fract_x
_atom_site_fract_y
_atom_site_fract_z
_atom_type_partial_charge
O1    O     O_R   0.507110 0.256280 0.580300 -0.498628
O2    O     O_R   0.280830 0.527190 0.577940 -0.496892
C1    C     C_R   0.231561 0.647467 0.607562 0.603856
O3    O     O_R   0.261360 0.738990 0.584270 -0.459425
O4    O     O_R   0.532590 0.694780 0.574370 -0.458689
C2    C     C_R   0.657961 0.627139 0.598713 0.560031
O5    O     O_R   0.744470 0.503750 0.577000 -0.525333
O6    O     O_R   0.698520 0.277230 0.571620 -0.489222
C3    C     C_R   0.629151 0.226477 0.601480 0.593801
O7    O     O_R   0.498530 0.256920 0.419280 -0.449633
O8    O     O_R   0.272880 0.527780 0.428680 -0.439447
C4    C     C_R   0.212153 0.654314 0.405665 0.571709
O9    O     O_R   0.252780 0.739630 0.423250 -0.556225
O10   O     O_R   0.524640 0.695370 0.425100 -0.515872
C5    C     C_R   0.639856 0.617951 0.391152 0.566058
O11   O     O_R   0.735890 0.504390 0.415980 -0.433396
O12   O     O_R   0.690560 0.277820 0.422350 -0.475781
C6    C     C_R   0.577885 0.297189 0.388221 0.579060
Cr1   Cr    Cr6+3 0.393010 0.398050 0.501480 1.116214
Cr2   Cr    Cr6+3 0.398820 0.707980 0.501630 1.078316
Cr3   Cr    Cr6+3 0.708140 0.393940 0.496850 1.108528
O13   O     O_3   0.499990 0.499990 0.499980 -0.297535
C7    C     C_3   0.641525 0.840639 0.769717 -0.278506
H1    H     H_    0.700308 0.899361 0.768848 0.099178
H2    H     H_    0.542172 0.906648 0.799937 0.183197
C8    C     C_3   0.604003 0.819722 0.691868 -0.248841
H3    H     H_    0.488877 0.864647 0.686839 0.210503
H4    H     H_    0.633270 0.879221 0.653956 0.109766
H5    H     H_    0.935148 0.667847 0.771539 0.118531
H6    H     H_    0.870689 0.683629 0.653712 0.092118
C9    C     C_3   0.874499 0.612467 0.763672 0.074469
C10   C     C_3   0.652784 0.612894 0.803409 -0.171173
C11   C     C_3   0.733394 0.694773 0.806791 0.018062
H7    H     H_    0.704478 0.514394 0.835455 0.181444
H8    H     H_    0.546462 0.678748 0.827469 0.167208
C12   C     C_3   0.684896 0.660310 0.672391 0.013524
C13   C     C_3   0.843447 0.611593 0.682707 -0.236457
C14   C     C_3   0.644730 0.574429 0.725158 0.110939
H9    H     H_    0.723521 0.460669 0.717682 0.155417
H10   H     H_    0.912474 0.504960 0.659258 0.195983
C15   C     C_2   0.677805 0.158091 0.671001 -0.133201
C16   C     C_2   0.686525 0.172493 0.828559 -0.112102
C17   C     C_2   0.796379 0.148766 0.786017 0.158846
C18   C     C_2   0.774931 0.173702 0.708051 -0.120922
H11   H     H_    0.837353 0.212344 0.681575 0.184179
H12   H     H_    0.581683 0.220508 0.805760 0.106043
H13   H     H_    0.618395 0.114981 0.696354 0.089447
C19   C     C_2   0.171488 0.664900 0.679790 -0.071317
C20   C     C_2   0.192076 0.666382 0.838405 -0.106467
C21   C     C_2   0.201867 0.557454 0.800435 -0.144935
C22   C     C_2   0.214084 0.550074 0.721510 -0.076766
H14   H     H_    0.194340 0.474069 0.827538 0.209440
H15   H     H_    0.267008 0.444828 0.697880 0.189929
H16   H     H_    0.212414 0.743598 0.813219 0.202596
H17   H     H_    0.115365 0.770490 0.702724 0.139636
C23   C     C_2   0.643713 0.638595 0.314154 -0.068790
C24   C     C_2   0.631122 0.661592 0.156587 -0.135603
C25   C     C_2   0.708769 0.540481 0.190868 -0.152293
C26   C     C_2   0.731246 0.532802 0.268686 0.182701
H18   H     H_    0.786655 0.449383 0.160567 0.183169
H19   H     H_    0.546134 0.753723 0.182256 0.113486
H20   H     H_    0.553525 0.732681 0.294243 0.073712
C27   C     C_2   0.595006 0.266513 0.312113 -0.072333
C28   C     C_2   0.629746 0.214788 0.159531 -0.152715
C29   C     C_2   0.509067 0.251669 0.193346 -0.113510
C30   C     C_2   0.485889 0.296724 0.268153 0.175727
H21   H     H_    0.430836 0.230843 0.169040 0.203473
H22   H     H_    0.705612 0.242639 0.180009 0.107863
H23   H     H_    0.701914 0.212066 0.292450 0.119724
C31   C     C_2   0.100094 0.701039 0.352469 0.251029
C32   C     C_2   0.046240 0.725244 0.195714 -0.067783
C33   C     C_2   0.005710 0.834934 0.240777 -0.131740
C34   C     C_2   0.070970 0.812951 0.311404 -0.117600
H24   H     H_    0.950666 0.941935 0.220294 0.149172
H25   H     H_    0.118645 0.877709 0.322594 0.151753
H26   H     H_    0.107761 0.617265 0.214060 0.204938
O14   O     O_R   0.089190 0.825870 0.932320 -0.466747
O15   O     O_R   0.819070 0.053960 0.931440 -0.441966
C35   C     C_R   0.702908 0.103449 0.897831 0.537521
O16   O     O_R   0.607070 0.076440 0.916460 -0.525442
O17   O     O_R   0.647110 0.806550 0.917690 -0.512874
C36   C     C_R   0.758701 0.712753 0.883328 0.546230
O18   O     O_R   0.837080 0.593860 0.915300 -0.441162
O19   O     O_R   0.064770 0.636080 0.932550 -0.497576
C37   C     C_R   0.120053 0.705846 0.907663 0.538598
O20   O     O_R   0.068250 0.829200 0.092940 -0.500228
O21   O     O_R   0.799650 0.057040 0.080330 -0.514562
C38   C     C_R   0.672129 0.116180 0.100366 0.549475
O22   O     O_R   0.586130 0.079760 0.077080 -0.504083
O23   O     O_R   0.627700 0.809630 0.066580 -0.487486
C39   C     C_R   0.690761 0.686905 0.092932 0.563043
O24   O     O_R   0.816140 0.597180 0.075920 -0.497660
O25   O     O_R   0.045360 0.639170 0.081440 -0.480839
C40   C     C_R   0.023159 0.749123 0.119319 0.552707
Cr4   Cr    Cr6+3 0.937950 0.938450 0.008940 1.092827
Cr5   Cr    Cr6+3 0.626180 0.937030 0.994750 1.044758
Cr6   Cr    Cr6+3 0.937790 0.625760 0.001410 1.092644
O26   O     O_3   0.833980 0.833750 0.001700 -0.316101
Cl1   Cl    Cl    0.980445 0.431746 0.791786 -0.590854
N1    N     N_R   0.933281 0.107736 0.814572 0.111690
O27   O     O_R   0.044361 0.028307 0.775971 -0.337211
O28   O     O_R   0.945339 0.175759 0.869492 -0.258451
N2    N     N_R   0.860569 0.413535 0.292323 0.128718
O29   O     O_R   0.977947 0.393856 0.264689 -0.233082
O30   O     O_R   0.859022 0.305234 0.319507 -0.345253
Cl2   Cl    Cl    0.312723 0.361456 0.298363 -0.503393
Cl3   Cl    Cl    0.995833 0.619738 0.349302 -0.504754
N3    N     N_R   0.506265 0.592381 0.711180 0.060824
O31   O     O_R   0.394265 0.714559 0.720637 -0.370638
O32   O     O_R   0.494636 0.482228 0.696463 -0.384315

loop_
_geom_bond_atom_site_label_1
_geom_bond_atom_site_label_2
_geom_bond_distance
_ccdc_geom_bond_type
C19   H17   1.085126 S    
O21   C38   1.269743 A    
O25   C40   1.300509 A    
O17   C36   1.304289 A    
O23   C39   1.267291 A    
Cr4   O26   1.978450 S    
C32   C40   1.445683 S    
C4    O9    1.256446 A    
O8    Cr1   1.937393 S    
C8    H3    1.108655 S    
O11   Cr3   2.051210 S    
O19   Cr6   1.937589 S    
C28   H22   1.085020 S    
C12   C13   1.557458 S    
C13   H10   1.111683 S    
C31   Cl3   1.761822 S    
O4    C2    1.279584 A    
C6    C27   1.441987 S    
C25   H18   1.088287 S    
C20   H16   1.083577 S    
Cr6   O26   1.971985 S    
C1    C19   1.465277 S    
N3    O31   1.299927 A    
O12   C6    1.309471 A    
C16   H12   1.086707 S    
C7    C8    1.549731 S    
O20   C40   1.298912 A    
C19   C22   1.352091 D    
C27   H23   1.080339 S    
N3    O32   1.297534 A    
O6    C3    1.272448 A    
C7    C11   1.566399 S    
Cr5   O26   1.983169 S    
C21   H14   1.083077 S    
C7    H1    1.112219 S    
C9    C11   1.566866 S    
C10   C14   1.525077 S    
O16   Cr5   2.050450 S    
C11   C36   1.479252 S    
O15   Cr4   1.940065 S    
C27   C30   1.348691 D    
O14   C37   1.261503 A    
C16   C35   1.463812 S    
Cr3   O13   1.982623 S    
C34   H25   1.086329 S    
C30   Cl2   1.756353 S    
O24   Cr6   2.054883 S    
C21   C22   1.471540 S    
O1    Cr1   2.055517 S    
C10   H8    1.113651 S    
O10   Cr2   1.939277 S    
Cr1   O13   1.977796 S    
O1    C3    1.272999 A    
C17   N1    1.439052 S    
C33   H24   1.087434 S    
C39   O24   1.268560 A    
O4    Cr2   1.946597 S    
O17   Cr5   1.942536 S    
O15   C35   1.275148 A    
C29   H21   1.087274 S    
C25   C26   1.463508 S    
O5    Cr3   2.062861 S    
O14   Cr4   2.059745 S    
O12   Cr3   1.942161 S    
C9    C13   1.543861 S    
H6    C13   1.113604 S    
O21   Cr4   1.940095 S    
C22   H15   1.086330 S    
C10   H7    1.113257 S    
C17   C18   1.474335 S    
C20   C37   1.456900 S    
O7    Cr1   2.059474 S    
C31   C34   1.344572 D    
N1    O28   1.301749 A    
O6    Cr3   1.932593 S    
C15   H13   1.085102 S    
N2    O30   1.298198 A    
O19   C37   1.275719 A    
O23   Cr5   1.931573 S    
C8    C12   1.550864 S    
Cr2   O13   1.972002 S    
C29   C30   1.450960 S    
C9    Cl1   1.805606 S    
C15   C18   1.346642 D    
C23   H20   1.081034 S    
C16   C17   1.353937 D    
C1    O3    1.274943 A    
O25   Cr6   1.946442 S    
C32   H26   1.086007 S    
C18   H11   1.086393 S    
C4    C31   1.460221 S    
C24   C39   1.446577 S    
O9    Cr2   2.064177 S    
O2    Cr1   1.941453 S    
C3    C15   1.460783 S    
C33   C34   1.458333 S    
O8    C4    1.277902 A    
C24   H19   1.081910 S    
C2    O5    1.265331 A    
C8    H4    1.112690 S    
C23   C26   1.361786 D    
C26   N2    1.441127 S    
C28   C29   1.333251 D    
O22   Cr5   2.059858 S    
C12   C14   1.569779 S    
O2    C1    1.266261 A    
C32   C33   1.337222 D    
H5    C9    1.107358 S    
C10   C11   1.538572 S    
C24   C25   1.333135 D    
C14   H9    1.114081 S    
O7    C6    1.292198 A    
N1    O27   1.301453 A    
C2    C12   1.480047 S    
C7    H2    1.112338 S    
C14   N3    1.454515 S    
C5    C23   1.455274 S    
O20   Cr4   2.059398 S    
C35   O16   1.273460 A    
O3    Cr2   2.058705 S    
C38   O22   1.265821 A    
C20   C21   1.335040 D    
O18   Cr6   2.066331 S    
N2    O29   1.300858 A    
O10   C5    1.281395 A    
C36   O18   1.297500 A    
C28   C38   1.438128 S    
C5    O11   1.254401 A    
