data_mof_unit_28135.cif
_audit_creation_date              2012-12-11T14:29:41-0500
_audit_creation_method            fapswitch 2.2
_symmetry_space_group_name_H-M    P1
_symmetry_Int_Tables_number       1
_space_group_crystal_system       triclinic
_cell_length_a                    6.961478
_cell_length_b                    14.880003
_cell_length_c                    16.191221
_cell_angle_alpha                 89.996897
_cell_angle_beta                  90.406537
_cell_angle_gamma                 91.194698
_cell_volume                      1676.79017948

loop_
_atom_site_label
_atom_site_type_symbol
_atom_type_description
_atom_site_fract_x
_atom_site_fract_y
_atom_site_fract_z
_atom_type_partial_charge
O1    O     O_R   0.494400 0.416610 0.413880 -0.558354
O2    O     O_R   0.823920 0.406790 0.585520 -0.518602
O3    O     O_R   0.994250 0.583390 0.586120 -0.533985
C1    C     C_R   0.652947 0.386033 0.613726 0.841575
O4    O     O_R   0.824110 0.405730 0.414490 -0.554245
O5    O     O_R   0.994440 0.582310 0.413870 -0.556557
C2    C     C_R   0.653543 0.384895 0.385482 0.728907
O6    O     O_R   0.494210 0.417690 0.586130 -0.516103
O7    O     O_3   0.660810 0.557940 0.500000 -0.362603
V1    V     V_3+5 0.935650 0.489250 0.500000 1.548771
O8    O     O_R   0.324160 0.593210 0.414480 -0.524838
C3    C     C_R   0.156043 0.612507 0.384369 0.771023
O9    O     O_R   0.323970 0.594270 0.585510 -0.485853
C4    C     C_R   0.158521 0.617503 0.613449 0.864540
V2    V     V_3+5 0.435660 0.510750 0.500000 1.604549
O10   O     O_3   0.160630 0.442060 0.500000 -0.375288
C5    C     C_R   0.209015 0.572439 0.793089 0.417916
C6    C     C_R   0.175843 0.544895 0.873902 -0.107292
C7    C     C_R   0.079751 0.599294 0.927613 -0.185121
C8    C     C_R   0.034506 0.686381 0.904953 0.345057
C9    C     C_R   0.095789 0.722354 0.826974 -0.042952
C10   C     C_R   0.155398 0.659855 0.765655 -0.049401
C11   C     C_R   0.112801 0.816629 0.810437 -0.078083
C12   C     C_R   0.159544 0.846581 0.727863 -0.101574
C13   C     C_R   0.179088 0.781434 0.662670 -0.116246
C14   C     C_R   0.164687 0.687201 0.681194 -0.069453
C15   C     C_R   0.188573 0.940083 0.707240 0.282409
C16   C     C_R   0.211798 0.967112 0.624215 0.259873
C17   C     C_R   0.206875 0.904483 0.561554 0.369773
C18   C     C_R   0.220881 0.814084 0.581270 0.209895
H1    H     H_    0.217828 0.478766 0.894415 0.174767
H2    H     H_    0.038546 0.572932 0.987462 0.164203
C19   C     C_2   0.988223 0.698882 0.274873 -0.163295
C20   C     C_2   0.151449 0.678318 0.315799 -0.261327
H3    H     H_    0.854171 0.665937 0.292725 0.145781
H4    H     H_    0.287704 0.709509 0.299396 0.150014
C21   C     C_2   0.974660 0.766325 0.206750 -0.108412
C22   C     C_2   0.125517 0.813071 0.175848 -0.293149
H5    H     H_    0.832033 0.778178 0.181977 0.164570
H6    H     H_    0.269439 0.801628 0.198669 0.131983
C23   C     C_2   0.669043 0.258506 0.821022 -0.296370
C24   C     C_2   0.623428 0.170508 0.812057 0.161630
H7    H     H_    0.688707 0.284641 0.883290 0.129748
C25   C     C_2   0.719822 0.320669 0.752158 0.446513
C26   C     C_2   0.627083 0.318375 0.679143 -0.212491
H8    H     H_    0.502099 0.274199 0.672141 0.177704
C27   C     C_2   0.778936 0.228447 0.200328 0.440470
C28   C     C_2   0.619987 0.178751 0.179872 -0.369816
H9    H     H_    0.489487 0.185001 0.215316 0.114481
C29   C     C_2   0.788502 0.287785 0.275670 -0.233156
C30   C     C_2   0.635266 0.321139 0.315019 -0.337842
H10   H     H_    0.931311 0.307414 0.297306 0.153449
H11   H     H_    0.491024 0.305657 0.292886 0.135140
O11   O     O_R   0.770210 0.079270 0.910680 -0.568228
O12   O     O_R   0.440150 0.091160 0.082270 -0.555268
O13   O     O_R   0.269970 0.914530 0.082860 -0.549638
C31   C     C_R   0.610626 0.113508 0.110150 0.742922
O14   O     O_R   0.440480 0.090100 0.911240 -0.531108
O15   O     O_R   0.270310 0.913460 0.910610 -0.513908
C32   C     C_R   0.610347 0.112031 0.884291 0.725948
O16   O     O_R   0.769870 0.080340 0.082930 -0.513457
O17   O     O_3   0.603660 0.938980 0.996790 -0.350427
V3    V     V_3+5 0.328750 0.007610 0.996740 1.508858
O18   O     O_R   0.940600 0.902510 0.911180 -0.518208
C33   C     C_R   0.107441 0.881737 0.881473 0.819252
O19   O     O_R   0.940270 0.903570 0.082200 -0.521425
C34   C     C_R   0.109086 0.881308 0.109851 0.789697
V4    V     V_3+5 0.828770 0.986010 0.996670 1.548627
O20   O     O_3   0.103730 0.054750 0.996710 -0.387008
O21   O     O_3   0.229461 0.932569 0.480510 -0.501115
C35   C     C_3   0.051565 0.962868 0.449203 0.168586
H12   H     H_    0.081469 0.020725 0.407561 0.160896
H13   H     H_    0.951066 0.987374 0.497341 0.131198
C36   C     C_3   0.952783 0.888847 0.398936 -0.695296
H14   H     H_    0.919983 0.829726 0.438667 0.237129
H15   H     H_    0.816878 0.913665 0.371811 0.197379
H16   H     H_    0.049330 0.868723 0.348437 0.241818
Cl1   Cl    Cl    0.619923 0.114735 0.716294 -0.641877
Cl2   Cl    Cl    0.887742 0.406826 0.774464 -0.644325
O22   O     O_3   0.943619 0.219345 0.153404 -0.540176
C37   C     C_3   0.995958 0.303340 0.118478 0.080094
H17   H     H_    0.067545 0.347143 0.165626 0.110817
H18   H     H_    0.869113 0.338353 0.092164 0.112212
C38   C     C_3   0.136697 0.288741 0.048529 -0.653869
H19   H     H_    0.068648 0.245652 0.000069 0.217376
H20   H     H_    0.178759 0.354394 0.020676 0.166898
H21   H     H_    0.267598 0.255933 0.072420 0.212986
Cl3   Cl    Cl    0.346552 0.497350 0.736643 -0.625235
Cl4   Cl    Cl    0.867165 0.735239 0.971175 -0.660645
O23   O     O_3   0.211910 0.004977 0.767599 -0.529863
C39   C     C_3   0.054922 0.063258 0.764669 0.162395
H22   H     H_    0.938241 0.032609 0.800600 0.138897
H23   H     H_    0.993049 0.073507 0.702153 0.184301
C40   C     C_3   0.115571 0.155492 0.797402 -0.538385
H24   H     H_    0.253883 0.177168 0.770082 0.258487
H25   H     H_    0.010617 0.205888 0.778408 0.196242
H26   H     H_    0.126353 0.155207 0.865579 0.192314
Cl5   Cl    Cl    0.264501 0.079988 0.595547 -0.564153
Cl6   Cl    Cl    0.350437 0.756136 0.506633 -0.624049

loop_
_geom_bond_atom_site_label_1
_geom_bond_atom_site_label_2
_ccdc_geom_bond_type
O19   V4    S    
C12   C13   A    
C5    Cl3   S    
C23   C24   D    
C7    C8    A    
C12   C15   A    
C1    O6    A    
C37   H17   S    
C28   C31   S    
O11   C32   A    
C26   H8    S    
C17   C18   A    
C36   H15   S    
O18   V4    S    
C16   C17   A    
C21   C22   D    
C38   H20   S    
O5    C3    A    
O11   V4    S    
O14   C32   A    
V2    O10   S    
C13   C18   A    
C15   O23   S    
C6    C7    A    
O8    V2    S    
V3    O20   S    
V4    O20   S    
C36   H16   S    
O12   V3    S    
C29   H10   S    
C11   C12   A    
C38   H21   S    
O21   C35   S    
O1    V2    S    
O7    V1    S    
O19   C34   A    
O9    C4    A    
C23   H7    S    
C27   O22   S    
C7    H2    S    
C37   H18   S    
C19   C20   D    
C27   C29   S    
C1    C26   S    
C9    C11   A    
C36   H14   S    
C38   H19   S    
C24   C32   S    
C39   H22   S    
O4    C2    A    
C40   H26   S    
C29   C30   D    
C13   C14   A    
C18   Cl6   S    
C19   C21   S    
C30   H11   S    
O2    C1    A    
O17   V3    S    
C39   H23   S    
C27   C28   D    
C8    C9    A    
C5    C6    A    
O13   V3    S    
C4    C14   S    
C40   H25   S    
O3    C4    A    
C28   H9    S    
C24   Cl1   S    
O6    V2    S    
O12   C31   A    
C23   C25   S    
C3    C20   S    
O2    V1    S    
C37   C38   S    
C25   C26   D    
C35   H13   S    
C17   O21   S    
C16   Cl5   S    
O14   V3    S    
O1    C2    A    
C25   Cl2   S    
O22   C37   S    
O5    V1    S    
C35   C36   S    
O8    C3    A    
C31   O16   A    
O13   C34   A    
C8    Cl4   S    
O15   V3    S    
C5    C10   A    
O17   V4    S    
O18   C33   A    
C11   C33   S    
O9    V2    S    
O7    V2    S    
C2    C30   S    
C35   H12   S    
C21   H5    S    
O3    V1    S    
V1    O10   S    
O15   C33   A    
C39   C40   S    
C22   H6    S    
O16   V4    S    
O23   C39   S    
C19   H3    S    
C20   H4    S    
C40   H24   S    
O4    V1    S    
C22   C34   S    
C10   C14   A    
C15   C16   A    
C6    H1    S    
C9    C10   A    
