data_mof_unit_12550.cif
_audit_creation_date              2013-03-05T15:55:10-0500
_audit_creation_method            fapswitch 2.2
_symmetry_space_group_name_H-M    P1
_symmetry_Int_Tables_number       1
_space_group_crystal_system       triclinic
_cell_length_a                    14.534118
_cell_length_b                    16.296485
_cell_length_c                    6.92802
_cell_angle_alpha                 90.001291
_cell_angle_beta                  98.25368
_cell_angle_gamma                 90.000738
_cell_volume                      1623.93988273

loop_
_atom_site_label
_atom_site_type_symbol
_atom_site_description
_atom_site_fract_x
_atom_site_fract_y
_atom_site_fract_z
_atom_type_partial_charge
O1    O     O_R   0.831700 0.662810 0.581550 -0.585885
O2    O     O_R   0.168300 0.337190 0.418450 -0.615114
O3    O     O_R   0.168300 0.162810 0.418450 -0.585868
O4    O     O_R   0.831700 0.837190 0.581550 -0.615127
O5    O     O_R   0.842890 0.834390 0.255500 -0.586504
O6    O     O_R   0.157110 0.165610 0.744500 -0.578745
O7    O     O_R   0.157110 0.334390 0.744500 -0.586579
O8    O     O_R   0.842890 0.665610 0.255500 -0.578688
O9    O     O_R   0.661690 0.835580 0.024130 -0.553910
O10   O     O_R   0.338310 0.164420 0.975870 -0.563752
O11   O     O_R   0.338310 0.335580 0.975870 -0.553896
O12   O     O_R   0.661690 0.664420 0.024130 -0.563724
C1    C     C_R   0.864790 0.865189 0.429684 0.988978
C2    C     C_R   0.134120 0.135861 0.569122 1.037894
C3    C     C_R   0.135200 0.365182 0.570318 0.989080
C4    C     C_R   0.865871 0.635851 0.430870 1.037762
C5    C     C_R   0.064433 0.067054 0.535217 -0.250020
C6    C     C_R   0.931898 0.936311 0.458698 -0.227585
C7    C     C_R   0.935543 0.567030 0.464763 -0.250088
C8    C     C_R   0.068084 0.436294 0.541317 -0.227655
C9    C     C_R   0.005807 0.944684 0.345607 -0.124472
C10   C     C_R   0.987633 0.061587 0.639755 -0.130231
C11   C     C_R   0.994210 0.444700 0.654504 -0.124354
C12   C     C_R   0.012285 0.561501 0.360070 -0.130255
O13   O     O_3   0.687240 0.750000 0.366320 -0.250586
O14   O     O_3   0.312760 0.250000 0.633680 -0.250604
V1    V     V_3+5 0.757720 0.750000 0.115230 1.244399
V2    V     V_3+5 0.242280 0.250000 0.884770 1.244303
O15   O     O_R   0.650500 0.664000 0.690740 -0.571823
O16   O     O_R   0.349500 0.336000 0.309260 -0.613873
O17   O     O_R   0.349500 0.164000 0.309260 -0.571816
O18   O     O_R   0.650500 0.836000 0.690740 -0.613858
C13   C     C_R   0.624751 0.638217 0.855634 0.903178
C14   C     C_R   0.369997 0.364841 0.144787 0.972198
C15   C     C_R   0.375249 0.138218 0.144364 0.903219
C16   C     C_R   0.630004 0.864840 0.855215 0.972197
C17   C     C_R   0.073337 0.007578 0.389250 0.124697
C18   C     C_R   0.922749 0.996756 0.603369 0.097781
C19   C     C_R   0.926686 0.507602 0.610865 0.124850
C20   C     C_R   0.077192 0.496698 0.396538 0.097820
V3    V     V_3+5 0.735670 0.750000 0.607790 1.213898
V4    V     V_3+5 0.264330 0.250000 0.392210 1.213880
O19   O     O_3   0.806150 0.750000 0.906560 -0.281171
O20   O     O_3   0.193850 0.250000 0.093440 -0.281238
C21   C     C_2   0.555028 0.926349 0.854203 -0.344291
C22   C     C_2   0.449222 0.073232 0.140291 -0.383055
C23   C     C_2   0.444970 0.426354 0.145804 -0.344407
C24   C     C_2   0.550786 0.573224 0.859707 -0.383099
C25   C     C_2   0.565337 0.995087 0.971535 -0.035000
C26   C     C_2   0.487648 0.055055 0.974202 -0.033628
C27   C     C_2   0.434663 0.495081 0.028444 -0.035012
C28   C     C_2   0.512346 0.555058 0.025784 -0.033570
C29   C     C_2   0.012992 0.889100 0.178366 0.565635
H1    H     H_    0.954788 0.882058 0.062935 0.036534
O21   O     O_2   0.084857 0.852082 0.165505 -0.546247
C30   C     C_2   0.969556 0.125293 0.782744 0.577019
H2    H     H_    0.943743 0.107804 0.916377 0.019163
O22   O     O_2   0.978141 0.197940 0.747440 -0.557866
C31   C     C_2   0.987076 0.389162 0.821874 0.565628
H3    H     H_    0.045351 0.382023 0.937048 0.036741
O23   O     O_2   0.915168 0.352315 0.835199 -0.546560
C32   C     C_2   0.030280 0.625109 0.216787 0.577313
H4    H     H_    0.055963 0.607521 0.083074 0.018760
O24   O     O_2   0.021778 0.697783 0.251921 -0.557492
N1    N     N_2   0.150775 0.012126 0.284052 -0.119840
H5    H     H_    0.136912 0.999962 0.136713 0.172409
C33   C     C_3   0.234615 0.973560 0.380485 -0.633846
H6    H     H_    0.291694 0.982976 0.292551 0.234353
H7    H     H_    0.223997 0.906651 0.397326 0.264135
H8    H     H_    0.255250 0.000922 0.526784 0.258379
N2    N     N_2   0.843618 0.998300 0.703704 -0.120595
H9    H     H_    0.837164 0.949882 0.796162 0.212137
C34   C     C_3   0.757891 0.026204 0.590488 -0.820299
H10   H     H_    0.705982 0.039370 0.688971 0.234137
H11   H     H_    0.729026 0.978306 0.485165 0.248781
H12   H     H_    0.769854 0.083601 0.511108 0.248751
N3    N     N_2   0.849303 0.512212 0.716206 -0.119793
H13   H     H_    0.863226 0.500137 0.863577 0.172453
C35   C     C_3   0.765427 0.473616 0.620014 -0.633699
H14   H     H_    0.708415 0.483028 0.708122 0.234261
H15   H     H_    0.776048 0.406708 0.603171 0.264159
H16   H     H_    0.744694 0.500961 0.473734 0.258324
N4    N     N_2   0.156321 0.498244 0.296192 -0.120558
H17   H     H_    0.162781 0.449830 0.203727 0.212075
C36   C     C_3   0.242042 0.526185 0.409375 -0.820109
H18   H     H_    0.293941 0.539355 0.310875 0.234160
H19   H     H_    0.270930 0.478308 0.514723 0.248685
H20   H     H_    0.230063 0.583586 0.488723 0.248774
C37   C     C_2   0.466263 0.102184 0.791672 0.605814
H21   H     H_    0.517188 0.144770 0.749441 -0.077355
O25   O     O_2   0.393305 0.090963 0.683947 -0.547276
C38   C     C_2   0.655878 0.021824 0.084063 0.462929
H22   H     H_    0.657064 0.074817 0.179272 0.003704
O26   O     O_2   0.729491 0.988237 0.068936 -0.614756
C39   C     C_2   0.533713 0.602199 0.208307 0.605768
H23   H     H_    0.482771 0.644764 0.250543 -0.077351
O27   O     O_2   0.606674 0.591002 0.316032 -0.547222
C40   C     C_2   0.344129 0.521796 0.915855 0.462994
H24   H     H_    0.342955 0.574760 0.820558 0.003674
O28   O     O_2   0.270508 0.488226 0.931035 -0.614770
C41   C     C_2   0.483474 0.029399 0.322765 0.546763
H25   H     H_    0.505634 0.063956 0.453222 0.003376
O29   O     O_2   0.490216 0.954726 0.325682 -0.582522
C42   C     C_2   0.463919 0.900248 0.744945 0.586948
H26   H     H_    0.462423 0.855878 0.627702 0.031169
O30   O     O_2   0.390157 0.923156 0.791147 -0.545133
C43   C     C_2   0.516573 0.529355 0.677262 0.546720
H27   H     H_    0.494422 0.563883 0.546764 0.003454
O31   O     O_2   0.509856 0.454680 0.674412 -0.582509
C44   C     C_2   0.536074 0.400267 0.255099 0.586952
H28   H     H_    0.537565 0.355885 0.372312 0.031186
O32   O     O_2   0.609840 0.423199 0.208967 -0.545071

loop_
_geom_bond_atom_site_label_1
_geom_bond_atom_site_label_2
_geom_bond_distance
_ccdc_geom_bond_type
O3    V4    2.018119 S    
C41   H25   1.074313 S    
O17   V4    2.007743 S    
C6    C9    1.424090 A    
C34   H11   1.108971 S    
C34   H10   1.108397 S    
C29   O21   1.220482 D    
C39   H23   1.084988 S    
C20   N4    1.426931 S    
C42   O30   1.220528 D    
N3    H13   1.030914 S    
C11   C31   1.486268 S    
O9    V1    2.009622 S    
C1    C6    1.509542 S    
O18   C16   1.305949 A    
C36   H18   1.108380 S    
C8    C20   1.425044 A    
C40   H24   1.085334 S    
C24   C43   1.474962 S    
O4    V3    2.018116 S    
C10   C18   1.414501 A    
O15   C13   1.320762 A    
C30   H2    1.085748 S    
C28   C39   1.474054 S    
O4    C1    1.300681 A    
C44   H28   1.085356 S    
C32   O24   1.218926 D    
O5    V1    2.005633 S    
O6    V2    2.005633 S    
N1    C33   1.446556 S    
C17   N1    1.427894 S    
O9    C16   1.286172 A    
C43   H27   1.074293 S    
O10   C15   1.285818 A    
C37   O25   1.219674 D    
O5    C1    1.303527 A    
C27   C40   1.494900 S    
O7    C3    1.303498 A    
C31   H3    1.083308 S    
O8    C4    1.306296 A    
V3    O19   2.173700 S    
C2    C5    1.506650 S    
V4    O20   2.173702 S    
C42   H26   1.085359 S    
N3    C35   1.446561 S    
C3    C8    1.509531 S    
C22   C41   1.474989 S    
C31   O23   1.220271 D    
O16   C14   1.305954 A    
O12   V1    2.009578 S    
C33   H6    1.108148 S    
O13   V3    1.719301 S    
N2    C34   1.447022 S    
C10   C30   1.484204 S    
C29   H1    1.083550 S    
V2    O20   1.696343 S    
O7    V2    2.005684 S    
C27   C28   1.495455 S    
C33   H7    1.109737 S    
C32   H4    1.085783 S    
C21   C42   1.489811 S    
O6    C2    1.306279 A    
C26   C37   1.474053 S    
N4    H17   1.029045 S    
C8    C11   1.424161 A    
C21   C25   1.379501 D    
O18   V3    2.007743 S    
C38   O26   1.219613 D    
C16   C21   1.479897 S    
O1    C4    1.295478 A    
C5    C17   1.419998 A    
O2    C3    1.300710 A    
O3    C2    1.295457 A    
C7    C19   1.420041 A    
O1    V3    2.018137 S    
N4    C36   1.447030 S    
N1    H5    1.030920 S    
C40   O28   1.219664 D    
C34   H12   1.111331 S    
O17   C15   1.320757 A    
C25   C38   1.494904 S    
C37   H21   1.085006 S    
C19   N3    1.427879 S    
O14   V4    1.719301 S    
C35   H15   1.109742 S    
C36   H20   1.111315 S    
O10   V2    2.009623 S    
C13   C24   1.512272 S    
C18   N2    1.426919 S    
C12   C32   1.484207 S    
O15   V3    2.007738 S    
O11   C14   1.286167 A    
C35   H16   1.108499 S    
C23   C27   1.379507 D    
C39   O27   1.219663 D    
O13   V1    2.141727 S    
C23   C44   1.489815 S    
C22   C26   1.381372 D    
O14   V2    2.141728 S    
C5    C10   1.417928 A    
C33   H8    1.108508 S    
C7    C12   1.417933 A    
C6    C18   1.425064 A    
N2    H9    1.029047 S    
C9    C29   1.486131 S    
C43   O31   1.220774 D    
O11   V2    2.009577 S    
O2    V4    2.018138 S    
C4    C7    1.506713 S    
C11   C19   1.421335 A    
C38   H22   1.085301 S    
C12   C20   1.414449 A    
C30   O22   1.218925 D    
C44   O32   1.220506 D    
C35   H14   1.108133 S    
V1    O19   1.696343 S    
C36   H19   1.108955 S    
C24   C28   1.381371 D    
C9    C17   1.421274 A    
C41   O29   1.220791 D    
C25   C26   1.495463 S    
O8    V1    2.005686 S    
O16   V4    2.007738 S    
C14   C23   1.479899 S    
O12   C13   1.285809 A    
C15   C22   1.512280 S    
