data_mof_unit_6894.cif
_audit_creation_date              2012-12-11T14:08:20-0500
_audit_creation_method            fapswitch 2.2
_symmetry_space_group_name_H-M    P1
_symmetry_Int_Tables_number       1
_space_group_crystal_system       triclinic
_cell_length_a                    10.863939
_cell_length_b                    10.990215
_cell_length_c                    18.650947
_cell_angle_alpha                 90.448723
_cell_angle_beta                  89.825354
_cell_angle_gamma                 60.249296
_cell_volume                      1933.22926286

loop_
_atom_site_label
_atom_site_type_symbol
_atom_type_description
_atom_site_fract_x
_atom_site_fract_y
_atom_site_fract_z
_atom_type_partial_charge
C1    C     C_R   0.236415 0.645631 0.608815 0.544770
C2    C     C_3   0.672395 0.548281 0.800240 -0.043842
C3    C     C_3   0.699741 0.672442 0.812628 0.057266
C4    C     C_3   0.669288 0.647593 0.676552 0.043024
C5    C     C_3   0.817338 0.629992 0.689988 -0.243959
C6    C     C_3   0.651054 0.536258 0.719781 -0.193381
C7    C     C_2   0.686035 0.132858 0.662598 -0.127929
C8    C     C_2   0.715390 0.101295 0.817039 -0.089499
C9    C     C_2   0.826255 0.057739 0.771973 -0.156214
C10   C     C_2   0.802396 0.111513 0.697986 -0.158391
C11   C     C_2   0.181315 0.662701 0.681686 -0.124145
C12   C     C_R   0.654183 0.622601 0.601129 0.540204
C13   C     C_2   0.196241 0.662313 0.839507 -0.117312
C14   C     C_2   0.194471 0.560841 0.800039 -0.172686
C15   C     C_2   0.222117 0.549053 0.722783 -0.174730
C16   C     C_2   0.650927 0.646177 0.317287 -0.091368
C17   C     C_2   0.631766 0.666328 0.159533 -0.108305
C18   C     C_2   0.705245 0.546741 0.195039 -0.154576
C19   C     C_2   0.686807 0.537891 0.271689 -0.146918
C20   C     C_2   0.681017 0.124452 0.337861 -0.112579
C21   C     C_2   0.681797 0.082647 0.185818 -0.102856
C22   C     C_2   0.633901 0.023262 0.232086 -0.170924
C23   C     C_R   0.630398 0.223603 0.600300 0.546336
C24   C     C_2   0.607281 0.070565 0.306773 -0.150481
C25   C     C_2   0.120443 0.681543 0.345429 -0.106268
C26   C     C_2   0.113193 0.691935 0.190936 -0.089132
C27   C     C_2   0.044253 0.805091 0.234420 -0.150896
C28   C     C_2   0.074194 0.800343 0.310080 -0.162492
C29   C     C_R   0.727352 0.047431 0.889261 0.555449
C30   C     C_R   0.723064 0.687748 0.888586 0.558915
C31   C     C_R   0.119687 0.706177 0.907576 0.542319
C32   C     C_R   0.702293 0.041156 0.111735 0.564607
C33   C     C_R   0.691598 0.689027 0.094704 0.550975
C34   C     C_R   0.215087 0.651365 0.404791 0.557761
C35   C     C_R   0.086194 0.713856 0.115400 0.547097
C36   C     C_R   0.642055 0.621121 0.392740 0.551942
C37   C     C_R   0.622232 0.220833 0.398031 0.553647
C38   C     C_3   0.570868 0.809182 0.783462 -0.256060
C39   C     C_3   0.554579 0.795368 0.702708 -0.251062
C40   C     C_3   0.834104 0.647976 0.770112 -0.214323
Cr1   Cr    Cr6+3 0.393010 0.398050 0.501480 1.019936
Cr2   Cr    Cr6+3 0.398820 0.707980 0.501630 1.017159
Cr3   Cr    Cr6+3 0.708140 0.393940 0.496850 1.014317
Cr4   Cr    Cr6+3 0.937950 0.938450 0.008940 1.047198
Cr5   Cr    Cr6+3 0.626180 0.937030 0.994750 1.022541
Cr6   Cr    Cr6+3 0.937790 0.625760 0.001410 1.041838
H1    H     H_    0.586072 0.901025 0.792969 0.138753
H2    H     H_    0.727360 0.428768 0.700220 0.172251
H3    H     H_    0.930066 0.552844 0.789140 0.167812
H4    H     H_    0.902159 0.524268 0.672102 0.151912
H5    H     H_    0.933691 0.989702 0.790399 0.146835
H6    H     H_    0.874322 0.143098 0.675338 0.162204
H7    H     H_    0.608955 0.174166 0.798678 0.124849
H8    H     H_    0.619827 0.093493 0.684608 0.098415
H9    H     H_    0.165461 0.488547 0.823701 0.161252
H10   H     H_    0.276993 0.444116 0.699651 0.163576
H11   H     H_    0.233371 0.728930 0.816360 0.104872
H12   H     H_    0.471768 0.830203 0.811831 0.127006
H13   H     H_    0.124236 0.767699 0.704666 0.101581
H14   H     H_    0.791820 0.454943 0.169287 0.161840
H15   H     H_    0.716512 0.434376 0.291862 0.152342
H16   H     H_    0.539719 0.755254 0.183829 0.103914
H17   H     H_    0.620060 0.751012 0.299135 0.084862
H18   H     H_    0.601987 0.949206 0.213527 0.126295
H19   H     H_    0.515261 0.075977 0.333007 0.155964
H20   H     H_    0.708520 0.161670 0.202331 0.107272
H21   H     H_    0.779085 0.109767 0.314238 0.091350
H22   H     H_    0.975537 0.908539 0.212754 0.148822
H23   H     H_    0.446158 0.812546 0.692569 0.150260
H24   H     H_    0.077808 0.889506 0.333320 0.152832
H25   H     H_    0.183807 0.587117 0.210339 0.099957
H26   H     H_    0.107765 0.596304 0.323738 0.112679
H27   H     H_    0.565519 0.877418 0.673413 0.119623
H28   H     H_    0.852420 0.738214 0.778576 0.105796
H29   H     H_    0.830697 0.709043 0.659119 0.114116
H30   H     H_    0.574169 0.569744 0.829651 0.127044
H31   H     H_    0.543036 0.551085 0.711024 0.109748
O1    O     O_R   0.507110 0.256280 0.580300 -0.522646
O2    O     O_R   0.524640 0.695370 0.425100 -0.492108
O3    O     O_R   0.735890 0.504390 0.415980 -0.513197
O4    O     O_R   0.690560 0.277820 0.422350 -0.507178
O5    O     O_3   0.499990 0.499990 0.499980 -0.246786
O6    O     O_R   0.089190 0.825870 0.932320 -0.515715
O7    O     O_R   0.819070 0.053960 0.931440 -0.447780
O8    O     O_R   0.607070 0.076440 0.916460 -0.509886
O9    O     O_R   0.647110 0.806550 0.917690 -0.529638
O10   O     O_R   0.837080 0.593860 0.915300 -0.480750
O11   O     O_R   0.064770 0.636080 0.932550 -0.496562
O12   O     O_R   0.280830 0.527190 0.577940 -0.500269
O13   O     O_R   0.068250 0.829200 0.092940 -0.519243
O14   O     O_R   0.799650 0.057040 0.080330 -0.493876
O15   O     O_R   0.586130 0.079760 0.077080 -0.485491
O16   O     O_R   0.627700 0.809630 0.066580 -0.517204
O17   O     O_R   0.816140 0.597180 0.075920 -0.498048
O18   O     O_R   0.045360 0.639170 0.081440 -0.491737
O19   O     O_3   0.833980 0.833750 0.001700 -0.301088
O20   O     O_R   0.261360 0.738990 0.584270 -0.520043
O21   O     O_R   0.532590 0.694780 0.574370 -0.507602
O22   O     O_R   0.744470 0.503750 0.577000 -0.528084
O23   O     O_R   0.698520 0.277230 0.571620 -0.501092
O24   O     O_R   0.498530 0.256920 0.419280 -0.510325
O25   O     O_R   0.272880 0.527780 0.428680 -0.497931
O26   O     O_R   0.252780 0.739630 0.423250 -0.510963
I1    I     I_    0.837811 0.348213 0.839201 -0.407763

loop_
_geom_bond_atom_site_label_1
_geom_bond_atom_site_label_2
_ccdc_geom_bond_type
C7    C10   D    
Cr1   O12   S    
C21   H20   S    
C20   H21   S    
Cr2   O5    S    
Cr4   O6    S    
C10   H6    S    
Cr2   O26   S    
Cr4   O13   S    
C25   C28   D    
C26   C27   D    
C34   O25   A    
C6    H2    S    
C8    C29   S    
Cr3   O22   S    
Cr2   O21   S    
C38   C39   S    
C32   O14   A    
C13   H11   S    
C40   H3    S    
C31   O6    A    
Cr1   O25   S    
C18   C19   S    
Cr5   O15   S    
C12   O22   A    
C27   H22   S    
C38   H12   S    
C11   C15   D    
Cr6   O18   S    
C20   C24   D    
C3    C38   S    
Cr1   O24   S    
C8    C9    D    
C9    H5    S    
C16   H17   S    
C30   O9    A    
C9    C10   S    
C12   O21   A    
C25   C34   S    
C14   H9    S    
Cr5   O16   S    
Cr2   O2    S    
C21   C22   D    
C33   O17   A    
C26   H25   S    
C37   O4    A    
C2    C6    S    
C17   C33   S    
C11   H13   S    
Cr6   O11   S    
C21   C32   S    
Cr3   O23   S    
C29   O7    A    
C4    C6    S    
C36   O3    A    
Cr2   O20   S    
C1    O20   A    
Cr1   O1    S    
C6    H31   S    
Cr3   O3    S    
C5    H29   S    
C3    C30   S    
Cr5   O8    S    
Cr4   O19   S    
C17   H16   S    
Cr6   O17   S    
C4    C39   S    
C2    I1    S    
C17   C18   D    
C39   H23   S    
C25   H26   S    
C38   H1    S    
Cr4   O14   S    
C24   H19   S    
C18   H14   S    
C3    C40   S    
Cr3   O4    S    
C22   C24   S    
C5    H4    S    
C4    C12   S    
C2    H30   S    
Cr6   O10   S    
C1    O12   A    
C31   O11   A    
C29   O8    A    
C13   C31   S    
C28   H24   S    
C4    C5    S    
Cr4   O7    S    
C36   O2    A    
C33   O16   A    
C8    H7    S    
C35   O18   A    
C34   O26   A    
Cr5   O9    S    
C15   H10   S    
C2    C3    S    
C16   C36   S    
C37   O24   A    
C20   C37   S    
C32   O15   A    
C19   H15   S    
C16   C19   D    
C7    C23   S    
Cr1   O5    S    
C40   H28   S    
C23   O23   A    
C39   H27   S    
C23   O1    A    
C22   H18   S    
C35   O13   A    
C26   C35   S    
Cr6   O19   S    
C5    C40   S    
C27   C28   S    
Cr3   O5    S    
C14   C15   S    
C1    C11   S    
C7    H8    S    
C30   O10   A    
C13   C14   D    
Cr5   O19   S    
