data_mof_unit_56335.cif
_audit_creation_date              2012-12-10T16:37:32-0500
_audit_creation_method            fapswitch 2.2
_symmetry_space_group_name_H-M    P1
_symmetry_Int_Tables_number       1
_space_group_crystal_system       triclinic
_cell_length_a                    10.841634
_cell_length_b                    10.829283
_cell_length_c                    15.520073
_cell_angle_alpha                 96.796887
_cell_angle_beta                  74.853012
_cell_angle_gamma                 98.745825
_cell_volume                      1732.49877469

loop_
_atom_site_label
_atom_site_type_symbol
_atom_type_description
_atom_site_fract_x
_atom_site_fract_y
_atom_site_fract_z
_atom_type_partial_charge
C1    C     C_R   0.157880 0.477988 0.520826 0.530990
C2    C     C_R   0.545680 0.501769 0.113030 -0.144571
C3    C     C_R   0.588447 0.292996 0.126614 -0.107250
C4    C     C_R   0.842522 0.521148 0.479584 0.504805
C5    C     C_R   0.432677 0.585479 0.838798 -0.025599
C6    C     C_2   0.981076 0.526751 0.469133 0.235741
C7    C     C_2   0.022361 0.472991 0.527990 -0.078892
C8    C     C_2   0.541243 0.967439 0.473017 -0.124863
C9    C     C_2   0.454783 0.034954 0.527183 -0.115919
C10   C     C_R   0.468072 0.167466 0.520282 0.491057
C11   C     C_R   0.529567 0.833673 0.480251 0.503112
C12   C     C_R   0.423726 0.750636 0.959803 0.248907
C13   C     C_R   0.555316 0.443610 0.258715 0.504317
C14   C     C_R   0.444904 0.553277 0.742046 0.490793
C15   C     C_R   0.573867 0.254461 0.040764 0.254498
C16   C     C_R   0.573364 0.415582 0.162776 -0.012563
C17   C     C_R   0.412172 0.708241 0.873724 -0.111415
C18   C     C_3   0.706100 0.118769 0.952121 0.003120
C19   C     C_3   0.795603 0.084938 0.004426 -0.384078
C20   C     C_3   0.291648 0.877108 0.056217 -0.002818
C21   C     C_3   0.277520 0.011890 0.093860 -0.335722
C22   C     C_3   0.093870 0.706147 0.410866 0.012580
C23   C     C_R   0.464448 0.672793 0.009802 -0.110868
C24   C     C_3   0.204962 0.755601 0.334898 -0.256583
C25   C     C_3   0.238492 0.897455 0.348306 -0.476605
C26   C     C_R   0.482237 0.546922 0.978213 -0.006026
C27   C     C_R   0.458587 0.501580 0.893473 0.016218
C28   C     C_R   0.522185 0.464363 0.027940 -0.004087
C29   C     C_R   0.534070 0.337631 0.992957 0.043933
C30   C     C_R   0.499933 0.293609 0.913117 -0.135313
C31   C     C_R   0.460385 0.373281 0.865316 -0.123356
H1    H     H_    0.606419 0.225400 0.166696 0.123670
H2    H     H_    0.751209 0.203706 0.915635 0.110920
H3    H     H_    0.695535 0.040998 0.900051 0.166894
H4    H     H_    0.750955 0.000195 0.040439 0.171223
H5    H     H_    0.888469 0.065342 0.957598 0.099841
H6    H     H_    0.815138 0.163845 0.053564 0.138172
H7    H     H_    0.287399 0.821241 0.113006 0.114302
H8    H     H_    0.209298 0.840594 0.025958 0.125701
H9    H     H_    0.284052 0.071620 0.038969 0.173063
H10   H     H_    0.182657 0.015824 0.142753 0.085884
H11   H     H_    0.354681 0.048628 0.128629 0.188537
H12   H     H_    0.956321 0.433148 0.586399 0.075083
H13   H     H_    0.122864 0.731295 0.475240 0.134824
H14   H     H_    0.007556 0.751758 0.413191 0.150092
H15   H     H_    0.291374 0.709951 0.331900 0.170532
H16   H     H_    0.177773 0.731620 0.270092 0.168027
H17   H     H_    0.154397 0.945325 0.349398 0.151779
H18   H     H_    0.319784 0.929794 0.292270 0.150292
H19   H     H_    0.267761 0.923475 0.412172 0.163963
H20   H     H_    0.621099 0.011404 0.423335 0.104477
H21   H     H_    0.373473 0.993245 0.576782 0.114807
H22   H     H_    0.501580 0.196151 0.887643 0.156895
H23   H     H_    0.533204 0.593939 0.145899 0.107909
H24   H     H_    0.391810 0.773452 0.832946 0.147816
H25   H     H_    0.480772 0.714538 0.072934 0.112831
H26   H     H_    0.428881 0.331841 0.806595 0.140945
O1    O     O_3   0.500000 0.500000 0.500000 -0.437324
O2    O     O_R   0.463530 0.379110 0.309170 -0.534951
O3    O     O_R   0.388210 0.611730 0.699360 -0.549938
O4    O     O_R   0.624720 0.532760 0.292120 -0.537867
O5    O     O_R   0.523540 0.476390 0.699360 -0.542243
O6    O     O_3   0.582399 0.130301 0.009153 -0.544525
O7    O     O_3   0.409612 0.873962 0.990776 -0.527631
O8    O     O_3   0.067516 0.574981 0.394318 -0.560051
O9    O     O_R   0.537910 0.240570 0.564270 -0.534739
O10   O     O_R   0.438950 0.782540 0.540270 -0.545396
O11   O     O_R   0.222350 0.398740 0.468260 -0.514638
O12   O     O_R   0.800790 0.578160 0.427210 -0.526953
O13   O     O_R   0.212140 0.566330 0.564260 -0.554558
O14   O     O_R   0.764730 0.456770 0.540270 -0.566667
O15   O     O_R   0.412790 0.208310 0.468260 -0.545331
O16   O     O_R   0.610350 0.768590 0.427210 -0.541157
Zn1   Zn    Zn3+2 0.580150 0.419820 0.574680 0.923441
Zn2   Zn    Zn3+2 0.401380 0.373730 0.437510 0.945312
Zn3   Zn    Zn3+2 0.631680 0.593260 0.413140 0.940184
Zn4   Zn    Zn3+2 0.386790 0.613180 0.574670 0.923009

loop_
_geom_bond_atom_site_label_1
_geom_bond_atom_site_label_2
_ccdc_geom_bond_type
O10   Zn4   S    
O1    Zn3   S    
C23   H25   S    
O11   Zn2   S    
C12   C23   A    
C26   C27   A    
C28   C29   A    
C19   H5    S    
C30   C31   A    
C12   O7    S    
C18   O6    S    
C5    C17   A    
C14   O5    A    
C1    O11   A    
O12   Zn3   S    
C18   C19   S    
C23   C26   A    
C25   H19   S    
C19   H6    S    
O1    Zn4   S    
C5    C27   A    
C6    O8    S    
C22   H13   S    
C8    C9    D    
C12   C17   A    
C7    H12   S    
C2    C16   A    
C9    C10   S    
C17   H24   S    
O13   Zn4   S    
C9    H21   S    
O15   Zn2   S    
C4    O12   A    
C11   O10   A    
O1    Zn2   S    
C15   C29   A    
C10   O9    A    
O4    Zn3   S    
C30   H22   S    
O3    Zn4   S    
C27   C31   A    
C24   C25   S    
C4    C6    S    
C2    H23   S    
C20   H8    S    
C20   O7    S    
C22   O8    S    
C29   C30   A    
O9    Zn1   S    
C20   H7    S    
C25   H17   S    
C18   H3    S    
C8    H20   S    
C5    C14   S    
C21   H10   S    
C11   O16   A    
O16   Zn3   S    
C22   C24   S    
O2    Zn2   S    
C3    C15   A    
O1    Zn1   S    
C1    C7    S    
C24   H16   S    
O14   Zn1   S    
C6    C7    D    
C13   O2    A    
C14   O3    A    
C26   C28   A    
C1    O13   A    
C24   H15   S    
C31   H26   S    
C19   H4    S    
C21   H9    S    
C8    C11   S    
C3    H1    S    
C18   H2    S    
C25   H18   S    
C21   H11   S    
C22   H14   S    
C13   O4    A    
C20   C21   S    
C13   C16   S    
C15   O6    S    
O5    Zn1   S    
C2    C28   A    
C4    O14   A    
C3    C16   A    
C10   O15   A    
