data_mof_unit_38633.cif
_audit_creation_date              2012-12-11T16:58:21-0500
_audit_creation_method            fapswitch 2.2
_symmetry_space_group_name_H-M    P1
_symmetry_Int_Tables_number       1
_space_group_crystal_system       triclinic
_cell_length_a                    16.882813
_cell_length_b                    7.253716
_cell_length_c                    16.966473
_cell_angle_alpha                 89.380191
_cell_angle_beta                  100.720101
_cell_angle_gamma                 91.638757
_cell_volume                      2040.63842006

loop_
_atom_site_label
_atom_site_type_symbol
_atom_type_description
_atom_site_fract_x
_atom_site_fract_y
_atom_site_fract_z
_atom_type_partial_charge
O1    O     O_R   0.413450 0.494370 0.415710 -0.541672
O2    O     O_R   0.586550 0.994370 0.584290 -0.544076
O3    O     O_R   0.578420 0.819350 0.429360 -0.537661
O4    O     O_R   0.421580 0.319350 0.570640 -0.553579
C1    C     C_R   0.604505 0.658028 0.413533 0.740613
C2    C     C_R   0.396040 0.152203 0.587042 0.749058
O5    O     O_R   0.413570 0.823780 0.406240 -0.504820
O6    O     O_R   0.586430 0.323780 0.593760 -0.544369
O7    O     O_R   0.420530 0.998740 0.561000 -0.506592
O8    O     O_R   0.579470 0.498740 0.439000 -0.545682
C3    C     C_R   0.387473 0.653943 0.382387 0.773710
C4    C     C_R   0.614667 0.156848 0.615598 0.759051
O9    O     O_3   0.502480 0.662320 0.550800 -0.389808
O10   O     O_3   0.497520 0.162320 0.449200 -0.381263
V1    V     V_3+5 0.499540 0.935370 0.490580 1.472739
V2    V     V_3+5 0.500460 0.435370 0.509420 1.396848
C5    C     C_R   0.690316 0.008749 0.739436 -0.017281
C6    C     C_R   0.270892 0.484639 0.297909 -0.065119
C7    C     C_R   0.685980 0.149528 0.681801 -0.244797
C8    C     C_R   0.321794 0.641464 0.310641 -0.274232
C9    C     C_R   0.755852 0.265407 0.683663 0.367230
C10   C     C_R   0.312362 0.778088 0.249831 0.422090
C11   C     C_R   0.824348 0.246645 0.747153 0.363012
C12   C     C_R   0.243644 0.774238 0.187211 0.374269
C13   C     C_R   0.821805 0.118047 0.810615 -0.227622
C14   C     C_R   0.186478 0.625142 0.181233 -0.244456
C15   C     C_R   0.755834 0.994557 0.802228 -0.062937
C16   C     C_R   0.203820 0.477735 0.234660 -0.085506
C17   C     C_3   0.705472 0.933273 0.861826 -0.404043
C18   C     C_3   0.220164 0.289120 0.209269 -0.302915
C19   C     C_3   0.632711 0.951170 0.793517 0.426243
C20   C     C_3   0.295199 0.297934 0.273740 0.465563
H1    H     H_    0.707887 0.034310 0.911141 0.154901
H2    H     H_    0.232104 0.286227 0.147057 0.159532
H3    H     H_    0.718066 0.789111 0.882273 0.157486
H4    H     H_    0.173060 0.187413 0.220849 0.178006
C21   C     C_R   0.334914 0.128885 0.640243 -0.236884
C22   C     C_R   0.668067 0.660629 0.362848 -0.255723
C23   C     C_R   0.168509 0.136665 0.864817 -0.248524
C24   C     C_R   0.832972 0.607614 0.137544 -0.207347
C25   C     C_R   0.289174 0.299216 0.835898 0.532304
C26   C     C_R   0.712190 0.458476 0.171988 0.534875
C27   C     C_R   0.231550 0.270734 0.884851 0.059974
C28   C     C_R   0.765482 0.486296 0.118454 0.055472
C29   C     C_R   0.165998 0.026790 0.795823 0.185774
C30   C     C_R   0.843892 0.710346 0.209517 0.137306
C31   C     C_R   0.225357 0.052993 0.746604 -0.023651
C32   C     C_R   0.786744 0.692929 0.262433 -0.082034
C33   C     C_R   0.284033 0.199279 0.763527 -0.118745
C34   C     C_R   0.719419 0.566676 0.242581 -0.103831
C35   C     C_R   0.337146 0.239988 0.708857 0.119733
C36   C     C_R   0.660736 0.550628 0.293433 0.093820
C37   C     C_R   0.278690 0.979132 0.626310 0.363447
C38   C     C_R   0.733994 0.785302 0.381989 0.417185
C39   C     C_R   0.227219 0.936576 0.680433 0.186455
C40   C     C_R   0.794542 0.795945 0.335130 0.150395
O11   O     O_R   0.920630 0.775410 0.061150 -0.538053
O12   O     O_R   0.079370 0.275410 0.938850 -0.534433
O13   O     O_R   0.086500 0.441450 0.093690 -0.540094
O14   O     O_R   0.913500 0.941450 0.906310 -0.545471
C41   C     C_R   0.115378 0.611422 0.114755 0.751292
C42   C     C_R   0.887313 0.109491 0.882527 0.754496
O15   O     O_R   0.921670 0.445960 0.070740 -0.545043
O16   O     O_R   0.078330 0.945960 0.929260 -0.546514
O17   O     O_R   0.913380 0.271130 0.915780 -0.537898
O18   O     O_R   0.086620 0.771130 0.084220 -0.507434
C43   C     C_R   0.895682 0.611413 0.085800 0.716374
C44   C     C_R   0.104413 0.117108 0.914545 0.745190
O19   O     O_3   0.997500 0.603030 0.949220 -0.398123
O20   O     O_3   0.002500 0.103030 0.050780 -0.373674
V3    V     V_3+5 0.000470 0.329940 0.009420 1.386413
V4    V     V_3+5 0.999530 0.829940 0.990580 1.383327
O21   O     O_3   0.761697 0.379898 0.618958 -0.547823
C45   C     C_3   0.739184 0.560880 0.634016 -0.158347
H5    H     H_    0.740708 0.592113 0.698462 0.067844
H6    H     H_    0.678262 0.588349 0.599584 0.170821
H7    H     H_    0.780882 0.660443 0.611381 0.174455
O22   O     O_3   0.370815 0.914622 0.249308 -0.520358
C46   C     C_3   0.439314 0.841415 0.225457 -0.223684
H8    H     H_    0.480595 0.785362 0.278014 0.123868
H9    H     H_    0.472642 0.955217 0.200581 0.163405
H10   H     H_    0.424192 0.734356 0.178035 0.092607
N1    N     N_3   0.180521 0.766930 0.670258 -0.597129
H11   H     H_    0.140679 0.770089 0.615281 0.246888
H12   H     H_    0.219569 0.657677 0.669887 0.253158
N2    N     N_3   0.863903 0.910595 0.365522 -0.626372
H13   H     H_    0.915801 0.832089 0.374391 0.269544
H14   H     H_    0.867590 0.021676 0.326517 0.245796
N3    N     N_3   0.239833 0.380858 0.955921 -0.652415
H15   H     H_    0.194654 0.478338 0.948265 0.250103
H16   H     H_    0.235608 0.295890 0.005150 0.215815
N4    N     N_3   0.748258 0.389845 0.043381 -0.638505
H17   H     H_    0.750327 0.483767 0.996562 0.214415
H18   H     H_    0.791206 0.289395 0.042749 0.234565
N5    N     N_3   0.099391 0.899328 0.771350 -0.606355
H19   H     H_    0.103316 0.789445 0.812080 0.250426
H20   H     H_    0.044994 0.966597 0.768815 0.230495
N6    N     N_3   0.913671 0.830463 0.228895 -0.688699
H21   H     H_    0.965661 0.755496 0.228852 0.226532
H22   H     H_    0.909985 0.936375 0.186247 0.249585
O23   O     O_3   0.897549 0.330742 0.740534 -0.546917
C47   C     C_3   0.901949 0.513814 0.768692 -0.096145
H23   H     H_    0.964668 0.543599 0.799679 0.163115
H24   H     H_    0.860996 0.541764 0.811539 0.093670
H25   H     H_    0.890535 0.610991 0.717356 0.136920
O24   O     O_3   0.233855 0.914798 0.130805 -0.546891
C48   C     C_3   0.271349 0.867756 0.066289 -0.220048
H26   H     H_    0.244029 0.948181 0.012819 0.148379
H27   H     H_    0.263231 0.719247 0.049736 0.121555
H28   H     H_    0.336344 0.907124 0.079827 0.147916
N7    N     N_3   0.577572 0.096211 0.805806 -0.674150
H29   H     H_    0.550892 0.056879 0.854502 0.243268
H30   H     H_    0.610142 0.219413 0.821775 0.215950
N8    N     N_3   0.370875 0.302946 0.241958 -0.588325
H31   H     H_    0.365468 0.211068 0.194272 0.272601
H32   H     H_    0.379295 0.430360 0.215068 0.173879
N9    N     N_3   0.589716 0.775751 0.770745 -0.629154
H33   H     H_    0.549104 0.796395 0.717033 0.253501
H34   H     H_    0.630222 0.677554 0.759248 0.200829
N10   N     N_3   0.294738 0.156929 0.335904 -0.577611
H35   H     H_    0.239839 0.159535 0.355844 0.171213
H36   H     H_    0.339964 0.189693 0.384905 0.263421
N11   N     N_3   0.393294 0.393758 0.723698 -0.581009
H37   H     H_    0.378676 0.491741 0.678089 0.256700
H38   H     H_    0.451804 0.348299 0.725415 0.242789
N12   N     N_3   0.591515 0.429057 0.272107 -0.587437
H39   H     H_    0.539009 0.503901 0.267863 0.216952
H40   H     H_    0.592414 0.327863 0.316426 0.242267
O25   O     O_3   0.276446 0.864791 0.561088 -0.547333
C49   C     C_3   0.225066 0.941659 0.494546 -0.236991
H41   H     H_    0.160886 0.925589 0.500752 0.133438
H42   H     H_    0.232522 0.866651 0.439846 0.167451
H43   H     H_    0.239816 0.090137 0.485927 0.107697
O26   O     O_3   0.742902 0.886811 0.452097 -0.547776
C50   C     C_3   0.723285 0.072154 0.432878 -0.108440
H44   H     H_    0.667286 0.084040 0.386920 0.091154
H45   H     H_    0.773791 0.148310 0.412497 0.146362
H46   H     H_    0.712634 0.141029 0.487803 0.168596
O27   O     O_3   0.349241 0.432227 0.858873 -0.516711
C51   C     C_3   0.414048 0.349355 0.910399 -0.131816
H47   H     H_    0.436775 0.229817 0.881481 0.119531
H48   H     H_    0.396792 0.305403 0.968047 0.131942
H49   H     H_    0.464402 0.452427 0.924427 0.169444
O28   O     O_3   0.651093 0.326179 0.152642 -0.516086
C52   C     C_3   0.681102 0.153484 0.181596 -0.162793
H50   H     H_    0.705245 0.156565 0.247286 0.103745
H51   H     H_    0.728352 0.107055 0.149092 0.131062
H52   H     H_    0.630828 0.049524 0.171224 0.147370

loop_
_geom_bond_atom_site_label_1
_geom_bond_atom_site_label_2
_ccdc_geom_bond_type
C50   H46   S    
N12   H39   S    
C9    O21   S    
C15   C17   S    
C35   N11   S    
C23   C44   S    
C49   H42   S    
N5    H19   S    
O1    C3    A    
C51   H49   S    
O2    C4    A    
C2    O7    A    
N8    H31   S    
N11   H37   S    
C31   C33   A    
C11   O23   S    
O5    C3    A    
C27   N3    S    
C45   H6    S    
O16   C44   A    
C7    C9    A    
C14   C41   S    
C12   C14   A    
N9    H34   S    
C21   C35   A    
N2    H14   S    
O12   V3    S    
N11   H38   S    
C22   C36   A    
O24   C48   S    
O14   V4    S    
C38   O26   S    
C17   H1    S    
C47   H25   S    
O14   C42   A    
O21   C45   S    
C29   C31   A    
C19   N9    S    
C41   O18   A    
O18   V4    S    
N7    H29   S    
C33   C35   A    
C24   C43   S    
C34   C36   A    
C48   H26   S    
O20   V3    S    
N3    H16   S    
C28   N4    S    
C23   C29   A    
C21   C37   A    
O5    V1    S    
C30   N6    S    
O6    V2    S    
C50   H45   S    
C1    C22   S    
C25   C27   A    
C26   C28   A    
O11   C43   A    
C25   C33   A    
C52   H51   S    
N10   H36   S    
C52   H50   S    
C38   C40   A    
C37   C39   A    
O15   C43   A    
C3    C8    S    
O13   C41   A    
C45   H5    S    
C18   H2    S    
C5    C15   A    
O23   C47   S    
C50   H44   S    
C6    C16   A    
C51   H47   S    
C10   O22   S    
O4    C2    A    
C12   O24   S    
C46   H9    S    
C36   N12   S    
O22   C46   S    
C23   C27   A    
O17   V3    S    
C45   H7    S    
O4    V2    S    
O19   V4    S    
C24   C30   A    
C40   N2    S    
N1    H11   S    
C22   C38   A    
O6    C4    A    
N4    H18   S    
C2    C21   S    
N7    H30   S    
O1    V2    S    
C47   H24   S    
O2    V1    S    
C26   C34   A    
O12   C44   A    
N1    H12   S    
O15   V3    S    
N6    H22   S    
C9    C11   A    
C26   O28   S    
C5    C19   S    
C48   H28   S    
C10   C12   A    
C49   H43   S    
C6    C20   S    
C39   N1    S    
C29   N5    S    
C52   H52   S    
O3    V1    S    
N10   H35   S    
C31   C39   A    
O25   C49   S    
C32   C40   A    
N12   H40   S    
C42   O17   A    
N2    H13   S    
C8    C10   A    
O28   C52   S    
O3    C1    A    
C46   H10   S    
N8    H32   S    
O27   C51   S    
N5    H20   S    
O26   C50   S    
C51   H48   S    
C13   C15   A    
C17   H3    S    
C14   C16   A    
C18   H4    S    
C16   C18   S    
C49   H41   S    
O7    V1    S    
C1    O8    A    
C17   C19   S    
O8    V2    S    
N9    H33   S    
C18   C20   S    
C48   H27   S    
C4    C7    S    
C32   C34   A    
N4    H17   S    
C5    C7    A    
C6    C8    A    
C13   C42   S    
O16   V4    S    
O11   V4    S    
C47   H23   S    
C25   O27   S    
C46   H8    S    
C30   C32   A    
C24   C28   A    
C11   C13   A    
C37   O25   S    
N6    H21   S    
O9    V2    S    
C19   N7    S    
O10   V1    S    
C20   N8    S    
N3    H15   S    
C20   N10   S    
O13   V3    S    
