data_mof_unit_5272.cif
_audit_creation_date              2013-03-05T16:43:52-0500
_audit_creation_method            fapswitch 2.2
_symmetry_space_group_name_H-M    P1
_symmetry_Int_Tables_number       1
_space_group_crystal_system       triclinic
_cell_length_a                    10.909507
_cell_length_b                    15.83465
_cell_length_c                    16.961935
_cell_angle_alpha                 95.776747
_cell_angle_beta                  90.864157
_cell_angle_gamma                 91.371273
_cell_volume                      2913.97830141

loop_
_atom_site_label
_atom_site_type_symbol
_atom_site_description
_atom_site_fract_x
_atom_site_fract_y
_atom_site_fract_z
_atom_type_partial_charge
O1    O     O_R   0.494430 0.420530 0.382500 -0.557248
O2    O     O_R   0.504490 0.563720 0.388950 -0.606860
C1    C     C_R   0.498686 0.489964 0.348580 0.851211
O3    O     O_R   0.316910 0.428420 0.496780 -0.590471
O4    O     O_R   0.326970 0.571610 0.503230 -0.574398
C2    C     C_R   0.265246 0.501213 0.502321 0.916666
Cu1   Cu    Cu3+1 0.494040 0.415220 0.496180 0.958979
Cu2   Cu    Cu3+1 0.505960 0.584780 0.503820 0.947101
O5    O     O_R   0.495510 0.436280 0.611050 -0.583237
O6    O     O_R   0.505570 0.579470 0.617500 -0.571232
O7    O     O_R   0.673030 0.428390 0.496770 -0.596939
O8    O     O_R   0.683090 0.571580 0.503220 -0.589406
C3    C     C_R   0.502878 0.510052 0.651319 0.819564
C4    C     C_R   0.734902 0.499216 0.501499 0.847514
C5    C     C_2   0.934405 0.569516 0.518433 -0.199912
C6    C     C_2   0.866843 0.497272 0.509295 -0.353841
H1    H     H_    0.889983 0.630419 0.520764 0.194154
H2    H     H_    0.906829 0.435650 0.512216 0.148848
C7    C     C_2   0.067907 0.570470 0.530952 0.003854
C8    C     C_2   0.132779 0.503277 0.501055 -0.378668
H3    H     H_    0.088114 0.448069 0.468927 0.156848
C9    C     C_R   0.505430 0.484819 0.262211 -0.157545
C10   C     C_R   0.599295 0.531166 0.230116 -0.293873
C11   C     C_R   0.617544 0.525028 0.148679 0.077008
C12   C     C_R   0.536539 0.473101 0.097993 0.323872
C13   C     C_R   0.440103 0.425887 0.129327 -0.007815
C14   C     C_R   0.425078 0.431434 0.212511 -0.049186
C15   C     C_R   0.622348 0.495380 0.860560 0.009871
C16   C     C_R   0.618540 0.488284 0.776534 -0.032672
C17   C     C_R   0.519815 0.527801 0.903541 0.267794
N1    N     N_2   0.550058 0.468089 0.015115 -0.225984
N2    N     N_2   0.513070 0.532829 0.987226 -0.273818
C18   C     C_R   0.512915 0.515487 0.737552 -0.050410
C19   C     C_R   0.416143 0.551143 0.781135 -0.244109
C20   C     C_R   0.419775 0.557218 0.863199 -0.195059
H4    H     H_    0.336215 0.573038 0.751377 0.192293
H5    H     H_    0.342512 0.583381 0.895876 0.160870
H6    H     H_    0.661210 0.571007 0.269269 0.160322
N3    N     N_R   0.514910 0.712130 0.509560 -0.195130
C21   C     C_R   0.445592 0.758517 0.461036 0.292520
C22   C     C_R   0.450867 0.847719 0.470994 -0.292416
C23   C     C_R   0.533693 0.892482 0.524839 0.316005
C24   C     C_R   0.609229 0.844123 0.570692 -0.037893
C25   C     C_R   0.595455 0.754251 0.563187 -0.002545
C26   C     C_R   0.577698 0.158562 0.522841 -0.300970
C27   C     C_R   0.581488 0.246838 0.520054 0.013319
C28   C     C_R   0.472377 0.110566 0.495818 0.336215
N4    N     N_2   0.545716 0.984116 0.531206 -0.238778
N5    N     N_2   0.464072 0.019532 0.494408 -0.257633
N6    N     N_R   0.485090 0.287850 0.490450 -0.182039
H7    H     H_    0.662292 0.282607 0.542260 0.148842
H8    H     H_    0.656787 0.128410 0.545877 0.162177
H9    H     H_    0.651924 0.717586 0.599378 0.145213
C29   C     C_R   0.382367 0.242999 0.462922 0.063785
C30   C     C_R   0.372096 0.153815 0.465946 -0.029180
H10   H     H_    0.308304 0.277255 0.439349 0.140447
H11   H     H_    0.391864 0.882035 0.434184 0.172797
C31   C     C_3   0.724433 0.574676 0.118460 -0.373995
C32   C     C_3   0.846778 0.534541 0.137170 -0.335879
C33   C     C_3   0.955112 0.587061 0.110978 -0.815445
H12   H     H_    0.951502 0.589682 0.045838 0.288893
H13   H     H_    0.954186 0.652632 0.141152 0.249821
H14   H     H_    0.042165 0.557671 0.126910 0.238416
H15   H     H_    0.856375 0.530056 0.201940 0.222354
H16   H     H_    0.849446 0.469356 0.106100 0.231792
H17   H     H_    0.717315 0.578532 0.053793 0.244312
H18   H     H_    0.723230 0.641099 0.146870 0.189724
C34   C     C_3   0.705635 0.886914 0.626913 -0.404211
C35   C     C_3   0.817751 0.914442 0.581315 -0.327051
C36   C     C_3   0.916589 0.956946 0.637463 -0.808228
H19   H     H_    0.880214 0.014207 0.671730 0.246429
H20   H     H_    0.948709 0.911982 0.679146 0.266600
H21   H     H_    0.995897 0.976646 0.602656 0.241758
H22   H     H_    0.856815 0.857930 0.547248 0.237020
H23   H     H_    0.790515 0.959884 0.538746 0.226255
H24   H     H_    0.666098 0.942769 0.661650 0.216065
H25   H     H_    0.735349 0.842758 0.670111 0.195162
C37   C     C_3   0.256180 0.102668 0.439199 -0.399601
C38   C     C_3   0.144545 0.154804 0.419834 -0.377971
C39   C     C_3   0.030994 0.097612 0.401229 -0.823194
H26   H     H_    0.047573 0.050604 0.349586 0.255913
H27   H     H_    0.007019 0.063499 0.453246 0.250215
H28   H     H_    0.952266 0.136825 0.386771 0.245337
H29   H     H_    0.124514 0.201342 0.471292 0.220846
H30   H     H_    0.163760 0.189429 0.367422 0.218567
H31   H     H_    0.277814 0.058617 0.386270 0.211204
H32   H     H_    0.229862 0.063552 0.487500 0.218240
C40   C     C_3   0.364047 0.718740 0.393445 -0.349649
C41   C     C_3   0.427056 0.716957 0.312524 -0.342439
C42   C     C_3   0.423364 0.801562 0.276557 -0.843930
H33   H     H_    0.328579 0.825629 0.276386 0.251848
H34   H     H_    0.485778 0.849322 0.309721 0.257627
H35   H     H_    0.454881 0.792429 0.214403 0.245728
H36   H     H_    0.524152 0.698365 0.317793 0.236461
H37   H     H_    0.379318 0.668055 0.270515 0.218790
H38   H     H_    0.334304 0.653982 0.401934 0.222824
H39   H     H_    0.276783 0.753531 0.391898 0.171839
C43   C     C_2   0.124176 0.646867 0.577313 0.871978
O9    O     O_2   0.085731 0.717317 0.568576 -0.628148
O10   O     O_R   0.217127 0.638101 0.633326 -0.769367
H40   H     H_    0.247365 0.694655 0.661024 0.328767
C44   C     C_3   0.727512 0.453965 0.729311 -0.392184
C45   C     C_3   0.725229 0.356606 0.720714 -0.320955
C46   C     C_3   0.838167 0.321993 0.677743 -0.860618
H41   H     H_    0.843887 0.345144 0.618261 0.247632
H42   H     H_    0.922674 0.342370 0.712565 0.266451
H43   H     H_    0.832223 0.251523 0.670355 0.239540
H44   H     H_    0.722599 0.332553 0.779915 0.251833
H45   H     H_    0.641506 0.332196 0.687008 0.229803
H46   H     H_    0.728679 0.476665 0.669567 0.185430
H47   H     H_    0.814820 0.478961 0.758213 0.221172
C47   C     C_2   0.735723 0.474608 0.902774 0.832663
O11   O     O_2   0.819400 0.527461 0.913083 -0.633066
O12   O     O_R   0.747406 0.394468 0.929440 -0.760402
H48   H     H_    0.829101 0.388005 0.957163 0.324465
C48   C     C_3   0.348076 0.376052 0.073146 -0.368210
C49   C     C_3   0.232382 0.427517 0.063555 -0.359039
C50   C     C_3   0.140882 0.380377 0.004953 -0.822003
H49   H     H_    0.182382 0.368669 0.945572 0.260018
H50   H     H_    0.112138 0.318813 0.025930 0.257281
H51   H     H_    0.058478 0.419389 0.999657 0.250951
H52   H     H_    0.187380 0.440173 0.121691 0.229068
H53   H     H_    0.257785 0.489462 0.041881 0.234953
H54   H     H_    0.388015 0.359730 0.013892 0.223619
H55   H     H_    0.323929 0.314019 0.094453 0.233050
C51   C     C_2   0.323650 0.384528 0.247806 0.835461
O13   O     O_2   0.249240 0.423445 0.289657 -0.637452
O14   O     O_R   0.315458 0.295996 0.235168 -0.769865
H56   H     H_    0.242489 0.271618 0.262302 0.319906

loop_
_geom_bond_atom_site_label_1
_geom_bond_atom_site_label_2
_geom_bond_distance
_ccdc_geom_bond_type
C37   H32   1.112672 S    
C12   N1    1.410181 S    
C40   H38   1.092115 S    
C51   O13   1.223080 D    
C22   C23   1.402557 A    
C7    C8    1.352163 D    
C48   H55   1.107620 S    
C49   H52   1.110444 S    
O14   H56   1.013243 S    
C46   H42   1.110819 S    
O12   H48   1.013577 S    
Cu1   Cu2   2.674930 S    
C28   N5    1.439931 S    
C26   C27   1.403023 A    
C15   C47   1.480163 S    
C5    C7    1.468166 S    
C32   H15   1.111563 S    
N6    C29   1.362955 A    
C17   C20   1.393673 A    
C33   H14   1.109182 S    
C15   C16   1.418247 A    
C20   H5    1.083467 S    
O3    Cu1   1.948707 S    
C38   H29   1.112024 S    
C14   C51   1.484799 S    
C5    C6    1.340318 D    
C16   C18   1.417297 A    
C48   C49   1.534069 S    
C33   H13   1.110768 S    
C19   C20   1.385499 A    
C41   H36   1.110888 S    
O5    C3    1.292598 A    
C50   H49   1.110877 S    
C46   H41   1.109716 S    
C25   H9    1.082065 S    
C31   H17   1.106373 S    
C34   C35   1.534642 S    
C10   C11   1.392604 A    
C36   H19   1.111545 S    
Cu2   N3    2.009037 S    
C40   H39   1.112545 S    
C37   H31   1.111975 S    
C32   C33   1.526109 S    
C44   H47   1.110418 S    
C35   C36   1.525745 S    
C39   H28   1.110493 S    
C47   O12   1.397402 S    
C47   O11   1.222072 D    
C7    C43   1.488960 S    
C50   H50   1.110767 S    
C26   C28   1.407156 A    
C29   H10   1.077897 S    
C11   C31   1.515198 S    
C11   C12   1.412880 A    
C39   H27   1.111220 S    
N3    C21   1.385049 A    
C30   C37   1.523358 S    
C37   C38   1.537305 S    
C24   C34   1.510043 S    
C26   H8    1.082687 S    
C12   C13   1.416845 A    
C27   H7    1.078389 S    
C33   H12   1.109978 S    
O1    C1    1.291397 A    
C50   H51   1.110480 S    
C41   H37   1.112207 S    
Cu1   O7    1.958597 S    
C24   C25   1.420109 A    
C3    C18   1.458830 S    
C42   H34   1.109137 S    
N1    N2    1.244644 D    
Cu2   O8    1.948708 S    
C36   H21   1.110863 S    
C18   C19   1.395670 A    
C13   C14   1.417096 A    
C35   H22   1.112598 S    
C23   N4    1.446770 S    
C40   C41   1.542363 S    
C45   H44   1.109755 S    
Cu2   O6    1.938566 S    
N4    N5    1.255000 D    
O8    C4    1.287679 A    
C43   O10   1.398022 S    
C9    C14   1.411547 A    
C4    C6    1.444824 S    
C44   H46   1.108956 S    
O3    C2    1.290737 A    
C23   C24   1.414610 A    
C38   H30   1.110460 S    
C42   H35   1.110501 S    
C28   C30   1.418307 A    
C34   H25   1.112515 S    
C5    H1    1.087061 S    
C29   C30   1.420092 A    
C21   C22   1.405249 A    
C51   O14   1.397184 S    
C48   H54   1.110446 S    
O1    Cu1   1.938566 S    
O2    Cu2   1.943140 S    
Cu1   N6    2.009361 S    
C39   H26   1.110876 S    
O6    C3    1.289995 A    
O4    Cu2   1.958596 S    
N3    C25   1.367512 A    
C34   H24   1.111956 S    
C10   H6    1.084910 S    
C2    C8    1.446182 S    
C27   N6    1.364639 A    
C45   H45   1.110572 S    
C21   C40   1.516429 S    
C15   C17   1.422332 A    
O2    C1    1.292698 A    
C31   C32   1.534447 S    
C22   H11   1.082757 S    
C49   C50   1.525354 S    
C32   H16   1.111929 S    
C17   N2    1.416793 S    
C42   H33   1.110639 S    
O4    C2    1.287069 A    
O10   H40   1.013889 S    
O7    C4    1.289903 A    
C16   C44   1.523895 S    
C35   H23   1.111651 S    
C19   H4    1.082471 S    
C49   H53   1.112087 S    
C44   C45   1.533417 S    
C13   C48   1.523349 S    
C38   C39   1.526864 S    
Cu1   O5    1.943139 S    
C31   H18   1.112408 S    
C8    H3    1.083682 S    
C6    H2    1.083656 S    
C43   O9    1.223156 D    
C45   C46   1.526005 S    
C9    C10   1.394568 A    
C1    C9    1.462093 S    
C36   H20   1.111497 S    
C41   C42   1.528048 S    
C46   H43   1.110493 S    
