data_mof_unit_27035.cif
_audit_creation_date              2012-12-10T17:17:29-0500
_audit_creation_method            fapswitch 2.2
_symmetry_space_group_name_H-M    P1
_symmetry_Int_Tables_number       1
_space_group_crystal_system       triclinic
_cell_length_a                    10.254827
_cell_length_b                    10.504006
_cell_length_c                    12.158252
_cell_angle_alpha                 90.899007
_cell_angle_beta                  108.858382
_cell_angle_gamma                 94.220553
_cell_volume                      1234.90339747

loop_
_atom_site_label
_atom_site_type_symbol
_atom_type_description
_atom_site_fract_x
_atom_site_fract_y
_atom_site_fract_z
_atom_type_partial_charge
C1    C     C_R   0.052726 0.735263 0.498765 0.882104
C2    C     C_R   0.205322 0.502562 0.840267 -0.127589
C3    C     C_2   0.088768 0.872843 0.523945 -0.250572
C4    C     C_R   0.133016 0.506137 0.715001 0.831877
C5    C     C_2   0.024977 0.929506 0.591397 -0.241153
C6    C     C_2   0.927034 0.127202 0.513920 -0.048743
C7    C     C_2   0.016180 0.067153 0.602017 0.183648
C8    C     C_2   0.433810 0.505085 0.517563 -0.057583
C9    C     C_2   0.575233 0.475333 0.508381 -0.191978
C10   C     C_R   0.950431 0.265380 0.507926 0.908554
C11   C     C_R   0.866612 0.489023 0.285427 0.892464
C12   C     C_R   0.425538 0.488211 0.991959 0.092743
C13   C     C_R   0.743685 0.337810 0.985835 0.194042
C14   C     C_R   0.792611 0.470001 0.161911 -0.092433
C15   C     C_R   0.154866 0.564035 0.919611 -0.206077
C16   C     C_R   0.234679 0.577705 0.036647 -0.134604
C17   C     C_R   0.369838 0.541759 0.072738 -0.219638
C18   C     C_3   0.823773 0.051310 0.410033 -0.448641
C19   C     C_3   0.725028 0.132203 0.322242 -0.859193
C20   C     C_2   0.191913 0.941973 0.479822 0.915385
C21   C     C_3   0.320507 0.350392 0.368448 -0.208989
C22   C     C_3   0.184440 0.315645 0.273479 -0.776414
C23   C     C_R   0.335023 0.450609 0.880502 0.110724
C24   C     C_3   0.798093 0.252910 0.911207 -0.456470
C25   C     C_3   0.816872 0.324853 0.808189 -0.789872
C26   C     C_3   0.661646 0.667586 0.152008 -0.420448
C27   C     C_3   0.785570 0.756498 0.149104 -0.851221
C28   C     C_3   0.101283 0.132810 0.717615 -0.363580
C29   C     C_3   0.065694 0.073117 0.819334 -0.909953
C30   C     C_R   0.566873 0.465134 0.019821 -0.016782
C31   C     C_R   0.606784 0.374814 0.950189 0.116326
C32   C     C_R   0.508335 0.322297 0.848306 -0.244184
C33   C     C_R   0.376830 0.362404 0.812541 -0.215849
C34   C     C_R   0.670778 0.529886 0.113576 0.103873
C35   C     C_R   0.830756 0.377847 0.096659 -0.320615
H1    H     H_    0.926672 0.334811 0.132534 0.161778
H2    H     H_    0.308188 0.319636 0.731775 0.183219
H3    H     H_    0.663405 0.185258 0.364895 0.262378
H4    H     H_    0.783526 0.200443 0.283038 0.247010
H5    H     H_    0.652675 0.068841 0.251292 0.252807
H6    H     H_    0.881021 0.998162 0.363247 0.222244
H7    H     H_    0.760254 0.980566 0.442466 0.228348
H8    H     H_    0.342201 0.084437 0.506472 0.326811
H9    H     H_    0.199988 0.243998 0.211654 0.210454
H10   H     H_    0.105933 0.271691 0.308804 0.282295
H11   H     H_    0.150515 0.401915 0.224193 0.253318
H12   H     H_    0.961896 0.872945 0.632432 0.177028
H13   H     H_    0.390488 0.387362 0.320585 0.160232
H14   H     H_    0.360112 0.262875 0.412373 0.166577
H15   H     H_    0.719486 0.363084 0.754647 0.255068
H16   H     H_    0.897092 0.405602 0.840352 0.264065
H17   H     H_    0.850115 0.260117 0.751374 0.252500
H18   H     H_    0.900350 0.220989 0.962524 0.213446
H19   H     H_    0.728411 0.164454 0.880640 0.198493
H20   H     H_    0.881915 0.733297 0.216953 0.254384
H21   H     H_    0.799207 0.748954 0.062287 0.261971
H22   H     H_    0.767619 0.856843 0.166061 0.247541
H23   H     H_    0.585083 0.385280 0.468347 0.166835
H24   H     H_    0.569621 0.708580 0.092297 0.221261
H25   H     H_    0.653168 0.671944 0.240657 0.228322
H26   H     H_    0.952250 0.065155 0.802089 0.259247
H27   H     H_    0.103537 0.976376 0.833923 0.265778
H28   H     H_    0.116418 0.133502 0.899845 0.261747
H29   H     H_    0.212068 0.122071 0.731131 0.245821
H30   H     H_    0.085258 0.235791 0.720200 0.170338
H31   H     H_    0.433784 0.579639 0.580317 0.149688
H32   H     H_    0.675055 0.639129 0.582078 0.165652
H33   H     H_    0.531466 0.251511 0.793403 0.169545
H34   H     H_    0.055030 0.603016 0.891008 0.154029
H35   H     H_    0.429734 0.555256 0.163943 0.144846
H36   H     H_    0.194048 0.621329 0.098647 0.160276
N1    N     N_2   0.313640 0.446500 0.454900 -0.035485
N2    N     N_2   0.686360 0.553430 0.545150 -0.188026
O1    O     O_R   0.936910 0.692950 0.509080 -0.612754
O2    O     O_R   0.264407 0.054935 0.536649 -0.814613
O3    O     O_R   0.138320 0.658600 0.480130 -0.567116
O4    O     O_R   0.002900 0.525670 0.675280 -0.607451
O5    O     O_R   0.204310 0.491320 0.646330 -0.614939
O6    O     O_R   0.861680 0.341400 0.519870 -0.606661
O7    O     O_R   0.063090 0.307050 0.490920 -0.594418
O8    O     O_R   0.795690 0.508680 0.353670 -0.600876
O9    O     O_R   0.997100 0.474330 0.324720 -0.610467
O10   O     O_2   0.217597 0.897240 0.396372 -0.642765
Zn1   Zn    Zn3+2 0.865520 0.522940 0.519330 0.911980
Zn2   Zn    Zn3+2 0.134480 0.477060 0.480670 0.959083

loop_
_geom_bond_atom_site_label_1
_geom_bond_atom_site_label_2
_ccdc_geom_bond_type
C29   H28   S    
C8    H31   S    
C35   H1    S    
C21   H14   S    
N1    Zn2   S    
C11   O8    A    
C5    H12   S    
C12   C23   A    
C26   C27   S    
C1    O1    A    
C28   C29   S    
C13   C35   A    
C18   H7    S    
O6    Zn1   S    
C11   C14   S    
C27   H20   S    
C24   H19   S    
C15   C16   A    
C18   C19   S    
C25   H15   S    
C26   C34   S    
C22   H9    S    
C8    C9    S    
C23   C33   A    
C12   C17   A    
H32   N2    S    
C26   H24   S    
N2    Zn1   S    
C32   H33   S    
C21   H13   S    
C17   H35   S    
C21   C22   S    
C16   H36   S    
C9    N2    D    
C6    C18   S    
C19   H5    S    
C11   O9    A    
H8    O2    S    
C15   H34   S    
C29   H26   S    
C8    N1    D    
C30   C34   A    
C21   N1    S    
C24   C25   S    
C27   H22   S    
C18   H6    S    
C14   C35   A    
C5    C7    S    
C10   O7    A    
C27   H21   S    
C16   C17   A    
O4    Zn1   S    
C24   H18   S    
C33   H2    S    
C7    C28   S    
C20   O2    S    
C1    C3    S    
C2    C4    S    
C25   H16   S    
C4    O5    A    
O7    Zn2   S    
C19   H3    S    
C31   C32   A    
C3    C20   S    
C2    C15   A    
C19   H4    S    
C28   H29   S    
O5    Zn2   S    
C22   H11   S    
O8    Zn1   S    
C29   H27   S    
C9    H23   S    
C12   C30   A    
C1    O3    A    
C13   C31   A    
O1    Zn1   S    
C3    C5    D    
C14   C34   A    
C10   O6    A    
C6    C7    D    
O9    Zn2   S    
C32   C33   A    
C28   H30   S    
C25   H17   S    
C4    O4    A    
C30   C31   A    
C6    C10   S    
C22   H10   S    
C13   C24   S    
C20   O10   D    
C2    C23   A    
C26   H25   S    
O3    Zn2   S    
