data_mof_unit_59995.cif
_audit_creation_date              2012-12-10T18:42:30-0500
_audit_creation_method            fapswitch 2.2
_symmetry_space_group_name_H-M    P1
_symmetry_Int_Tables_number       1
_space_group_crystal_system       triclinic
_cell_length_a                    8.588941
_cell_length_b                    10.648984
_cell_length_c                    9.860878
_cell_angle_alpha                 89.967661
_cell_angle_beta                  98.604692
_cell_angle_gamma                 90.129603
_cell_volume                      891.756279857

loop_
_atom_site_label
_atom_site_type_symbol
_atom_type_description
_atom_site_fract_x
_atom_site_fract_y
_atom_site_fract_z
_atom_type_partial_charge
C1    C     C_R   0.499974 0.260404 0.499977 0.952595
C2    C     C_R   0.500025 0.739596 0.500023 0.952595
C3    C     C_R   0.201155 0.499979 0.464116 0.974306
C4    C     C_R   0.798845 0.500021 0.535884 0.974307
C5    C     C_2   0.036029 0.500091 0.444818 -0.382258
C6    C     C_2   0.963971 0.499909 0.555182 -0.382258
C7    C     C_R   0.380428 0.065013 0.413942 0.013065
C8    C     C_R   0.619571 0.934987 0.586057 0.013064
C9    C     C_R   0.380434 0.934644 0.413946 0.015436
C10   C     C_R   0.619566 0.065356 0.586053 0.015438
C11   C     C_R   0.500024 0.872021 0.499983 -0.069720
C12   C     C_R   0.499975 0.127979 0.500017 -0.069721
C13   C     C_R   0.597451 0.578450 0.084485 -0.074469
C14   C     C_R   0.402549 0.421550 0.915515 -0.074469
C15   C     C_R   0.597395 0.578432 0.940718 -0.070145
C16   C     C_R   0.402605 0.421567 0.059281 -0.070145
H1    H     H_    0.974212 0.500374 0.340111 0.179246
H2    H     H_    0.025788 0.499626 0.659889 0.179246
H3    H     H_    0.675463 0.641207 0.148920 0.126828
H4    H     H_    0.324537 0.358793 0.851080 0.126828
H5    H     H_    0.675316 0.641208 0.896445 0.132106
H6    H     H_    0.324684 0.358791 0.103554 0.132106
N1    N     N_R   0.499960 0.499970 0.857200 -0.080551
N2    N     N_R   0.500040 0.500030 0.142800 -0.080551
O1    O     O_R   0.499990 0.316750 0.614620 -0.617194
O2    O     O_R   0.500010 0.683250 0.385380 -0.617194
O3    O     O_R   0.499990 0.316780 0.385290 -0.615972
O4    O     O_R   0.500010 0.683220 0.614710 -0.615972
O5    O     O_R   0.271750 0.499990 0.587840 -0.623973
O6    O     O_R   0.728250 0.500010 0.412160 -0.623973
O7    O     O_R   0.271750 0.500010 0.358510 -0.620545
O8    O     O_R   0.728250 0.499990 0.641490 -0.620545
Zn1   Zn    Zn3+2 0.500000 0.499980 0.653120 0.953389
Zn2   Zn    Zn3+2 0.500000 0.500020 0.346880 0.953389
N3    N     N_3   0.258769 0.134608 0.330315 -0.461286
H7    H     H_    0.149880 0.109839 0.357781 0.176264
H8    H     H_    0.259213 0.110801 0.227570 0.182143
N4    N     N_3   0.741230 0.865392 0.669685 -0.461286
H9    H     H_    0.740787 0.889200 0.772429 0.182143
H10   H     H_    0.850117 0.890159 0.642218 0.176265
N5    N     N_3   0.258679 0.864705 0.330434 -0.452005
H11   H     H_    0.149877 0.888981 0.358126 0.173869
H12   H     H_    0.258861 0.888754 0.227692 0.188871
N6    N     N_3   0.741322 0.135295 0.669564 -0.452004
H13   H     H_    0.741142 0.111247 0.772306 0.188870
H14   H     H_    0.850124 0.111019 0.641872 0.173868

loop_
_geom_bond_atom_site_label_1
_geom_bond_atom_site_label_2
_ccdc_geom_bond_type
C14   N1    A    
C3    O7    A    
C14   H4    S    
C9    C11   A    
N5    H11   S    
C9    N5    S    
N3    H7    S    
O8    Zn1   S    
C15   N1    A    
O7    Zn2   S    
C16   N2    A    
C1    O1    A    
N5    H12   S    
C3    O5    A    
C4    O8    A    
C1    C12   S    
C8    N4    S    
C8    C11   A    
C5    C6    D    
C2    C11   S    
C10   C12   A    
C4    C6    S    
N4    H10   S    
N6    H14   S    
O4    Zn1   S    
C7    C9    A    
C13   C15   A    
O3    Zn2   S    
C7    C12   A    
C6    H2    S    
C14   C16   A    
C5    H1    S    
C13   H3    S    
C10   N6    S    
O5    Zn1   S    
C15   H5    S    
N4    H9    S    
N6    H13   S    
N1    Zn1   S    
C2    O2    A    
O1    Zn1   S    
C1    O3    A    
O6    Zn2   S    
C2    O4    A    
N3    H8    S    
C7    N3    S    
O2    Zn2   S    
C8    C10   A    
C4    O6    A    
C13   N2    A    
C16   H6    S    
C3    C5    S    
N2    Zn2   S    
