data_mof_unit_62054.cif
_audit_creation_date              2012-12-10T18:03:12-0500
_audit_creation_method            fapswitch 2.2
_symmetry_space_group_name_H-M    P1
_symmetry_Int_Tables_number       1
_space_group_crystal_system       triclinic
_cell_length_a                    30.697286
_cell_length_b                    21.752957
_cell_length_c                    21.743906
_cell_angle_alpha                 90.192352
_cell_angle_beta                  134.986057
_cell_angle_gamma                 90.070048
_cell_volume                      10269.243362

loop_
_atom_site_label
_atom_site_type_symbol
_atom_type_description
_atom_site_fract_x
_atom_site_fract_y
_atom_site_fract_z
_atom_type_partial_charge
C1    C     C_R   0.118678 0.500392 0.118505 0.792490
C2    C     C_3   0.557857 0.785272 0.164104 -0.453823
C3    C     C_R   0.001344 0.315051 0.000558 -0.092209
C4    C     C_R   0.501118 0.184727 0.000918 -0.082135
C5    C     C_R   0.499059 0.814736 0.998159 -0.097891
C6    C     C_3   0.895736 0.061489 0.111468 -0.454504
C7    C     C_3   0.417462 0.588121 0.132386 -0.470107
C8    C     C_R   0.045727 0.717353 0.011333 -0.209598
C9    C     C_R   0.038308 0.282397 0.995177 -0.209201
C10   C     C_R   0.545525 0.217365 0.010857 -0.209663
C11   C     C_R   0.472069 0.781568 0.921997 -0.204697
C12   C     C_R   0.045952 0.782206 0.011807 -0.200707
C13   C     C_R   0.217349 0.449271 0.237090 0.094648
C14   C     C_R   0.038812 0.217515 0.996171 -0.209657
C15   C     C_R   0.545753 0.282219 0.011338 -0.200696
C16   C     C_R   0.471762 0.716711 0.921928 -0.210284
C17   C     C_R   0.000305 0.814872 0.998975 -0.097293
C18   C     C_R   0.000793 0.184878 0.999574 -0.086302
C19   C     C_R   0.500306 0.314881 0.998985 -0.097119
C20   C     C_R   0.500072 0.684579 0.998653 -0.075662
C21   C     C_R   0.956769 0.780644 0.987345 0.128351
C22   C     C_R   0.964500 0.218917 0.003139 0.124843
C23   C     C_R   0.456975 0.280657 0.987832 0.127443
C24   C     C_R   0.717409 0.949397 0.237412 0.100545
C25   C     C_R   0.526801 0.718829 0.072057 0.114316
C26   C     C_2   0.605745 0.444102 0.790893 0.352465
C27   C     C_2   0.105889 0.944393 0.791027 0.353114
C28   C     C_R   0.185124 0.500038 0.183437 -0.067070
C29   C     C_R   0.685148 0.000024 0.183435 -0.068154
C30   C     C_R   0.217564 0.547152 0.185701 -0.208166
C31   C     C_R   0.717570 0.046925 0.185309 -0.208224
C32   C     C_R   0.282084 0.547118 0.249979 -0.210004
C33   C     C_R   0.782096 0.046893 0.249536 -0.211591
C34   C     C_R   0.314262 0.498927 0.310490 -0.094796
C35   C     C_R   0.618686 0.000378 0.118510 0.794382
C36   C     C_R   0.814287 0.998917 0.310395 -0.095847
C37   C     C_R   0.280914 0.448472 0.299187 0.143895
C38   C     C_R   0.780970 0.948626 0.299484 0.144565
C39   C     C_3   0.284531 0.416831 0.363530 -0.467217
C40   C     C_3   0.784685 0.917426 0.364131 -0.465369
C41   C     C_3   0.214553 0.417848 0.295093 -0.471103
C42   C     C_3   0.714722 0.918330 0.295710 -0.477571
C43   C     C_R   0.999914 0.618560 0.999957 0.797801
C44   C     C_R   0.000240 0.381360 0.000100 0.796937
C45   C     C_R   0.499922 0.118563 0.999964 0.797641
C46   C     C_3   0.901451 0.784791 0.972382 -0.458461
C47   C     C_R   0.499784 0.881256 0.999643 0.799043
C48   C     C_R   0.782153 0.545317 0.813062 0.092287
C49   C     C_R   0.282140 0.045334 0.813060 0.090979
C50   C     C_R   0.814632 0.500234 0.813546 -0.072955
C51   C     C_R   0.314627 0.000287 0.813510 -0.070598
C52   C     C_R   0.782186 0.459735 0.742287 -0.205370
C53   C     C_R   0.282187 0.959861 0.742170 -0.201796
C54   C     C_R   0.717700 0.459508 0.677985 -0.202547
C55   C     C_R   0.217699 0.959617 0.677868 -0.202926
C56   C     C_R   0.685507 0.501270 0.683170 -0.078403
C57   C     C_3   0.919548 0.214444 0.009758 -0.483862
C58   C     C_R   0.185502 0.001297 0.683138 -0.077892
C59   C     C_R   0.718546 0.546375 0.748163 0.132672
C60   C     C_R   0.218536 0.046382 0.748162 0.133018
C61   C     C_3   0.714519 0.564631 0.810293 -0.475687
C62   C     C_3   0.214505 0.064624 0.810292 -0.475815
C63   C     C_3   0.784446 0.563063 0.881663 -0.448061
C64   C     C_3   0.284434 0.063063 0.881665 -0.447498
C65   C     C_R   0.000223 0.999536 0.881285 0.806499
C66   C     C_R   0.500221 0.499540 0.881285 0.805246
C67   C     C_R   0.999923 0.881276 0.999656 0.799957
C68   C     C_3   0.401916 0.284813 0.973475 -0.458282
C69   C     C_R   0.000159 0.118641 0.000073 0.801613
C70   C     C_R   0.499923 0.381279 0.999665 0.798456
C71   C     C_R   0.500084 0.618543 0.000070 0.799936
C72   C     C_R   0.881225 0.499574 0.881212 0.793342
C73   C     C_R   0.381223 0.999605 0.881205 0.794435
C74   C     C_R   0.999954 0.999695 0.118673 0.799235
C75   C     C_R   0.499949 0.499919 0.118548 0.797005
C76   C     C_R   0.500020 0.499872 0.381377 0.799043
C77   C     C_R   0.999836 0.999876 0.381315 0.798423
C78   C     C_R   0.381087 0.499817 0.380779 0.794813
C79   C     C_3   0.559063 0.714420 0.164419 -0.490225
C80   C     C_R   0.881095 0.999820 0.380715 0.793952
C81   C     C_R   0.500722 0.500164 0.619370 0.774002
C82   C     C_R   0.000717 0.000162 0.619364 0.773823
C83   C     C_R   0.618821 0.500204 0.618930 0.776757
C84   C     C_R   0.118819 0.000208 0.618918 0.775391
C85   C     C_R   0.958214 0.033347 0.739337 0.114616
C86   C     C_R   0.458367 0.533544 0.739492 0.110273
C87   C     C_R   0.002026 0.000860 0.816324 -0.142255
C88   C     C_R   0.502025 0.500853 0.816327 -0.140033
C89   C     C_R   0.051891 0.974511 0.834336 -0.176471
C90   C     C_3   0.902308 0.713928 0.974253 -0.495475
C91   C     C_R   0.551798 0.474327 0.834250 -0.174425
C92   C     C_R   0.553371 0.473727 0.771033 -0.030430
C93   C     C_R   0.053448 0.973891 0.771104 -0.031040
C94   C     C_R   0.504283 0.501323 0.689428 -0.166353
C95   C     C_R   0.004261 0.001313 0.689405 -0.166410
C96   C     C_R   0.957916 0.718636 0.990019 0.126668
C97   C     C_R   0.965707 0.280927 0.005397 0.121396
C98   C     C_R   0.458131 0.218649 0.990508 0.126753
C99   C     C_R   0.525286 0.780833 0.071432 0.133198
C100  C     C_R   0.459901 0.534277 0.677646 0.136047
C101  C     C_3   0.920303 0.285317 0.011181 -0.456492
C102  C     C_R   0.959737 0.034076 0.677475 0.135548
C103  C     C_3   0.391348 0.531454 0.604454 -0.492645
C104  C     C_3   0.891201 0.030860 0.604317 -0.494332
C105  C     C_3   0.889569 0.029981 0.672525 -0.436281
C106  C     C_3   0.389706 0.530552 0.672659 -0.438271
C107  C     C_R   0.954231 0.026223 0.173808 0.128358
C108  C     C_R   0.463384 0.537741 0.182502 0.118824
C109  C     C_R   0.000356 0.998500 0.185559 -0.100272
C110  C     C_R   0.500211 0.498621 0.185052 -0.087673
C111  C     C_R   0.048416 0.969639 0.266262 -0.204069
C112  C     C_3   0.402772 0.213949 0.975335 -0.495506
C113  C     C_R   0.538814 0.458035 0.256050 -0.210091
C114  C     C_R   0.538400 0.457608 0.320521 -0.208095
C115  C     C_R   0.048154 0.969252 0.330870 -0.211613
C116  C     C_R   0.500969 0.499247 0.315999 -0.088240
C117  C     C_R   0.000913 0.999359 0.316303 -0.076515
C118  C     C_R   0.464731 0.538956 0.245880 0.125906
C119  C     C_R   0.955211 0.027685 0.236824 0.118841
C120  C     C_3   0.418498 0.589071 0.204329 -0.471078
C121  C     C_3   0.896697 0.062653 0.183322 -0.491389
C122  C     C_R   0.001110 0.684719 0.000911 -0.081952
Cu1   Cu    Cu3+1 0.000030 0.500000 0.061840 0.944755
Cu2   Cu    Cu3+1 0.500000 0.438210 0.499990 0.949970
Cu3   Cu    Cu3+1 0.000000 0.061790 0.499990 0.949346
Cu4   Cu    Cu3+1 1.000000 0.938210 0.499990 0.952154
Cu5   Cu    Cu3+1 0.500030 1.000000 0.061840 0.944825
Cu6   Cu    Cu3+1 0.999960 0.500000 0.938160 0.954265
Cu7   Cu    Cu3+1 0.499960 1.000000 0.938160 0.953213
Cu8   Cu    Cu3+1 0.938190 1.000000 0.938110 0.939348
Cu9   Cu    Cu3+1 0.438190 0.500000 0.938110 0.943697
Cu10  Cu    Cu3+1 0.061790 0.000000 0.061790 0.954790
Cu11  Cu    Cu3+1 0.561790 0.500000 0.061790 0.956323
Cu12  Cu    Cu3+1 0.500000 0.561790 0.499990 0.947217
H1    H     H_    0.080548 0.692940 0.020153 0.149068
H2    H     H_    0.306570 0.926712 0.738430 0.148676
H3    H     H_    0.693132 0.426232 0.625418 0.153355
H4    H     H_    0.193134 0.926390 0.625244 0.152686
H5    H     H_    0.692614 0.528745 0.817486 0.199989
H6    H     H_    0.695511 0.611630 0.797234 0.202546
H7    H     H_    0.192608 0.028732 0.817487 0.200288
H8    H     H_    0.195491 0.111620 0.797237 0.202100
H9    H     H_    0.803016 0.525977 0.929882 0.220318
H10   H     H_    0.805654 0.609107 0.909996 0.190055
H11   H     H_    0.303007 0.025972 0.929879 0.221288
H12   H     H_    0.067235 0.306796 0.991593 0.157795
H13   H     H_    0.305634 0.109108 0.910005 0.189540
H14   H     H_    0.088261 0.952347 0.896355 0.198209
H15   H     H_    0.588082 0.452030 0.896188 0.197829
H16   H     H_    0.374742 0.487918 0.566608 0.190259
H17   H     H_    0.371848 0.574105 0.565010 0.202465
H18   H     H_    0.874862 0.987208 0.566783 0.190238
H19   H     H_    0.871442 0.073379 0.564588 0.203229
H20   H     H_    0.872135 0.985854 0.674274 0.207843
H21   H     H_    0.868939 0.072071 0.672250 0.196795
H22   H     H_    0.372030 0.486513 0.674147 0.208919
H23   H     H_    0.580186 0.192955 0.019301 0.149283
H24   H     H_    0.369313 0.572750 0.672642 0.194090
H25   H     H_    0.085464 0.946896 0.278948 0.162127
H26   H     H_    0.568383 0.426386 0.260999 0.154667
H27   H     H_    0.080975 0.806558 0.020887 0.163508
H28   H     H_    0.067934 0.193089 0.993032 0.155136
H29   H     H_    0.580614 0.306576 0.020045 0.163405
H30   H     H_    0.450200 0.691905 0.862796 0.145530
H31   H     H_    0.567784 0.425725 0.374112 0.153908
H32   H     H_    0.084939 0.946411 0.392053 0.145924
H33   H     H_    0.438427 0.631972 0.243949 0.207190
H34   H     H_    0.450562 0.805489 0.862641 0.159916
H35   H     H_    0.374693 0.573170 0.181886 0.194527
H36   H     H_    0.903830 0.109320 0.210242 0.207017
H37   H     H_    0.859189 0.035056 0.167234 0.197322
H38   H     H_    0.902476 0.107470 0.097139 0.190466
H39   H     H_    0.857422 0.033545 0.053676 0.206340
H40   H     H_    0.437175 0.630302 0.130903 0.190464
H41   H     H_    0.372930 0.572065 0.068273 0.209801
H42   H     H_    0.861044 0.804088 0.907534 0.206414
H43   H     H_    0.874811 0.194242 0.950277 0.208543
H44   H     H_    0.361357 0.304117 0.908733 0.206966
H45   H     H_    0.195560 0.447686 0.313110 0.213353
H46   H     H_    0.529700 0.693005 0.171115 0.191530
H47   H     H_    0.912141 0.806234 0.028309 0.196620
H48   H     H_    0.940315 0.193799 0.072245 0.189294
H49   H     H_    0.412899 0.306254 0.029628 0.196458
H50   H     H_    0.606082 0.694993 0.206642 0.209279
H51   H     H_    0.862748 0.692475 0.910194 0.193230
H52   H     H_    0.876162 0.306117 0.952071 0.198727
H53   H     H_    0.363058 0.192507 0.911365 0.193240
H54   H     H_    0.528118 0.804681 0.171208 0.206971
H55   H     H_    0.912899 0.694378 0.030760 0.207146
H56   H     H_    0.193385 0.371330 0.270505 0.198605
H57   H     H_    0.940851 0.305385 0.074102 0.208165
H58   H     H_    0.413645 0.194396 0.032056 0.206866
H59   H     H_    0.604166 0.806712 0.205938 0.188265
H60   H     H_    0.193177 0.585164 0.140643 0.143088
H61   H     H_    0.693166 0.084787 0.139981 0.143568
H62   H     H_    0.306613 0.585200 0.253620 0.159613
H63   H     H_    0.806621 0.084815 0.252877 0.160600
H64   H     H_    0.306083 0.446024 0.421189 0.186920
H65   H     H_    0.303700 0.369718 0.378486 0.205286
H66   H     H_    0.806170 0.946927 0.421501 0.186630
H67   H     H_    0.695632 0.948280 0.313485 0.213235
H68   H     H_    0.803949 0.870325 0.379512 0.204755
H69   H     H_    0.609167 0.445487 0.744614 0.077143
H70   H     H_    0.109231 0.945670 0.744660 0.077426
H71   H     H_    0.693803 0.871735 0.271579 0.189270
H72   H     H_    0.806564 0.426531 0.738605 0.151092
O1    O     O_R   0.090190 0.500000 0.142390 -0.585973
O2    O     O_R   0.552170 0.500000 0.142340 -0.586060
O3    O     O_R   0.499940 0.552220 0.409760 -0.584893
O4    O     O_R   0.499940 0.447780 0.409760 -0.586810
O5    O     O_R   0.999940 0.052220 0.409760 -0.583958
O6    O     O_R   0.999940 0.947780 0.409760 -0.585048
O7    O     O_R   0.409830 0.552190 0.409810 -0.588311
O8    O     O_R   0.409830 0.447810 0.409810 -0.580545
O9    O     O_R   0.909830 0.052190 0.409810 -0.587899
O10   O     O_R   0.909830 0.947810 0.409810 -0.581087
O11   O     O_R   0.500050 0.552150 0.590200 -0.577762
O12   O     O_R   0.590190 0.000000 0.142390 -0.587437
O13   O     O_R   0.500050 0.447850 0.590200 -0.589740
O14   O     O_R   0.000050 0.052150 0.590200 -0.577792
O15   O     O_R   0.000050 0.947850 0.590200 -0.589648
O16   O     O_R   0.590170 0.552180 0.590150 -0.581697
O17   O     O_R   0.590170 0.447820 0.590150 -0.590708
O18   O     O_R   0.090170 0.052180 0.590150 -0.581813
O19   O     O_R   0.090170 0.947820 0.590150 -0.589818
O20   O     O_R   0.090130 0.500000 0.037950 -0.586731
O21   O     O_R   0.590130 1.000000 0.037950 -0.584010
O22   O     O_R   0.000030 0.590170 0.052220 -0.584535
O23   O     O_R   0.052180 0.909820 0.052170 -0.588744
O24   O     O_R   0.000030 0.409830 0.052220 -0.585287
O25   O     O_R   0.500030 0.090170 0.052220 -0.584886
O26   O     O_R   0.500030 0.909830 0.052220 -0.584930
O27   O     O_R   0.999970 0.590160 0.947780 -0.583905
O28   O     O_R   0.999970 0.409840 0.947780 -0.587573
O29   O     O_R   0.499970 0.090160 0.947780 -0.584074
O30   O     O_R   0.499970 0.909840 0.947780 -0.589490
O31   O     O_R   0.909850 0.500000 0.962050 -0.587569
O32   O     O_R   0.409850 0.000000 0.962050 -0.585613
O33   O     O_R   0.909790 0.500000 0.857610 -0.583577
O34   O     O_R   0.052180 0.090180 0.052170 -0.583409
O35   O     O_R   0.409790 0.000000 0.857610 -0.586608
O36   O     O_R   0.947810 1.000000 0.857560 -0.585237
O37   O     O_R   0.447810 0.500000 0.857560 -0.586918
O38   O     O_R   0.052190 0.000000 0.962010 -0.590082
O39   O     O_R   0.552190 0.500000 0.962010 -0.587754
O40   O     O_R   0.947800 0.909830 0.947720 -0.586177
O41   O     O_R   0.947800 0.090170 0.947720 -0.586561
O42   O     O_R   0.447800 0.409830 0.947720 -0.585642
O43   O     O_R   0.447800 0.590170 0.947720 -0.586882
O44   O     O_2   0.646311 0.418007 0.859954 -0.547495
O45   O     O_R   0.552180 0.409820 0.052170 -0.589074
O46   O     O_2   0.146594 0.918517 0.860231 -0.546374
O47   O     O_R   0.552180 0.590180 0.052170 -0.581300
O48   O     O_R   0.947790 1.000000 0.037880 -0.588173
O49   O     O_R   0.447790 0.500000 0.037880 -0.585756
O50   O     O_R   0.052170 0.000000 0.142340 -0.586293

loop_
_geom_bond_atom_site_label_1
_geom_bond_atom_site_label_2
_ccdc_geom_bond_type
C1    O20   A    
C76   O3    A    
C89   H14   S    
C30   C32   A    
C105  H21   S    
C68   H49   S    
C85   C87   A    
C4    C98   A    
C64   H11   S    
C34   C37   A    
C24   C42   S    
C14   C18   A    
C19   C23   A    
Cu12  O3    S    
C32   H62   S    
Cu10  O23   S    
C78   O8    A    
C112  H53   S    
C13   C41   S    
Cu3   O5    S    
Cu4   O15   S    
C39   C41   S    
C82   O15   A    
Cu2   O8    S    
C16   H30   S    
Cu6   O33   S    
C15   C19   A    
C5    C47   S    
C30   H60   S    
C49   C60   A    
Cu7   O35   S    
C41   H56   S    
Cu7   O29   S    
C52   H72   S    
C46   H47   S    
C15   H29   S    
C38   C40   S    
C62   H8    S    
C21   C46   S    
C75   O49   A    
C10   C15   A    
C117  C119  A    
C66   C88   S    
C67   O40   A    
C86   C88   A    
C120  H35   S    
C54   H3    S    
C20   C25   A    
C58   C60   A    
C81   O13   A    
C7    H40   S    
C9    H12   S    
C33   C36   A    
C79   H50   S    
C31   H61   S    
C42   H71   S    
C60   C62   S    
C68   C112  S    
C68   H44   S    
C61   C63   S    
C44   O24   A    
C24   C29   A    
C71   O47   A    
C62   C64   S    
C2    C79   S    
C26   O44   D    
C103  H16   S    
C51   C73   S    
C12   H27   S    
C83   O16   A    
C69   O41   A    
C79   H46   S    
C5    C99   A    
C116  C118  A    
Cu12  O16   S    
C82   O14   A    
C7    H41   S    
C12   C17   A    
C1    C28   S    
C24   C38   A    
C63   H10   S    
C31   C33   A    
C13   C28   A    
C94   C100  A    
C104  H19   S    
C86   C100  A    
Cu11  O45   S    
C13   C37   A    
C77   O6    A    
C95   C102  A    
C103  H17   S    
C50   C72   S    
C26   C92   S    
C18   C69   S    
C40   C42   S    
C105  H20   S    
C6    C107  S    
C93   C95   A    
C22   C97   A    
C25   C79   S    
C8    H1    S    
C107  C109  A    
C86   C106  S    
C53   H2    S    
C56   C83   S    
C74   C109  S    
C85   C105  S    
C84   O19   A    
C78   O7    A    
C107  C119  A    
C104  C105  S    
C52   C54   A    
C65   C87   S    
C80   O9    A    
C2    H54   S    
C4    C45   S    
C53   C55   A    
Cu6   O28   S    
C120  H33   S    
C65   O38   A    
C54   C56   A    
C3    C44   S    
C59   C61   S    
C17   C67   S    
Cu7   O30   S    
Cu1   O1    S    
C27   H70   S    
C108  C118  A    
C98   C112  S    
C80   O10   A    
C36   C80   S    
Cu11  O47   S    
C91   C92   A    
C91   H15   S    
C77   O5    A    
C61   H5    S    
C48   C63   S    
C6    H38   S    
C47   O26   A    
C40   H66   S    
C21   C96   A    
C49   C51   A    
C106  H24   S    
C100  C103  S    
C17   C21   A    
Cu11  O2    S    
C32   C34   A    
C23   C68   S    
C14   H28   S    
Cu8   Cu10  S    
C9    C14   A    
Cu5   Cu7   S    
C3    C9    A    
C44   O28   A    
C112  H58   S    
C111  C115  A    
C75   O2    A    
C3    C97   A    
C97   C101  S    
C50   C52   A    
C43   C122  S    
Cu2   O17   S    
C33   H63   S    
C39   H65   S    
C16   C20   A    
C81   O11   A    
Cu7   O21   S    
C92   C94   A    
C72   O33   A    
C57   H48   S    
C20   C71   S    
C115  H32   S    
C102  C104  S    
C5    C11   A    
Cu12  O7    S    
C10   H23   S    
C74   O48   A    
C119  C121  S    
Cu4   O10   S    
C7    C108  S    
Cu8   O48   S    
Cu6   O20   S    
C43   O27   A    
C90   H51   S    
C39   H64   S    
C40   H68   S    
C2    C99   S    
C106  H22   S    
C87   C89   A    
C64   H13   S    
C84   O18   A    
Cu3   Cu4   S    
C19   C70   S    
Cu8   O41   S    
C35   O21   A    
C27   C93   S    
Cu4   O19   S    
Cu9   O49   S    
C62   H7    S    
C4    C10   A    
C101  H52   S    
C35   O12   A    
C43   O22   A    
Cu11  O39   S    
C48   C59   A    
C66   O39   A    
C113  C114  A    
Cu3   O18   S    
C76   O4    A    
Cu6   O27   S    
C115  C117  A    
C75   C110  S    
C82   C95   S    
C121  H37   S    
C18   C22   A    
C7    C120  S    
C41   H45   S    
C45   O29   A    
C111  H25   S    
C101  H57   S    
C114  C116  A    
Cu10  O38   S    
C61   H6    S    
C90   C96   S    
C46   C90   S    
C6    H39   S    
Cu2   Cu12  S    
Cu12  O11   S    
C57   C101  S    
C65   O36   A    
C29   C35   S    
C77   C117  S    
Cu1   O22   S    
C56   C59   A    
C96   C122  A    
Cu3   O9    S    
C2    H59   S    
C104  H18   S    
C28   C30   A    
C26   H69   S    
Cu10  O34   S    
C83   O17   A    
C114  H31   S    
C37   C39   S    
Cu9   O37   S    
C34   C78   S    
C36   C38   A    
C57   H43   S    
C81   C94   S    
Cu8   O36   S    
C8    C122  A    
Cu1   Cu6   S    
C11   H34   S    
Cu1   O24   S    
Cu2   O4    S    
C109  C111  A    
C22   C57   S    
C48   C50   A    
Cu5   O26   S    
C76   C116  S    
Cu9   O43   S    
C108  C110  A    
Cu9   Cu11  S    
C121  H36   S    
C103  C106  S    
C46   H42   S    
C113  H26   S    
C89   C93   A    
C58   C84   S    
C1    O1    A    
C69   O34   A    
C118  C120  S    
Cu2   O13   S    
C11   C16   A    
Cu9   O42   S    
Cu10  O50   S    
C55   H4    S    
Cu8   O40   S    
Cu3   O14   S    
C25   C99   A    
C73   O32   A    
C23   C98   A    
C73   O35   A    
C67   O23   A    
Cu5   O32   S    
C29   C31   A    
Cu5   O25   S    
C66   O37   A    
C55   C58   A    
C110  C113  A    
C49   C64   S    
C27   O46   D    
C63   H9    S    
C72   O31   A    
C42   H67   S    
Cu4   O6    S    
C45   O25   A    
C6    C121  S    
C51   C53   A    
C47   O30   A    
C88   C91   A    
C70   O45   A    
C71   O43   A    
C74   O50   A    
C85   C102  A    
C8    C12   A    
Cu5   O12   S    
C70   O42   A    
Cu1   O31   S    
C90   H55   S    
