data_mof_unit_14292.cif
_audit_creation_date              2012-12-10T18:04:37-0500
_audit_creation_method            fapswitch 2.2
_symmetry_space_group_name_H-M    P1
_symmetry_Int_Tables_number       1
_space_group_crystal_system       triclinic
_cell_length_a                    10.791419
_cell_length_b                    9.528564
_cell_length_c                    16.013226
_cell_angle_alpha                 90.055492
_cell_angle_beta                  90.170676
_cell_angle_gamma                 90.074984
_cell_volume                      1646.5781176

loop_
_atom_site_label
_atom_site_type_symbol
_atom_type_description
_atom_site_fract_x
_atom_site_fract_y
_atom_site_fract_z
_atom_type_partial_charge
C1    C     C_R   0.871465 0.500445 0.498962 -0.202632
C2    C     C_R   0.128433 0.499458 0.499565 -0.203754
C3    C     C_R   0.262594 0.499901 0.499767 0.743880
C4    C     C_R   0.737359 0.500114 0.499054 0.752457
C5    C     C_R   0.500130 0.499946 0.341372 0.806345
C6    C     C_R   0.500452 0.500055 0.658628 0.809482
C7    C     C_R   0.497913 0.629134 0.955970 -0.030916
C8    C     C_R   0.497773 0.370867 0.044016 -0.026440
C9    C     C_R   0.504143 0.629047 0.044283 -0.027142
C10   C     C_R   0.504274 0.370972 0.955737 -0.027543
C11   C     C_R   0.501090 0.500096 0.912485 -0.048930
C12   C     C_R   0.500848 0.499913 0.087517 -0.045780
C13   C     C_1   0.500936 0.500161 0.822427 -0.091741
C14   C     C_1   0.500582 0.499845 0.177575 -0.082091
C15   C     C_1   0.500358 0.499854 0.252493 -0.150758
C16   C     C_1   0.500733 0.500151 0.747508 -0.160439
C17   C     C_R   0.422372 0.074171 0.448472 0.007690
C18   C     C_R   0.577607 0.925825 0.551536 0.000674
C19   C     C_R   0.577581 0.074578 0.551551 0.009848
C20   C     C_R   0.422362 0.925408 0.448473 0.003975
C21   C     C_R   0.065009 0.442130 0.568729 -0.034201
C22   C     C_R   0.934917 0.552875 0.428690 -0.024732
C23   C     C_R   0.934629 0.443041 0.568111 -0.023867
C24   C     C_R   0.065150 0.556676 0.430221 -0.026333
Cu1   Cu    Cu3+1 0.500000 0.640660 0.500000 0.955999
Cu2   Cu    Cu3+1 0.500000 0.359340 0.500000 0.978666
H1    H     H_    0.360161 0.130000 0.407168 0.137144
H2    H     H_    0.639802 0.869999 0.592853 0.136770
H3    H     H_    0.639701 0.130722 0.592899 0.163827
H4    H     H_    0.360131 0.869243 0.407177 0.144073
N1    N     N_R   0.500000 0.852070 0.500000 -0.170391
N2    N     N_R   0.500000 0.147930 0.500000 -0.172140
O1    O     O_R   0.319640 0.618740 0.499990 -0.578039
O2    O     O_R   0.680360 0.381260 0.500010 -0.557824
O3    O     O_R   0.680360 0.618740 0.500010 -0.594397
O4    O     O_R   0.319640 0.381260 0.499990 -0.572205
O5    O     O_R   0.499970 0.618750 0.380310 -0.586943
O6    O     O_R   0.500030 0.381250 0.619690 -0.573943
O7    O     O_R   0.500030 0.618750 0.619690 -0.575521
O8    O     O_R   0.499970 0.381250 0.380310 -0.573758
C25   C     C_2   0.517927 0.762165 0.092553 0.517014
H5    H     H_    0.475371 0.772992 0.153527 0.063301
O9    O     O_2   0.581658 0.858475 0.066430 -0.458191
C26   C     C_2   0.518256 0.237897 0.907544 0.514755
H6    H     H_    0.475945 0.226941 0.846323 0.071063
O10   O     O_2   0.581894 0.141783 0.934033 -0.458391
C27   C     C_2   0.484193 0.762326 0.907962 0.506310
H7    H     H_    0.526697 0.773353 0.846990 0.062456
O11   O     O_2   0.420576 0.858465 0.934297 -0.457942
C28   C     C_2   0.483844 0.237638 0.091946 0.504378
H8    H     H_    0.526103 0.226728 0.153164 0.067656
O12   O     O_2   0.420313 0.141323 0.065246 -0.459742
C29   C     C_2   0.137343 0.394312 0.643342 0.426770
H9    H     H_    0.226620 0.441325 0.657307 0.043235
O13   O     O_2   0.100797 0.300346 0.688711 -0.471162
C30   C     C_2   0.863921 0.593426 0.352262 0.444645
H10   H     H_    0.775041 0.645483 0.357292 0.075902
O14   O     O_2   0.901732 0.563425 0.282710 -0.494218
C31   C     C_2   0.861806 0.393172 0.640883 0.473454
H11   H     H_    0.802241 0.465879 0.674059 0.019158
O15   O     O_2   0.861325 0.269315 0.660237 -0.484146
C32   C     C_2   0.136893 0.621654 0.360708 0.478238
H12   H     H_    0.224925 0.577211 0.341698 0.032065
O16   O     O_2   0.100895 0.728667 0.326530 -0.504980

loop_
_geom_bond_atom_site_label_1
_geom_bond_atom_site_label_2
_ccdc_geom_bond_type
Cu1   N1    S    
C28   O12   D    
C6    O6    A    
Cu2   N2    S    
C32   H12   S    
C5    O5    A    
C30   O14   D    
C11   C13   S    
C25   H5    S    
C9    C25   S    
C27   H7    S    
C14   C15   T    
C22   C30   S    
C8    C12   A    
C1    C4    S    
C2    C21   A    
C29   O13   D    
C28   H8    S    
C23   C31   S    
C4    O3    A    
C1    C22   A    
C27   O11   D    
C19   H3    S    
C20   H4    S    
C29   H9    S    
Cu1   O7    S    
C21   C29   S    
C25   O9    D    
Cu2   O8    S    
C3    O4    A    
Cu1   O3    S    
C19   N2    A    
Cu2   O4    S    
C12   C14   S    
C1    C23   A    
C2    C3    S    
C21   C23   A    
C4    O2    A    
C2    C24   A    
C24   C32   S    
C9    C12   A    
C22   C24   A    
C31   O15   D    
C5    C15   S    
C10   C11   A    
C3    O1    A    
C10   C26   S    
C17   H1    S    
C8    C28   S    
C31   H11   S    
C17   C20   A    
C18   H2    S    
C30   H10   S    
C8    C10   A    
C18   C19   A    
C13   C16   T    
C7    C9    A    
C17   N2    A    
C6    O7    A    
Cu2   O6    S    
C7    C11   A    
C32   O16   D    
C18   N1    A    
C26   O10   D    
Cu1   O5    S    
Cu1   Cu2   S    
C5    O8    A    
C6    C16   S    
Cu2   O2    S    
C26   H6    S    
Cu1   O1    S    
C20   N1    A    
C7    C27   S    
