data_mof_unit_61414.cif
_audit_creation_date              2012-12-10T17:41:52-0500
_audit_creation_method            fapswitch 2.2
_symmetry_space_group_name_H-M    P1
_symmetry_Int_Tables_number       1
_space_group_crystal_system       triclinic
_cell_length_a                    24.362353
_cell_length_b                    24.362353
_cell_length_c                    43.093082
_cell_angle_alpha                 90.000131
_cell_angle_beta                  90.000126
_cell_angle_gamma                 90.180194
_cell_volume                      25576.662414

loop_
_atom_site_label
_atom_site_type_symbol
_atom_type_description
_atom_site_fract_x
_atom_site_fract_y
_atom_site_fract_z
_atom_type_partial_charge
C1    C     C_R   0.500000 0.000000 0.934386 0.009483
C2    C     C_R   0.808861 0.273329 0.225295 0.004391
C3    C     C_R   0.458131 0.973267 0.582275 -0.120951
C4    C     C_R   0.026086 0.542267 0.417766 -0.121065
C5    C     C_R   0.973267 0.458131 0.582275 -0.120951
C6    C     C_R   0.457733 0.973914 0.417766 -0.121065
C7    C     C_R   0.541869 0.026734 0.582275 -0.120951
C8    C     C_R   0.476931 0.955429 0.885577 -0.030861
C9    C     C_R   0.475631 0.043715 0.114493 -0.028452
C10   C     C_R   0.044571 0.523069 0.885577 -0.030861
C11   C     C_R   0.956285 0.524369 0.114493 -0.028452
C12   C     C_R   0.523069 0.044571 0.885577 -0.030861
C13   C     C_R   0.255537 0.173599 0.753589 0.001970
C14   C     C_R   0.524369 0.956285 0.114493 -0.028452
C15   C     C_R   0.955429 0.476931 0.885577 -0.030861
C16   C     C_R   0.043715 0.475631 0.114493 -0.028452
C17   C     C_R   0.973639 0.457320 0.385344 -0.032060
C18   C     C_R   0.027022 0.542264 0.614696 -0.032027
C19   C     C_R   0.542681 0.026361 0.385345 -0.032060
C20   C     C_R   0.457736 0.972978 0.614696 -0.032028
C21   C     C_R   0.026360 0.542681 0.385345 -0.032060
C22   C     C_R   0.972978 0.457736 0.614696 -0.032027
C23   C     C_R   0.457320 0.973640 0.385344 -0.032060
C24   C     C_R   0.744444 0.826387 0.246205 0.002653
C25   C     C_R   0.542264 0.027023 0.614696 -0.032028
C26   C     C_R   0.500000 0.000000 0.665920 0.505400
C27   C     C_R   0.500000 0.000000 0.334090 0.505195
C28   C     C_R   0.000000 0.500000 0.665920 0.505400
C29   C     C_R   1.000000 0.500000 0.334090 0.505195
C30   C     C_R   1.000000 0.500000 0.165869 0.507598
C31   C     C_R   0.000000 0.500000 0.834147 0.505000
C32   C     C_R   0.500000 1.000000 0.165869 0.507598
C33   C     C_R   0.500000 0.000000 0.834147 0.505000
C34   C     C_R   0.605662 0.894338 0.750000 0.515321
C35   C     C_R   0.809494 0.272703 0.774441 0.004521
C36   C     C_R   0.394333 0.105655 0.249990 0.517241
C37   C     C_R   0.105582 0.605562 0.750003 0.525343
C38   C     C_R   0.894402 0.394451 0.250011 0.524931
C39   C     C_R   0.394338 0.105662 0.750000 0.515322
C40   C     C_R   0.605667 0.894345 0.249990 0.517242
C41   C     C_R   0.894418 0.394438 0.750003 0.525342
C42   C     C_R   0.105598 0.605549 0.250011 0.524931
C43   C     C_R   0.394451 0.894402 0.250011 0.524931
C44   C     C_R   0.605562 0.105582 0.750003 0.525343
C45   C     C_R   0.894345 0.605667 0.249990 0.517242
C46   C     C_R   0.191140 0.726669 0.225294 0.004391
C47   C     C_R   0.105662 0.394338 0.750000 0.515322
C48   C     C_R   0.605549 0.105598 0.250011 0.524931
C49   C     C_R   0.394438 0.894418 0.750003 0.525343
C50   C     C_R   0.105655 0.394333 0.249990 0.517241
C51   C     C_R   0.894338 0.605662 0.750000 0.515321
C52   C     C_R   0.500000 0.000000 0.868715 0.010024
C53   C     C_R   0.500000 1.000000 0.131329 0.014064
C54   C     C_R   0.000000 0.500000 0.868715 0.010024
C55   C     C_R   1.000000 0.500000 0.131329 0.014064
C56   C     C_R   1.000000 0.500000 0.368557 0.011699
C57   C     C_R   0.744463 0.826401 0.753589 0.001970
C58   C     C_R   0.000000 0.500000 0.631469 0.011961
C59   C     C_R   0.500000 0.000000 0.368557 0.011699
C60   C     C_R   0.500000 0.000000 0.631469 0.011961
C61   C     C_R   1.000000 0.500000 0.531532 0.352930
C62   C     C_R   1.000000 0.500000 0.468509 0.352928
C63   C     C_R   0.500000 0.000000 0.531532 0.352930
C64   C     C_R   0.500000 0.000000 0.468509 0.352928
C65   C     C_R   0.500000 1.000000 0.031504 0.348029
C66   C     C_R   0.500000 0.000000 0.968564 0.347898
C67   C     C_R   1.000000 0.500000 0.031504 0.348029
C68   C     C_R   0.255556 0.173613 0.246205 0.002653
C69   C     C_R   0.000000 0.500000 0.968564 0.347898
C70   C     C_R   0.186613 0.649353 0.725823 -0.030060
C71   C     C_R   0.814058 0.349972 0.274533 -0.030045
C72   C     C_R   0.367088 0.203564 0.746323 -0.035511
C73   C     C_R   0.632934 0.796460 0.253713 -0.033318
C74   C     C_R   0.813387 0.350647 0.725823 -0.030061
C75   C     C_R   0.185941 0.650030 0.274533 -0.030045
C76   C     C_R   0.632911 0.796436 0.746323 -0.035511
C77   C     C_R   0.367066 0.203540 0.253713 -0.033318
C78   C     C_R   0.796460 0.632934 0.253713 -0.033318
C79   C     C_R   0.826387 0.744444 0.246205 0.002653
C80   C     C_R   0.203564 0.367088 0.746323 -0.035511
C81   C     C_R   0.650029 0.185942 0.274533 -0.030045
C82   C     C_R   0.350647 0.813387 0.725823 -0.030061
C83   C     C_R   0.203540 0.367066 0.253713 -0.033318
C84   C     C_R   0.796436 0.632912 0.746323 -0.035511
C85   C     C_R   0.349971 0.814059 0.274533 -0.030045
C86   C     C_R   0.649353 0.186613 0.725823 -0.030061
C87   C     C_R   0.685649 0.150315 0.225379 -0.031348
C88   C     C_R   0.313680 0.850368 0.774333 -0.029812
C89   C     C_R   0.867080 0.703544 0.246137 -0.033753
C90   C     C_R   0.173599 0.255537 0.753589 0.001970
C91   C     C_R   0.132910 0.296436 0.753687 -0.035474
C92   C     C_R   0.314352 0.849683 0.225378 -0.031348
C93   C     C_R   0.686320 0.149632 0.774333 -0.029812
C94   C     C_R   0.132920 0.296456 0.246137 -0.033753
C95   C     C_R   0.867090 0.703563 0.753687 -0.035474
C96   C     C_R   0.296437 0.132910 0.753687 -0.035474
C97   C     C_R   0.703544 0.867080 0.246137 -0.033753
C98   C     C_R   0.149632 0.686320 0.774333 -0.029812
C99   C     C_R   0.849684 0.314350 0.225379 -0.031348
C100  C     C_R   0.703563 0.867090 0.753686 -0.035474
C101  C     C_R   0.726671 0.191139 0.225295 0.004391
C102  C     C_R   0.296456 0.132920 0.246137 -0.033753
C103  C     C_R   0.850368 0.313680 0.774333 -0.029812
C104  C     C_R   0.150316 0.685648 0.225378 -0.031348
C105  C     C_R   0.147963 0.647860 0.750029 0.008875
C106  C     C_R   0.852023 0.352148 0.249996 0.008386
C107  C     C_R   0.351926 0.148074 0.750002 -0.002910
C108  C     C_R   0.648081 0.851937 0.249958 0.000103
C109  C     C_R   0.852037 0.352139 0.750029 0.008875
C110  C     C_R   0.147976 0.647853 0.249996 0.008386
C111  C     C_R   0.648074 0.851926 0.750002 -0.002910
C112  C     C_R   0.500000 1.000000 0.065682 0.009512
C113  C     C_R   0.272703 0.809494 0.774441 0.004521
C114  C     C_R   0.351919 0.148063 0.249958 0.000104
C115  C     C_R   0.851937 0.648081 0.249958 0.000103
C116  C     C_R   0.148073 0.351926 0.750002 -0.002910
C117  C     C_R   0.647853 0.147976 0.249996 0.008386
C118  C     C_R   0.352139 0.852037 0.750029 0.008875
C119  C     C_R   0.148063 0.351919 0.249958 0.000104
C120  C     C_R   0.851926 0.648074 0.750002 -0.002910
C121  C     C_R   0.352148 0.852023 0.249996 0.008386
C122  C     C_R   0.647860 0.147963 0.750029 0.008875
C123  C     C_1   0.184558 0.607816 0.701636 0.226366
C124  C     C_R   0.173613 0.255556 0.246205 0.002653
C125  C     C_1   0.816656 0.390954 0.299004 0.226174
C126  C     C_1   0.424422 0.217992 0.741477 0.217164
C127  C     C_1   0.575623 0.782058 0.258669 0.218071
C128  C     C_1   0.815442 0.392183 0.701636 0.226366
C129  C     C_1   0.183342 0.609048 0.299005 0.226173
C130  C     C_1   0.575578 0.782007 0.741477 0.217164
C131  C     C_1   0.424377 0.217942 0.258669 0.218071
C132  C     C_1   0.782058 0.575623 0.258669 0.218071
C133  C     C_1   0.217992 0.424422 0.741477 0.217163
C134  C     C_1   0.609046 0.183344 0.299004 0.226173
C135  C     C_R   0.826401 0.744463 0.753589 0.001970
C136  C     C_1   0.392183 0.815442 0.701636 0.226365
C137  C     C_1   0.217942 0.424377 0.258669 0.218071
C138  C     C_1   0.782008 0.575578 0.741477 0.217164
C139  C     C_1   0.390952 0.816658 0.299005 0.226173
C140  C     C_1   0.607816 0.184558 0.701636 0.226366
C141  C     C_1   0.682206 0.110124 0.200519 0.215150
C142  C     C_1   0.316369 0.891321 0.798821 0.224899
C143  C     C_1   0.924392 0.717925 0.241170 0.219130
C144  C     C_1   0.075579 0.282014 0.758547 0.216850
C145  C     C_1   0.317796 0.889873 0.200517 0.215151
C146  C     C_R   0.273330 0.808860 0.225294 0.004391
C147  C     C_1   0.683632 0.108680 0.798821 0.224898
C148  C     C_1   0.075608 0.282075 0.241169 0.219130
C149  C     C_1   0.924421 0.717986 0.758547 0.216850
C150  C     C_1   0.282014 0.075579 0.758547 0.216850
C151  C     C_1   0.717925 0.924392 0.241170 0.219130
C152  C     C_1   0.108680 0.683631 0.798821 0.224898
C153  C     C_1   0.889876 0.317794 0.200519 0.215150
C154  C     C_1   0.717986 0.924421 0.758547 0.216850
C155  C     C_1   0.282075 0.075608 0.241169 0.219130
C156  C     C_1   0.891321 0.316369 0.798821 0.224898
C157  C     C_R   0.727297 0.190506 0.774441 0.004521
C158  C     C_1   0.110126 0.682203 0.200517 0.215151
C159  C     C_1   0.450314 0.909525 0.870478 0.246315
C160  C     C_1   0.447597 0.088524 0.129654 0.241167
C161  C     C_1   0.090475 0.549685 0.870479 0.246315
C162  C     C_1   0.911476 0.552403 0.129654 0.241168
C163  C     C_1   0.549686 0.090475 0.870479 0.246315
C164  C     C_1   0.552402 0.911476 0.129654 0.241167
C165  C     C_1   0.909525 0.450314 0.870478 0.246315
C166  C     C_1   0.088524 0.447597 0.129654 0.241167
C167  C     C_1   0.944575 0.413042 0.370136 0.244614
C168  C     C_R   0.691008 0.226804 0.274687 0.004162
C169  C     C_1   0.056814 0.586022 0.629937 0.243918
C170  C     C_1   0.586959 0.055425 0.370137 0.244614
C171  C     C_1   0.413979 0.943185 0.629937 0.243917
C172  C     C_1   0.055424 0.586959 0.370137 0.244614
C173  C     C_1   0.943185 0.413978 0.629937 0.243918
C174  C     C_1   0.413041 0.944576 0.370137 0.244615
C175  C     C_1   0.586021 0.056816 0.629937 0.243918
C176  C     C_R   0.309711 0.772479 0.725688 0.004410
C177  C     C_R   0.755557 0.673618 0.253588 0.003013
C178  C     C_R   0.244462 0.326399 0.746420 0.001959
C179  C     C_R   0.308991 0.773197 0.274687 0.004162
C180  C     C_R   1.000000 0.500000 0.934386 0.009483
C181  C     C_R   0.690288 0.227521 0.725689 0.004410
C182  C     C_R   0.244443 0.326382 0.253588 0.003013
C183  C     C_R   0.755538 0.673601 0.746420 0.001959
C184  C     C_R   0.326399 0.244462 0.746420 0.001959
C185  C     C_R   0.673618 0.755557 0.253588 0.003013
C186  C     C_R   0.227521 0.690289 0.725688 0.004410
C187  C     C_R   0.773196 0.308992 0.274687 0.004162
C188  C     C_R   0.673601 0.755538 0.746420 0.001959
C189  C     C_R   0.326382 0.244443 0.253588 0.003013
C190  C     C_R   0.772479 0.309711 0.725688 0.004410
C191  C     C_R   1.000000 0.500000 0.065682 0.009512
C192  C     C_R   0.226803 0.691009 0.274688 0.004161
C193  C     C_R   0.229488 0.729341 0.750048 0.045571
C194  C     C_R   0.770570 0.270598 0.250015 0.045400
C195  C     C_R   0.270527 0.229471 0.750004 0.045290
C196  C     C_R   0.729473 0.770530 0.249894 0.046025
C197  C     C_R   0.770512 0.270659 0.750048 0.045570
C198  C     C_R   0.229430 0.729402 0.250015 0.045400
C199  C     C_R   0.729473 0.770529 0.750004 0.045289
C200  C     C_R   0.270527 0.229470 0.249894 0.046025
C201  C     C_R   0.770530 0.729473 0.249894 0.046025
C202  C     C_R   1.000000 0.500000 0.434224 0.007575
C203  C     C_R   0.229471 0.270527 0.750004 0.045289
C204  C     C_R   0.729402 0.229430 0.250015 0.045399
C205  C     C_R   0.270659 0.770512 0.750048 0.045570
C206  C     C_R   0.229470 0.270527 0.249894 0.046025
C207  C     C_R   0.770529 0.729473 0.750004 0.045289
C208  C     C_R   0.270598 0.770570 0.250015 0.045400
C209  C     C_R   0.729341 0.229488 0.750048 0.045571
C210  C     C_R   0.193320 0.766375 0.798382 -0.113140
C211  C     C_R   0.805414 0.234888 0.201052 -0.114764
C212  C     C_R   0.199846 0.159696 0.757084 -0.117597
C213  C     C_R   0.000000 0.500000 0.565817 0.007564
C214  C     C_R   0.800116 0.840269 0.242586 -0.116442
C215  C     C_R   0.806681 0.233625 0.798382 -0.113140
C216  C     C_R   0.194588 0.765109 0.201051 -0.114764
C217  C     C_R   0.800154 0.840304 0.757083 -0.117597
C218  C     C_R   0.199883 0.159731 0.242586 -0.116442
C219  C     C_R   0.840269 0.800116 0.242586 -0.116442
C220  C     C_R   0.159696 0.199846 0.757084 -0.117598
C221  C     C_R   0.765112 0.194586 0.201052 -0.114764
C222  C     C_R   0.233625 0.806681 0.798382 -0.113140
C223  C     C_R   0.159731 0.199883 0.242586 -0.116442
C224  C     C_R   0.500000 0.000000 0.434224 0.007575
C225  C     C_R   0.840304 0.800154 0.757084 -0.117597
C226  C     C_R   0.234891 0.805411 0.201051 -0.114764
C227  C     C_R   0.766375 0.193320 0.798382 -0.113140
C228  C     C_R   0.694447 0.265252 0.298927 -0.113278
C229  C     C_R   0.306944 0.733357 0.701769 -0.113076
C230  C     C_R   0.699879 0.659729 0.257168 -0.116330
C231  C     C_R   0.300153 0.340303 0.742927 -0.117451
C232  C     C_R   0.305551 0.734751 0.298928 -0.113278
C233  C     C_R   0.693055 0.266643 0.701770 -0.113076
C234  C     C_R   0.300120 0.340270 0.257169 -0.116330
C235  C     C_R   0.500000 0.000000 0.565817 0.007564
C236  C     C_R   0.699847 0.659697 0.742927 -0.117450
C237  C     C_R   0.340303 0.300153 0.742927 -0.117451
C238  C     C_R   0.659729 0.699879 0.257168 -0.116330
C239  C     C_R   0.266643 0.693055 0.701769 -0.113076
C240  C     C_R   0.734748 0.305553 0.298927 -0.113278
C241  C     C_R   0.659697 0.699847 0.742927 -0.117450
C242  C     C_R   0.340270 0.300120 0.257169 -0.116330
C243  C     C_R   0.733356 0.306945 0.701770 -0.113076
C244  C     C_R   0.265250 0.694450 0.298928 -0.113279
C245  C     C_R   0.477774 0.955609 0.918018 -0.119931
C246  C     C_R   0.190506 0.727297 0.774441 0.004521
C247  C     C_R   0.476471 0.043581 0.082052 -0.118490
C248  C     C_R   0.044391 0.522226 0.918018 -0.119931
C249  C     C_R   0.956419 0.523529 0.082052 -0.118491
C250  C     C_R   0.522226 0.044391 0.918018 -0.119931
C251  C     C_R   0.523529 0.956419 0.082052 -0.118491
C252  C     C_R   0.955609 0.477774 0.918018 -0.119931
C253  C     C_R   0.043581 0.476471 0.082052 -0.118490
C254  C     C_R   0.973913 0.457733 0.417766 -0.121065
C255  C     C_R   0.026733 0.541869 0.582275 -0.120951
C256  C     C_R   0.542267 0.026086 0.417766 -0.121065
H1    H     H_    0.459864 0.921394 0.930595 0.147269
H2    H     H_    0.047804 0.574428 0.569876 0.150483
H3    H     H_    0.575156 0.046632 0.430168 0.150439
H4    H     H_    0.425572 0.952195 0.569876 0.150483
H5    H     H_    0.046631 0.575156 0.430168 0.150439
H6    H     H_    0.952195 0.425572 0.569876 0.150483
H7    H     H_    0.424844 0.953368 0.430168 0.150439
H8    H     H_    0.574427 0.047806 0.569876 0.150483
H9    H     H_    0.164358 0.766211 0.817432 0.142014
H10   H     H_    0.833860 0.235566 0.181759 0.141811
H11   H     H_    0.186605 0.117520 0.759820 0.140064
H12   H     H_    0.457544 0.077133 0.069482 0.147570
H13   H     H_    0.813340 0.882431 0.239759 0.140161
H14   H     H_    0.835643 0.233789 0.817432 0.142014
H15   H     H_    0.166143 0.764430 0.181757 0.141811
H16   H     H_    0.813395 0.882480 0.759820 0.140064
H17   H     H_    0.186660 0.117569 0.239759 0.140161
H18   H     H_    0.882431 0.813340 0.239759 0.140161
H19   H     H_    0.117520 0.186605 0.759820 0.140065
H20   H     H_    0.764434 0.166140 0.181759 0.141811
H21   H     H_    0.233790 0.835643 0.817432 0.142014
H22   H     H_    0.117569 0.186660 0.239759 0.140161
H23   H     H_    0.078606 0.540136 0.930595 0.147269
H24   H     H_    0.882480 0.813395 0.759820 0.140064
H25   H     H_    0.235569 0.833856 0.181757 0.141811
H26   H     H_    0.766211 0.164357 0.817432 0.142014
H27   H     H_    0.665994 0.264583 0.318217 0.142179
H28   H     H_    0.335927 0.733496 0.682730 0.142160
H29   H     H_    0.686651 0.617566 0.259982 0.140192
H30   H     H_    0.313395 0.382478 0.740191 0.140184
H31   H     H_    0.334003 0.735421 0.318219 0.142179
H32   H     H_    0.664072 0.266504 0.682730 0.142160
H33   H     H_    0.313349 0.382434 0.259983 0.140192
H34   H     H_    0.922866 0.542456 0.069482 0.147570
H35   H     H_    0.686605 0.617522 0.740191 0.140184
H36   H     H_    0.382478 0.313395 0.740191 0.140184
H37   H     H_    0.617566 0.686651 0.259982 0.140192
H38   H     H_    0.266504 0.664072 0.682730 0.142160
H39   H     H_    0.735417 0.334007 0.318217 0.142179
H40   H     H_    0.617522 0.686605 0.740191 0.140184
H41   H     H_    0.382434 0.313349 0.259983 0.140192
H42   H     H_    0.733496 0.335927 0.682730 0.142160
H43   H     H_    0.264579 0.665998 0.318219 0.142179
H44   H     H_    0.540136 0.078606 0.930595 0.147269
H45   H     H_    0.542456 0.922866 0.069482 0.147570
H46   H     H_    0.921394 0.459864 0.930595 0.147269
H47   H     H_    0.077133 0.457543 0.069482 0.147570
H48   H     H_    0.953368 0.424844 0.430168 0.150439
N1    N     N_R   0.499413 0.047963 0.984592 -0.214594
N2    N     N_R   0.974606 0.459284 0.515455 -0.218224
N3    N     N_R   0.459283 0.974608 0.484586 -0.218233
N4    N     N_R   0.540715 0.025395 0.515455 -0.218224
N5    N     N_R   0.974608 0.459283 0.484586 -0.218233
N6    N     N_R   0.025394 0.540715 0.515455 -0.218224
N7    N     N_R   0.540717 0.025392 0.484586 -0.218233
N8    N     N_R   0.459285 0.974606 0.515455 -0.218224
N9    N     N_1   0.182944 0.574618 0.682444 -0.261651
N10   N     N_1   0.818688 0.423723 0.318419 -0.262416
N11   N     N_1   0.470073 0.229400 0.737615 -0.264563
N12   N     N_R   0.500846 0.952041 0.015477 -0.214335
N13   N     N_1   0.529989 0.770676 0.262620 -0.265863
N14   N     N_1   0.817055 0.425382 0.682444 -0.261650
N15   N     N_1   0.181310 0.576281 0.318420 -0.262416
N16   N     N_1   0.529927 0.770600 0.737615 -0.264563
N17   N     N_1   0.470011 0.229324 0.262620 -0.265863
N18   N     N_1   0.770676 0.529989 0.262620 -0.265862
N19   N     N_1   0.229400 0.470073 0.737615 -0.264563
N20   N     N_1   0.576278 0.181312 0.318419 -0.262415
N21   N     N_1   0.425382 0.817055 0.682444 -0.261649
N22   N     N_1   0.229324 0.470011 0.262620 -0.265863
N23   N     N_R   0.952036 0.500587 0.984592 -0.214594
N24   N     N_1   0.770600 0.529927 0.737615 -0.264563
N25   N     N_1   0.423720 0.818690 0.318420 -0.262416
N26   N     N_1   0.574617 0.182945 0.682444 -0.261650
N27   N     N_1   0.679373 0.078063 0.180758 -0.271035
N28   N     N_1   0.318575 0.923998 0.818280 -0.264553
N29   N     N_1   0.970027 0.729288 0.237207 -0.263630
N30   N     N_1   0.029929 0.270614 0.762423 -0.265485
N31   N     N_1   0.320630 0.921933 0.180756 -0.271036
N32   N     N_1   0.681425 0.076002 0.818280 -0.264553
N33   N     N_1   0.029973 0.270712 0.237206 -0.263629
N34   N     N_R   0.047959 0.499154 0.015477 -0.214335
N35   N     N_1   0.970071 0.729386 0.762423 -0.265485
N36   N     N_1   0.270614 0.029929 0.762423 -0.265485
N37   N     N_1   0.729288 0.970027 0.237207 -0.263629
N38   N     N_1   0.076003 0.681425 0.818281 -0.264552
N39   N     N_1   0.921936 0.320627 0.180758 -0.271035
N40   N     N_1   0.729386 0.970071 0.762423 -0.265485
N41   N     N_1   0.270712 0.029973 0.237206 -0.263630
N42   N     N_1   0.923999 0.318575 0.818280 -0.264553
N43   N     N_1   0.078066 0.679369 0.180757 -0.271036
N44   N     N_1   0.428969 0.872730 0.858449 -0.241997
N45   N     N_R   0.500587 0.952036 0.984592 -0.214594
N46   N     N_1   0.425096 0.124412 0.141753 -0.249480
N47   N     N_1   0.127270 0.571031 0.858449 -0.241996
N48   N     N_1   0.875588 0.574904 0.141753 -0.249480
N49   N     N_1   0.571031 0.127270 0.858449 -0.241997
N50   N     N_1   0.574904 0.875588 0.141753 -0.249480
N51   N     N_1   0.872730 0.428969 0.858449 -0.241997
N52   N     N_1   0.124412 0.425096 0.141753 -0.249480
N53   N     N_1   0.921364 0.377468 0.358040 -0.242217
N54   N     N_1   0.080616 0.621169 0.642066 -0.242846
N55   N     N_1   0.622532 0.078636 0.358040 -0.242216
N56   N     N_R   0.499154 0.047959 0.015477 -0.214335
N57   N     N_1   0.378832 0.919382 0.642065 -0.242846
N58   N     N_1   0.078634 0.622533 0.358040 -0.242215
N59   N     N_1   0.919383 0.378831 0.642065 -0.242846
N60   N     N_1   0.377467 0.921365 0.358040 -0.242216
N61   N     N_1   0.621168 0.080618 0.642066 -0.242846
N62   N     N_R   0.047963 0.499413 0.984592 -0.214594
N63   N     N_R   0.952041 0.500846 0.015477 -0.214335
N64   N     N_R   0.025392 0.540717 0.484586 -0.218233
O1    O     O_3   0.500000 0.000000 0.750000 -0.471206
O2    O     O_R   0.454060 0.000000 0.319230 -0.528356
O3    O     O_R   0.000000 0.545940 0.680770 -0.528221
O4    O     O_R   1.000000 0.454060 0.319230 -0.528356
O5    O     O_R   0.954060 0.500000 0.180770 -0.525957
O6    O     O_R   0.045940 0.500000 0.819230 -0.527645
O7    O     O_R   0.500000 0.954060 0.180770 -0.525956
O8    O     O_R   0.500000 0.045940 0.819230 -0.527645
O9    O     O_R   0.045940 0.500000 0.180770 -0.525956
O10   O     O_R   0.954060 0.500000 0.819230 -0.527645
O11   O     O_R   0.500000 0.045940 0.180770 -0.525956
O12   O     O_3   0.500000 0.000000 0.250000 -0.471984
O13   O     O_R   0.500000 0.954060 0.819230 -0.527645
O14   O     O_R   0.610280 0.935490 0.731900 -0.528209
O15   O     O_R   0.389720 0.064510 0.268100 -0.530185
O16   O     O_R   0.064510 0.610280 0.731900 -0.519196
O17   O     O_R   0.935490 0.389720 0.268100 -0.518011
O18   O     O_R   0.389720 0.064510 0.731900 -0.528209
O19   O     O_R   0.610280 0.935490 0.268100 -0.530185
O20   O     O_R   0.935490 0.389720 0.731900 -0.519196
O21   O     O_R   0.064510 0.610280 0.268100 -0.518011
O22   O     O_R   0.389720 0.935490 0.268100 -0.518011
O23   O     O_3   0.000000 0.500000 0.750000 -0.471206
O24   O     O_R   0.610280 0.064510 0.731900 -0.519196
O25   O     O_R   0.935490 0.610280 0.268100 -0.530185
O26   O     O_R   0.064510 0.389720 0.731900 -0.528209
O27   O     O_R   0.610280 0.064510 0.268100 -0.518011
O28   O     O_R   0.389720 0.935490 0.731900 -0.519196
O29   O     O_R   0.064510 0.389720 0.268100 -0.530185
O30   O     O_R   0.935490 0.610280 0.731900 -0.528209
O31   O     O_R   0.110280 0.435490 0.231900 -0.520019
O32   O     O_R   0.889720 0.564510 0.768100 -0.527695
O33   O     O_R   0.564510 0.110280 0.231900 -0.525184
O34   O     O_3   1.000000 0.500000 0.250000 -0.471984
O35   O     O_R   0.435490 0.889720 0.768100 -0.518973
O36   O     O_R   0.889720 0.564510 0.231900 -0.520019
O37   O     O_R   0.110280 0.435490 0.768100 -0.527695
O38   O     O_R   0.435490 0.889720 0.231900 -0.525184
O39   O     O_R   0.564510 0.110280 0.768100 -0.518973
O40   O     O_R   0.889720 0.435490 0.768100 -0.518973
O41   O     O_R   0.110280 0.564510 0.231900 -0.525184
O42   O     O_R   0.435490 0.110280 0.768100 -0.527695
O43   O     O_R   0.564510 0.889720 0.231900 -0.520019
O44   O     O_R   0.110280 0.564510 0.768100 -0.518973
O45   O     O_R   0.454060 0.000000 0.680770 -0.528222
O46   O     O_R   0.889720 0.435490 0.231900 -0.525185
O47   O     O_R   0.564510 0.889720 0.768100 -0.527695
O48   O     O_R   0.435490 0.110280 0.231900 -0.520019
O49   O     O_R   0.545940 0.000000 0.319230 -0.528357
O50   O     O_R   1.000000 0.454060 0.680770 -0.528222
O51   O     O_R   1.000000 0.545940 0.319230 -0.528357
O52   O     O_R   0.545940 0.000000 0.680770 -0.528221
Zn1   Zn    Zn3+2 0.500000 0.934510 0.776050 0.997637
Zn2   Zn    Zn3+2 1.000000 0.565490 0.723950 0.996590
Zn3   Zn    Zn3+2 0.565490 0.000000 0.276050 0.996501
Zn4   Zn    Zn3+2 0.434510 0.000000 0.723950 0.996590
Zn5   Zn    Zn3+2 1.000000 0.565490 0.276050 0.996501
Zn6   Zn    Zn3+2 0.000000 0.434510 0.723950 0.996590
Zn7   Zn    Zn3+2 0.434510 0.000000 0.276050 0.996501
Zn8   Zn    Zn3+2 0.565490 0.000000 0.723950 0.996590
Zn9   Zn    Zn3+2 0.500000 0.065490 0.223950 1.000449
Zn10  Zn    Zn3+2 0.065490 0.500000 0.776050 0.997637
Zn11  Zn    Zn3+2 0.934510 0.500000 0.223950 1.000450
Zn12  Zn    Zn3+2 0.500000 0.065490 0.776050 0.997637
Zn13  Zn    Zn3+2 0.500000 0.934510 0.223950 1.000450
Zn14  Zn    Zn3+2 0.934510 0.500000 0.776050 0.997637
Zn15  Zn    Zn3+2 0.065490 0.500000 0.223950 1.000450
Zn16  Zn    Zn3+2 0.000000 0.434510 0.276050 0.996501

loop_
_geom_bond_atom_site_label_1
_geom_bond_atom_site_label_2
_ccdc_geom_bond_type
C43   O22   A    
C31   O6    A    
C28   O3    A    
C112  C247  A    
C186  C193  A    
C78   C115  A    
C34   O14   A    
C48   O33   A    
C65   N12   A    
C81   C134  S    
C223  H22   S    
C98   C152  S    
C62   N5    A    
C132  N18   T    
O44   Zn10  S    
C11   C249  A    
C66   N45   A    
N34   N62   A    
C67   N63   A    
C40   O19   A    
C144  N30   T    
C147  N32   T    
C46   C198  A    
C195  C203  A    
C32   O7    A    
C256  H3    S    
C81   C117  A    
C159  N44   T    
C151  N37   T    
C83   C119  A    
O21   Zn5   S    
C248  H23   S    
C3    C235  A    
C74   C190  A    
C233  C243  A    
C80   C116  A    
C79   C201  A    
N23   N63   A    
C85   C121  A    
C25   C60   A    
C192  C198  A    
O25   Zn5   S    
C76   C188  A    
N4    N7    A    
C183  C236  A    
C190  C243  A    
C13   C212  A    
C188  C241  A    
O1    Zn4   S    
C47   O26   A    
C162  N48   T    
C6    C224  A    
C47   C116  S    
C15   C54   A    
C72   C184  A    
C73   C108  A    
O12   Zn9   S    
C212  C220  A    
C89   C143  S    
C92   C146  A    
C11   C162  S    
C216  C226  A    
C80   C133  S    
C141  N27   T    
C174  N60   T    
C102  C114  A    
C16   C253  A    
C79   C219  A    
C5    C213  A    
C28   O50   A    
C51   O32   A    
C87   C141  S    
C42   O21   A    
C180  C248  A    
O33   Zn9   S    
C8    C245  A    
O22   Zn7   S    
C17   C167  S    
C18   C255  A    
C213  C255  A    
C252  H46   S    
C82   C118  A    
C232  H31   S    
C21   C172  S    
C227  H26   S    
C32   C53   S    
C254  H48   S    
C137  N22   T    
C224  C256  A    
C26   O45   A    
C69   N23   A    
C63   N4    A    
C71   C187  A    
C70   C105  A    
C142  N28   T    
C22   C58   A    
C40   O43   A    
C98   C246  A    
C28   C58   S    
C184  C195  A    
C229  H28   S    
C37   O16   A    
C1    C245  A    
C12   C163  S    
C104  C110  A    
C202  C254  A    
C243  H42   S    
C225  H24   S    
O40   Zn14  S    
O51   Zn5   S    
C44   O39   A    
C182  C234  A    
C186  C239  A    
C103  C156  S    
C42   O41   A    
C38   O46   A    
C100  C111  A    
C71   C106  A    
C8    C159  S    
O43   Zn13  S    
C190  C197  A    
O28   Zn4   S    
C89   C115  A    
C157  C209  A    
C210  C222  A    
O26   Zn6   S    
C78   C177  A    
C183  C207  A    
O13   Zn1   S    
C30   O9    A    
C36   C114  S    
C241  H40   S    
C45   O25   A    
C187  C240  A    
C218  C223  A    
C23   C174  S    
C33   C52   S    
C23   C59   A    
C2    C211  A    
O37   Zn10  S    
C69   C180  S    
C36   O15   A    
C211  C221  A    
C50   O31   A    
N3    N8    A    
C77   C131  S    
C51   O30   A    
C88   C113  A    
C78   C132  S    
C164  N50   T    
C87   C101  A    
C24   C214  A    
C173  N59   T    
C31   O10   A    
C138  N24   T    
C41   O20   A    
C193  C246  A    
C124  C223  A    
C231  H30   S    
C140  N26   T    
C229  C239  A    
C8    C52   A    
C90   C220  A    
C170  N55   T    
C41   C109  S    
C178  C203  A    
C57   C199  A    
C220  H19   S    
O16   Zn2   S    
C61   C213  S    
C199  C207  A    
C18   C58   A    
C51   C120  S    
C94   C148  S    
C17   C254  A    
O36   Zn11  S    
C193  C205  A    
C36   O48   A    
C13   C96   A    
N6    N64   A    
C27   O2    A    
C62   N64   A    
C169  N54   T    
C67   N34   A    
C177  C230  A    
C9    C160  S    
C19   C59   A    
C240  H39   S    
C168  C204  A    
C182  C206  A    
C113  C205  A    
C236  C241  A    
C65   C112  S    
C37   C105  S    
C83   C182  A    
C45   O36   A    
C25   C175  S    
C194  C204  A    
O34   Zn16  S    
C41   O40   A    
C222  H21   S    
C17   C56   A    
C234  C242  A    
C228  H27   S    
C39   O18   A    
O32   Zn14  S    
C2    C99   A    
C218  H17   S    
C128  N14   T    
O4    Zn16  S    
C177  C201  A    
C210  C246  A    
C88   C118  A    
C161  N47   T    
C22   C173  S    
C44   O24   A    
C35   C197  A    
C112  C251  A    
C135  C207  A    
C139  N25   T    
C100  C154  S    
C99   C106  A    
C75   C110  A    
O39   Zn12  S    
C135  C225  A    
C175  N61   T    
C47   O37   A    
C104  C158  S    
C125  N10   T    
C168  C228  A    
C73   C185  A    
C48   C117  S    
C50   O29   A    
O42   Zn12  S    
C77   C189  A    
C42   C110  S    
C180  C252  A    
C61   N6    A    
C76   C111  A    
C176  C229  A    
C230  H29   S    
C44   C122  S    
C251  H45   S    
O23   Zn2   S    
C215  C227  A    
C31   C54   S    
C14   C164  S    
C236  H35   S    
C79   C89   A    
O52   Zn8   S    
C70   C186  A    
C14   C53   A    
C15   C165  S    
C63   N8    A    
C196  C201  A    
C64   N7    A    
C35   C215  A    
C217  C225  A    
C242  H41   S    
C172  N58   T    
O48   Zn9   S    
C19   C170  S    
N1    N56   A    
C33   O13   A    
C136  N21   T    
C239  H38   S    
C49   O35   A    
C143  N29   T    
C29   O4    A    
C68   C102  A    
C87   C117  A    
C35   C103  A    
C15   C252  A    
C24   C196  A    
C185  C238  A    
C12   C250  A    
C64   C224  S    
O23   Zn6   S    
C62   C202  S    
C156  N42   T    
C48   O27   A    
C152  N38   T    
C123  N9    T    
C30   O5    A    
O31   Zn15  S    
C20   C60   A    
C245  H1    S    
C43   C121  S    
C216  H15   S    
C40   C108  S    
N12   N45   A    
C255  H2    S    
O20   Zn6   S    
O45   Zn4   S    
C126  N11   T    
C12   C52   A    
O1    Zn8   S    
O2    Zn7   S    
O17   Zn16  S    
C7    C235  A    
N2    N5    A    
C24   C97   A    
C153  N39   T    
C93   C122  A    
C146  C208  A    
C49   O28   A    
C146  C226  A    
C65   N56   A    
C73   C127  S    
C46   C104  A    
C101  C204  A    
O47   Zn1   S    
C72   C126  S    
C2    C194  A    
C80   C178  A    
C176  C205  A    
O30   Zn2   S    
C29   O51   A    
C4    C202  A    
C84   C120  A    
C97   C151  S    
C3    C20   A    
C148  N33   T    
O27   Zn3   S    
C43   O38   A    
O12   Zn13  S    
O49   Zn3   S    
O38   Zn13  S    
C96   C107  A    
C130  N16   T    
C210  H9    S    
C46   C216  A    
C187  C194  A    
C5    H6    S    
C9    C53   A    
C185  C196  A    
C77   C114  A    
C184  C237  A    
C83   C137  S    
C11   C55   A    
C90   C203  A    
C18   C169  S    
C101  C221  A    
C179  C208  A    
C232  C244  A    
C21   C56   A    
C228  C240  A    
C14   C251  A    
C29   C56   S    
C95   C120  A    
C217  H16   S    
C30   C55   S    
C7    C25   A    
C68   C200  A    
C103  C109  A    
C34   O47   A    
C226  H25   S    
C178  C231  A    
C90   C91   A    
C127  N13   T    
C57   C217  A    
C249  H34   S    
C99   C153  S    
C238  H37   S    
C81   C168  A    
C211  H10   S    
C215  H14   S    
C86   C122  A    
C9    C247  A    
C113  C222  A    
O14   Zn8   S    
C157  C227  A    
C39   O42   A    
C63   C235  S    
C233  H32   S    
C38   O17   A    
C181  C233  A    
C19   C256  A    
C165  N51   T    
C20   C171  S    
C155  N41   T    
C13   C195  A    
O34   Zn5   S    
C189  C242  A    
C71   C125  S    
O7    Zn13  S    
C179  C232  A    
C158  N43   T    
O41   Zn15  S    
C192  C244  A    
O29   Zn16  S    
C69   N62   A    
C32   O11   A    
C74   C109  A    
C61   N2    A    
O9    Zn15  S    
C91   C116  A    
C39   C107  S    
C191  C253  A    
C98   C105  A    
C154  N40   T    
C214  C219  A    
O1    Zn1   S    
C66   N1    A    
C67   C191  S    
C234  H33   S    
O15   Zn7   S    
C3    H4    S    
C134  N20   T    
C221  H20   S    
C181  C209  A    
C64   N3    A    
O35   Zn1   S    
C191  C249  A    
C163  N49   T    
C97   C108  A    
C70   C123  S    
C74   C128  S    
C5    C22   A    
O24   Zn8   S    
C212  H11   S    
C16   C166  S    
C4    H5    S    
O8    Zn12  S    
C160  N46   T    
C6    H7    S    
C95   C149  S    
C85   C139  S    
C86   C140  S    
C133  N19   T    
O5    Zn11  S    
C96   C150  S    
C27   O49   A    
C34   C111  S    
C76   C130  S    
C88   C142  S    
O11   Zn9   S    
C198  C208  A    
C50   C119  S    
O23   Zn10  S    
C145  N31   T    
C33   O8    A    
C171  N57   T    
C26   O52   A    
C1    C250  A    
C188  C199  A    
C57   C100  A    
C219  H18   S    
C149  N35   T    
C214  H13   S    
C38   C106  S    
C68   C218  A    
C86   C181  A    
O12   Zn3   S    
C94   C119  A    
C45   C115  S    
C49   C118  S    
O50   Zn6   S    
C72   C107  A    
C85   C179  A    
O34   Zn11  S    
C95   C135  A    
C1    C66   S    
C7    H8    S    
O3    Zn2   S    
C93   C157  A    
C131  N17   T    
O1    Zn12  S    
C247  H12   S    
C129  N15   T    
C189  C200  A    
C82   C176  A    
C167  N53   T    
C250  H44   S    
C230  C238  A    
C10   C248  A    
C166  N52   T    
C91   C144  S    
O10   Zn14  S    
C200  C206  A    
C124  C206  A    
C92   C145  S    
C84   C183  A    
O23   Zn14  S    
C237  H36   S    
C150  N36   T    
C10   C161  S    
C84   C138  S    
C231  C237  A    
C75   C192  A    
C16   C55   A    
C27   C59   S    
C92   C121  A    
C4    C21   A    
C37   O44   A    
O12   Zn7   S    
C26   C60   S    
C6    C23   A    
O34   Zn15  S    
C93   C147  S    
C82   C136  S    
C10   C54   A    
C197  C209  A    
O19   Zn3   S    
O18   Zn4   S    
O46   Zn11  S    
O6    Zn10  S    
C102  C155  S    
C75   C129  S    
C244  H43   S    
C94   C124  A    
C253  H47   S    
