data_mof_unit_47982.cif
_audit_creation_date              2012-12-10T20:03:14-0500
_audit_creation_method            fapswitch 2.2
_symmetry_space_group_name_H-M    P1
_symmetry_Int_Tables_number       1
_space_group_crystal_system       triclinic
_cell_length_a                    8.713512
_cell_length_b                    19.366689
_cell_length_c                    18.460485
_cell_angle_alpha                 90.512801
_cell_angle_beta                  98.474247
_cell_angle_gamma                 90.832857
_cell_volume                      3080.71060817

loop_
_atom_site_label
_atom_site_type_symbol
_atom_type_description
_atom_site_fract_x
_atom_site_fract_y
_atom_site_fract_z
_atom_type_partial_charge
C1    C     C_R   0.501442 0.365697 0.499982 1.021731
C2    C     C_R   0.379157 0.470417 0.265155 0.093681
C3    C     C_R   0.621436 0.531706 0.810724 -0.261970
C4    C     C_R   0.377120 0.469826 0.189045 -0.262155
C5    C     C_R   0.500311 0.499716 0.841409 0.102517
C6    C     C_R   0.499951 0.500575 0.158609 0.095822
C7    C     C_R   0.379675 0.467324 0.793296 -0.245321
C8    C     C_R   0.621943 0.531792 0.206869 -0.245127
C9    C     C_R   0.382148 0.467838 0.717487 0.113255
C10   C     C_R   0.619350 0.531132 0.282673 0.093405
C11   C     C_R   0.443975 0.442526 0.957757 -0.164571
C12   C     C_R   0.498608 0.634127 0.500063 1.030822
C13   C     C_R   0.556644 0.557737 0.042381 -0.171292
C14   C     C_R   0.443880 0.442768 0.033790 -0.158754
C15   C     C_R   0.556525 0.557544 0.966328 -0.164320
C16   C     C_R   0.201504 0.500119 0.481250 1.045147
C17   C     C_R   0.798489 0.500499 0.518688 1.034652
C18   C     C_R   0.500236 0.500367 0.077332 0.122335
C19   C     C_R   0.500231 0.499925 0.922751 0.121020
C20   C     C_2   0.038560 0.493305 0.471500 0.184351
C21   C     C_2   0.961347 0.508122 0.528170 0.102267
C22   C     C_R   0.361705 0.743218 0.465973 0.323854
C23   C     C_R   0.530208 0.964672 0.562708 -0.159287
C24   C     C_R   0.624564 0.254448 0.541275 0.435842
C25   C     C_R   0.361479 0.815052 0.464896 -0.213380
C26   C     C_R   0.624845 0.182661 0.537649 -0.217850
C27   C     C_R   0.491077 0.852747 0.497829 -0.041644
C28   C     C_R   0.504059 0.146276 0.495121 -0.040355
C29   C     C_R   0.623008 0.819301 0.531220 -0.219627
C30   C     C_R   0.381125 0.181418 0.455718 -0.209335
C31   C     C_R   0.627529 0.747682 0.531723 0.398481
C32   C     C_R   0.377301 0.253065 0.458298 0.308297
C33   C     C_R   0.495517 0.709155 0.499823 -0.295123
C34   C     C_R   0.460267 0.033816 0.429775 -0.159743
C35   C     C_R   0.501639 0.290352 0.499702 -0.312043
C36   C     C_R   0.534920 0.036156 0.561988 -0.166942
C37   C     C_R   0.454322 0.962225 0.430619 -0.167160
C38   C     C_R   0.500951 0.071011 0.495473 0.155917
C39   C     C_R   0.490218 0.927662 0.497052 0.154849
C40   C     C_R   0.619112 0.531097 0.734593 0.091302
Cl1   Cl    Cl    0.956779 0.455476 0.385622 -0.475225
Cl2   Cl    Cl    0.043457 0.545257 0.614290 -0.559429
H1    H     H_    0.282928 0.442500 0.813845 0.151296
H2    H     H_    0.719161 0.154579 0.568254 0.193846
H3    H     H_    0.723560 0.849497 0.555353 0.192672
H4    H     H_    0.284758 0.152486 0.425518 0.191464
H5    H     H_    0.556798 0.938154 0.614372 0.155874
H6    H     H_    0.434770 0.060131 0.377959 0.153925
H7    H     H_    0.563323 0.064211 0.613356 0.154401
H8    H     H_    0.424814 0.933769 0.379546 0.149811
H9    H     H_    0.713461 0.555028 0.711611 0.180822
H10   H     H_    0.283037 0.447805 0.287853 0.196818
H11   H     H_    0.718709 0.556100 0.845246 0.147729
H12   H     H_    0.719725 0.555811 0.186400 0.155086
H13   H     H_    0.278745 0.446492 0.154307 0.155042
H14   H     H_    0.268744 0.682438 0.323367 0.342899
H15   H     H_    0.949111 0.374812 0.585809 0.373447
H16   H     H_    0.883616 0.665008 0.674668 0.400939
H17   H     H_    0.156520 0.315870 0.527759 0.355019
H18   H     H_    0.289464 0.442490 0.680977 0.151846
H19   H     H_    0.713025 0.555662 0.319285 0.176252
H20   H     H_    0.402252 0.396691 0.926557 0.146932
H21   H     H_    0.598542 0.603507 0.073665 0.141338
H22   H     H_    0.401926 0.397163 0.058665 0.148814
H23   H     H_    0.598274 0.603215 0.941507 0.143761
H24   H     H_    0.259641 0.842022 0.439669 0.193578
N1    N     N_R   0.500020 0.499980 0.689440 -0.104331
N2    N     N_R   0.499980 0.500020 0.310560 -0.113850
O1    O     O_R   0.500010 0.398180 0.560840 -0.604522
O2    O     O_2   0.060402 0.746218 0.404214 -0.262807
O3    O     O_3   0.223852 0.649688 0.355744 -0.529727
O4    O     O_2   0.716053 0.332910 0.660618 -0.285477
O5    O     O_2   0.897883 0.245598 0.630768 -0.304384
O6    O     O_3   0.863365 0.354625 0.550411 -0.550509
O7    O     O_2   0.842052 0.655604 0.514130 -0.254569
O8    O     O_2   0.932518 0.760539 0.583361 -0.264833
O9    O     O_3   0.777956 0.668797 0.646802 -0.563640
O10   O     O_2   0.236680 0.336741 0.355488 -0.254447
O11   O     O_2   0.079515 0.241205 0.392160 -0.246873
O12   O     O_R   0.499990 0.601820 0.439160 -0.613821
O13   O     O_3   0.144375 0.344056 0.482829 -0.536942
O14   O     O_R   0.499930 0.398180 0.439210 -0.575718
O15   O     O_R   0.500070 0.601820 0.560790 -0.573899
O16   O     O_R   0.271780 0.500000 0.546590 -0.629171
O17   O     O_R   0.728220 0.500000 0.453410 -0.612389
O18   O     O_R   0.271710 0.499990 0.424960 -0.571678
O19   O     O_R   0.728290 0.500010 0.575040 -0.585880
O20   O     O_2   0.144465 0.650830 0.485613 -0.229905
S1    S     S_3+6 0.190777 0.697642 0.428053 0.061039
S2    S     S_3+6 0.778591 0.296658 0.599096 0.034077
S3    S     S_3+6 0.802528 0.708033 0.568426 0.071433
S4    S     S_3+6 0.204872 0.293474 0.418797 0.075978
Zn1   Zn    Zn3+2 0.500050 0.500000 0.581210 1.072806
Zn2   Zn    Zn3+2 0.499950 0.500000 0.418790 1.081534

loop_
_geom_bond_atom_site_label_1
_geom_bond_atom_site_label_2
_ccdc_geom_bond_type
O14   Zn2   S    
C27   C29   A    
C34   C37   A    
C14   C18   A    
C11   H20   S    
C20   Cl1   S    
C26   H2    S    
C15   C19   A    
C11   C19   A    
C13   C18   A    
C17   O17   A    
C24   C26   A    
O5    S2    D    
C2    N2    A    
C11   C14   A    
O15   Zn1   S    
C12   O12   A    
C16   O16   A    
O18   Zn2   S    
H16   O9    S    
O13   S4    S    
C27   C39   S    
C22   C25   A    
C13   H21   S    
C31   C33   A    
C7    H1    S    
O7    S3    D    
C34   C38   A    
C16   O18   A    
C6    C18   S    
C24   C35   A    
C23   H5    S    
C32   C35   A    
C4    C6    A    
C8    H12   S    
C5    C7    A    
C6    C8    A    
O10   S4    D    
C1    O14   A    
C40   N1    A    
C17   C21   S    
C12   O15   A    
C29   H3    S    
H15   O6    S    
C2    C4    A    
C9    N1    A    
O4    S2    D    
O17   Zn2   S    
O3    S1    S    
C28   C38   S    
C16   C20   S    
H14   O3    S    
C14   H22   S    
O20   S1    D    
O11   S4    D    
C2    H10   S    
C8    C10   A    
C3    C40   A    
C31   S3    S    
C13   C15   A    
C4    H13   S    
C10   H19   S    
C34   H6    S    
O12   Zn2   S    
C1    C35   S    
O1    Zn1   S    
C7    C9    A    
C22   C33   A    
O9    S3    S    
C17   O19   A    
C30   H4    S    
C25   H24   S    
H17   O13   S    
C3    C5    A    
C24   S2    S    
C5    C19   S    
C10   N2    A    
C25   C27   A    
C40   H9    S    
N2    Zn2   S    
C26   C28   A    
C9    H18   S    
O6    S2    S    
C36   C38   A    
C29   C31   A    
C30   C32   A    
C37   H8    S    
C3    H11   S    
C32   S4    S    
C23   C39   A    
O19   Zn1   S    
C28   C30   A    
C22   S1    S    
O16   Zn1   S    
C1    O1    A    
O8    S3    D    
C21   Cl2   S    
O2    S1    D    
C20   C21   D    
C37   C39   A    
C23   C36   A    
N1    Zn1   S    
C12   C33   S    
C36   H7    S    
C15   H23   S    
