data_mof_unit_9608.cif
_audit_creation_date              2013-03-05T16:41:46-0500
_audit_creation_method            fapswitch 2.2
_symmetry_space_group_name_H-M    P1
_symmetry_Int_Tables_number       1
_space_group_crystal_system       triclinic
_cell_length_a                    10.751473
_cell_length_b                    10.7209
_cell_length_c                    9.961239
_cell_angle_alpha                 91.219483
_cell_angle_beta                  87.363117
_cell_angle_gamma                 93.30456
_cell_volume                      1144.86414784

loop_
_atom_site_label
_atom_site_type_symbol
_atom_site_description
_atom_site_fract_x
_atom_site_fract_y
_atom_site_fract_z
_atom_type_partial_charge
O1    O     O_R   0.500020 0.316790 0.614690 -0.634085
O2    O     O_R   0.500000 0.316760 0.385350 -0.616716
C1    C     C_R   0.497850 0.260172 0.498693 0.855456
O3    O     O_R   0.316770 0.500020 0.614690 -0.632571
O4    O     O_R   0.316760 0.499980 0.385350 -0.626914
C2    C     C_R   0.259561 0.504940 0.503544 0.859913
Zn1   Zn    Zn3+2 0.500010 0.500020 0.653130 0.922143
Zn2   Zn    Zn3+2 0.499990 0.499980 0.346870 0.999974
O5    O     O_R   0.500000 0.683240 0.614650 -0.649902
O6    O     O_R   0.499980 0.683210 0.385310 -0.555767
O7    O     O_R   0.683240 0.500020 0.614650 -0.637692
O8    O     O_R   0.683230 0.499980 0.385310 -0.571624
C3    C     C_R   0.494579 0.739435 0.501408 0.897660
C4    C     C_R   0.738584 0.490104 0.496725 0.886704
H1    H     H_    0.123659 0.576726 0.305675 0.168689
C5    C     C_R   0.090565 0.460505 0.754030 -0.180153
H2    H     H_    0.170051 0.517938 0.784825 0.158957
C6    C     C_R   0.020541 0.392641 0.852621 -0.194801
H3    H     H_    0.051507 0.390370 0.954334 0.140687
C7    C     C_R   0.909865 0.328035 0.820079 -0.171043
H4    H     H_    0.857007 0.272455 0.894713 0.148249
C8    C     C_R   0.860483 0.347574 0.696002 -0.175824
H5    H     H_    0.768644 0.307123 0.677280 0.150549
C9    C     C_R   0.926331 0.425438 0.601007 0.110761
C10   C     C_R   0.050230 0.463998 0.621704 0.118348
C11   C     C_R   0.124889 0.508902 0.509862 -0.128545
C12   C     C_R   0.069084 0.539666 0.391524 -0.226005
H6    H     H_    0.899611 0.561240 0.296284 0.204656
C13   C     C_R   0.941766 0.526876 0.383886 -0.196999
C14   C     C_R   0.870051 0.473347 0.490122 -0.140576
C15   C     C_R   0.506373 0.067152 0.615418 0.120327
C16   C     C_R   0.484449 0.127493 0.498260 -0.105980
C17   C     C_R   0.438274 0.058622 0.388344 -0.207502
H7    H     H_    0.411967 0.104042 0.298847 0.161694
C18   C     C_R   0.433199 0.928803 0.391863 -0.155122
H8    H     H_    0.403732 0.875466 0.304318 0.198708
C19   C     C_R   0.474373 0.869969 0.505266 -0.108330
C20   C     C_R   0.496354 0.940156 0.621607 0.123745
C21   C     C_3   0.600845 0.939651 0.714883 -0.487038
C22   C     C_3   0.617173 0.079241 0.699863 -0.485899
H9    H     H_    0.563558 0.915709 0.817188 0.215762
H10   H     H_    0.682032 0.888992 0.673862 0.206791
H11   H     H_    0.601109 0.132789 0.795050 0.201914
H12   H     H_    0.703909 0.106944 0.640416 0.200275
C23   C     C_R   0.458066 0.396880 0.071351 0.115102
N1    N     N_R   0.499160 0.499140 0.142800 -0.169459
C24   C     C_R   0.560566 0.593816 0.072110 0.307349
C25   C     C_R   0.569223 0.589043 0.928090 0.019302
N2    N     N_R   0.499160 0.499180 0.857150 -0.143720
C26   C     C_R   0.458060 0.395917 0.929901 0.121226
C27   C     C_3   0.332312 0.327172 0.934570 -0.151534
C28   C     C_3   0.333991 0.330448 0.087526 -0.489422
H13   H     H_    0.261778 0.384128 0.896284 0.171953
H14   H     H_    0.262721 0.390093 0.135733 0.196128
H15   H     H_    0.340179 0.238135 0.134357 0.195724
N3    N     N_R   0.614906 0.699658 0.142636 0.218500
O9    O     O_R   0.711540 0.688438 0.214151 -0.415497
O10   O     O_R   0.574035 0.809977 0.126564 -0.455243
C29   C     C_3   0.667417 0.675711 0.859486 -0.374895
C30   C     C_3   0.799994 0.639264 0.883413 -0.352096
C31   C     C_3   0.896659 0.721560 0.803913 -0.866509
H16   H     H_    0.885092 0.707793 0.694246 0.266272
H17   H     H_    0.886680 0.821581 0.831329 0.263520
H18   H     H_    0.991899 0.696643 0.827443 0.254491
H19   H     H_    0.820313 0.647762 0.991284 0.255203
H20   H     H_    0.808378 0.541136 0.852140 0.258195
H21   H     H_    0.657769 0.677873 0.751552 0.268805
H22   H     H_    0.659219 0.771352 0.899231 0.222769
C32   C     C_3   0.332423 0.194647 0.872715 -0.342184
C33   C     C_3   0.208609 0.119518 0.901141 -0.362799
C34   C     C_3   0.211880 0.988451 0.838469 -0.867482
H23   H     H_    0.227068 0.993766 0.727586 0.262911
H24   H     H_    0.287835 0.937155 0.880227 0.266893
H25   H     H_    0.121634 0.935810 0.861097 0.253505
H26   H     H_    0.189253 0.111299 0.011208 0.229928
H27   H     H_    0.131409 0.167679 0.858142 0.241007
H28   H     H_    0.346152 0.202973 0.762621 0.231286
H29   H     H_    0.409787 0.143600 0.911942 0.207897

loop_
_geom_bond_atom_site_label_1
_geom_bond_atom_site_label_2
_geom_bond_distance
_ccdc_geom_bond_type
C12   C13   1.373273 A    
C32   H28   1.104635 S    
C18   H8    1.082185 S    
C21   H9    1.107615 S    
C23   N1    1.357771 A    
C15   C22   1.487689 S    
Zn1   O7    1.989551 S    
C11   C12   1.400984 A    
C19   C20   1.390219 A    
O4    C2    1.304488 A    
H6    C13   1.082556 S    
C18   C19   1.406561 A    
C32   C33   1.533745 S    
C20   C21   1.490778 S    
O7    C4    1.297266 A    
N3    O9    1.299052 A    
C6    H3    1.082132 S    
C31   H17   1.110883 S    
O5    C3    1.295317 A    
C29   H21   1.085748 S    
C22   H11   1.109793 S    
C24   C25   1.433371 A    
C5    H2    1.076548 S    
C33   C34   1.527015 S    
C3    C19   1.427969 S    
C28   H15   1.109771 S    
C30   H20   1.098327 S    
C29   C30   1.529929 S    
C32   H29   1.111539 S    
C31   H16   1.110917 S    
C4    C14   1.433420 S    
O3    Zn1   2.024185 S    
C28   H14   1.111848 S    
C26   C27   1.501327 S    
C21   H10   1.111858 S    
C9    C14   1.404084 A    
C27   C28   1.524197 S    
C9    C10   1.395001 A    
Zn1   N2    2.032101 S    
O3    C2    1.294514 A    
C21   C22   1.506533 S    
C34   H24   1.111355 S    
C23   C28   1.479296 S    
C10   C11   1.418894 A    
C30   C31   1.527738 S    
O1    C1    1.294261 A    
C31   H18   1.109550 S    
C13   C14   1.394083 A    
C29   H22   1.098084 S    
O4    Zn2   1.989552 S    
H1    C12   1.083906 S    
C15   C16   1.382418 A    
Zn2   O8    2.024184 S    
C17   H7    1.081415 S    
Zn2   O6    1.993353 S    
C25   N2    1.389705 A    
C7    C8    1.391969 A    
C30   H19   1.107140 S    
C33   H27   1.109292 S    
C8    C9    1.413275 A    
C25   C29   1.514099 S    
C5    C10   1.408379 A    
Zn1   O5    2.009330 S    
N1    C24   1.368338 A    
O1    Zn1   1.993352 S    
O2    Zn2   2.009330 S    
O8    C4    1.292351 A    
O6    C3    1.293190 A    
C34   H25   1.110364 S    
C15   C20   1.362037 A    
C16   C17   1.401345 A    
O2    C1    1.291686 A    
C34   H23   1.111270 S    
C2    C11   1.449430 S    
C23   C26   1.408832 A    
C17   C18   1.390828 A    
N3    O10   1.300771 A    
C6    C7    1.389842 A    
C1    C16   1.421366 S    
Zn2   N1    2.033046 S    
C22   H12   1.110516 S    
C7    H4    1.082445 S    
C5    C6    1.399957 A    
N2    C26   1.376353 A    
C33   H26   1.110936 S    
C8    H5    1.077935 S    
C27   C32   1.536604 S    
C27   H13   1.087792 S    
C24   N3    1.431738 S    
