data_mof_unit_36340.cif
_audit_creation_date              2012-12-10T19:47:25-0500
_audit_creation_method            fapswitch 2.2
_symmetry_space_group_name_H-M    P1
_symmetry_Int_Tables_number       1
_space_group_crystal_system       triclinic
_cell_length_a                    15.088519
_cell_length_b                    14.213863
_cell_length_c                    10.6403
_cell_angle_alpha                 87.57661
_cell_angle_beta                  91.316988
_cell_angle_gamma                 89.676394
_cell_volume                      2279.29087025

loop_
_atom_site_label
_atom_site_type_symbol
_atom_type_description
_atom_site_fract_x
_atom_site_fract_y
_atom_site_fract_z
_atom_type_partial_charge
C1    C     C_R   0.326884 0.499960 0.495401 1.021354
C2    C     C_R   0.954233 0.498718 0.525888 -0.133278
C3    C     C_R   0.487584 0.106589 0.389510 0.282881
C4    C     C_R   0.505639 0.100934 0.614395 0.279078
C5    C     C_R   0.477168 0.206171 0.392661 0.460603
C6    C     C_R   0.521781 0.200117 0.608028 0.409209
C7    C     C_R   0.496601 0.052449 0.502918 -0.024318
C8    C     C_R   0.569823 0.893384 0.554484 0.200004
C9    C     C_R   0.424584 0.896313 0.454465 0.200856
C10   C     C_R   0.566325 0.793802 0.561151 0.460519
C11   C     C_R   0.431296 0.796973 0.442390 0.472516
C12   C     C_R   0.672968 0.499416 0.503838 0.969468
C13   C     C_R   0.496723 0.946092 0.504802 -0.039493
C14   C     C_R   0.511158 0.502758 0.260961 0.938960
C15   C     C_R   0.496551 0.498306 0.740781 0.976992
C16   C     C_R   0.510024 0.685628 0.084513 0.334635
C17   C     C_R   0.398673 0.635944 0.884613 0.339151
C18   C     C_R   0.464853 0.756010 0.010463 0.190810
C19   C     C_R   0.401675 0.729980 0.919630 0.262063
C20   C     C_R   0.460569 0.570669 0.939449 -0.188461
C21   C     C_R   0.498490 0.589847 0.055515 -0.181664
C22   C     C_R   0.530735 0.511362 0.128746 -0.154527
C23   C     C_R   0.229400 0.499234 0.480052 -0.341774
C24   C     C_R   0.498361 0.495501 0.875939 -0.194627
C25   C     C_R   0.566954 0.434175 0.070378 0.402058
C26   C     C_R   0.561061 0.435345 0.938775 0.377724
C27   C     C_R   0.090039 0.583047 0.450181 0.293175
C28   C     C_R   0.907901 0.582721 0.542762 0.326498
C29   C     C_R   0.181331 0.585379 0.471765 0.401408
C30   C     C_R   0.816556 0.584208 0.524196 0.364903
C31   C     C_3   0.611191 0.277583 0.102907 -0.064977
C32   C     C_3   0.698893 0.440117 0.859156 -0.242801
C33   C     C_3   0.621040 0.745698 0.754429 -0.036313
C34   C     C_R   0.770105 0.498041 0.519251 -0.394667
C35   C     C_3   0.342115 0.780428 0.263313 -0.015277
C36   C     C_3   0.190988 0.729939 0.561726 0.080582
C37   C     C_3   0.783709 0.714937 0.401680 0.027092
C38   C     C_3   0.571430 0.032691 0.246551 -0.154079
C39   C     C_3   0.423523 0.071589 0.786714 -0.109921
C40   C     C_3   0.375309 0.224374 0.226091 -0.078058
C41   C     C_3   0.631032 0.193362 0.764861 -0.005521
C42   C     C_R   0.182853 0.413965 0.459323 0.273125
C43   C     C_R   0.817852 0.412344 0.543759 0.271507
C44   C     C_R   0.090555 0.416080 0.448249 0.404225
C45   C     C_R   0.909894 0.414863 0.557559 0.387492
C46   C     C_R   0.045411 0.498933 0.475539 -0.120195
Cl1   Cl    Cl    0.668250 0.950059 0.601498 -0.528103
Cl2   Cl    Cl    0.767735 0.300187 0.556510 -0.501231
Cl3   Cl    Cl    0.035057 0.324897 0.369902 -0.397029
Cl4   Cl    Cl    0.965788 0.321518 0.642848 -0.412681
Cl5   Cl    Cl    0.323887 0.956852 0.418064 -0.540410
Cl6   Cl    Cl    0.595487 0.719792 0.189149 -0.619100
Cl7   Cl    Cl    0.314711 0.598551 0.780824 -0.585670
Cl8   Cl    Cl    0.490461 0.875872 0.026132 -0.574004
Cl9   Cl    Cl    0.333880 0.816078 0.840636 -0.527468
Cl10  Cl    Cl    0.040240 0.672505 0.351007 -0.533937
Cl11  Cl    Cl    0.957582 0.678837 0.617392 -0.501279
Cl12  Cl    Cl    0.234665 0.302724 0.447560 -0.501443
H1    H     H_    0.663503 0.261803 0.035242 0.170344
H2    H     H_    0.388003 0.834440 0.224649 0.184264
H3    H     H_    0.273930 0.810110 0.262249 0.231085
H4    H     H_    0.340975 0.720324 0.200261 0.147065
H5    H     H_    0.136797 0.775127 0.520264 0.209422
H6    H     H_    0.244717 0.777458 0.591879 0.222875
H7    H     H_    0.167613 0.690743 0.647508 0.180998
H8    H     H_    0.852839 0.739868 0.390508 0.200389
H9    H     H_    0.739595 0.777715 0.393821 0.206760
H10   H     H_    0.764896 0.668330 0.323953 0.146367
H11   H     H_    0.579818 0.957241 0.275902 0.211066
H12   H     H_    0.544264 0.262140 0.062609 0.147611
H13   H     H_    0.625881 0.074278 0.289632 0.137344
H14   H     H_    0.579073 0.039182 0.143139 0.210244
H15   H     H_    0.419150 0.147143 0.809460 0.146358
H16   H     H_    0.420357 0.029958 0.876743 0.247805
H17   H     H_    0.365464 0.051615 0.727251 0.201878
H18   H     H_    0.335293 0.285569 0.189042 0.183612
H19   H     H_    0.332585 0.181746 0.290524 0.218725
H20   H     H_    0.393009 0.182526 0.144462 0.179902
H21   H     H_    0.682859 0.242216 0.796141 0.207376
H22   H     H_    0.664655 0.146757 0.698792 0.198857
H23   H     H_    0.622318 0.229235 0.186150 0.178319
H24   H     H_    0.609483 0.151950 0.849376 0.158039
H25   H     H_    0.729876 0.454018 0.952432 0.195808
H26   H     H_    0.685194 0.507554 0.805039 0.140371
H27   H     H_    0.747914 0.400241 0.806165 0.215301
H28   H     H_    0.551305 0.733096 0.780748 0.116921
H29   H     H_    0.643478 0.814015 0.790137 0.219652
H30   H     H_    0.662167 0.689450 0.802388 0.161653
N1    N     N_R   0.500000 0.252470 0.500000 -0.178195
N2    N     N_R   0.500000 0.747550 0.500000 -0.183412
O1    O     O_R   0.369060 0.579480 0.500010 -0.507526
O2    O     O_3   0.621317 0.385683 0.871633 -0.603390
O3    O     O_3   0.632546 0.742050 0.623544 -0.519262
O4    O     O_3   0.364896 0.745892 0.386078 -0.541221
O5    O     O_3   0.224858 0.670719 0.470415 -0.551593
O6    O     O_3   0.772684 0.669795 0.520909 -0.514660
O7    O     O_3   0.485285 0.063775 0.275023 -0.581071
O8    O     O_3   0.503980 0.050796 0.728581 -0.572861
O9    O     O_3   0.453220 0.258497 0.284398 -0.591485
O10   O     O_3   0.558168 0.245269 0.709986 -0.555409
O11   O     O_R   0.630940 0.579480 0.499990 -0.542267
O12   O     O_R   0.369050 0.420520 0.500010 -0.586028
O13   O     O_R   0.630950 0.420520 0.499990 -0.553708
O14   O     O_R   0.500000 0.579490 0.316770 -0.592687
O15   O     O_R   0.500000 0.579490 0.683230 -0.633143
O16   O     O_R   0.499990 0.420540 0.316770 -0.540061
O17   O     O_R   0.500010 0.420540 0.683230 -0.535959
O18   O     O_3   0.619886 0.370785 0.142251 -0.593653
Zn1   Zn    Zn3+2 0.500000 0.606140 0.500000 1.084465
Zn2   Zn    Zn3+2 0.500000 0.393860 0.500000 1.110130

loop_
_geom_bond_atom_site_label_1
_geom_bond_atom_site_label_2
_ccdc_geom_bond_type
C44   Cl3   S    
C16   C21   A    
C4    O8    S    
C27   C29   A    
C31   O18   S    
C9    Cl5   S    
C42   Cl12  S    
C41   H22   S    
C28   Cl11  S    
C2    C46   S    
C8    C13   A    
C23   C42   A    
O13   Zn2   S    
C23   C29   A    
C33   H30   S    
C24   C26   A    
C3    C7    A    
C38   O7    S    
O14   Zn1   S    
C41   H24   S    
O11   Zn1   S    
C37   H10   S    
C17   C20   A    
C18   C19   A    
C39   H16   S    
C15   O17   A    
C9    C13   A    
C30   O6    S    
C31   H12   S    
C20   C24   A    
C22   C25   A    
C39   H17   S    
C36   H5    S    
C43   Cl2   S    
C38   H11   S    
C1    O1    A    
C21   C22   A    
C42   C44   A    
C40   O9    S    
C4    C7    A    
C44   C46   A    
C2    C45   A    
C32   H26   S    
C38   H14   S    
C30   C34   A    
C5    O9    S    
C12   O13   A    
C4    C6    A    
C29   O5    S    
C27   Cl10  S    
C39   O8    S    
C10   O3    S    
C25   C26   A    
N1    Zn2   S    
C40   H18   S    
C37   O6    S    
C35   H2    S    
C31   H1    S    
C6    O10   S    
C33   H28   S    
C43   C45   A    
C3    O7    S    
C14   O14   A    
C14   O16   A    
C15   O15   A    
C37   H8    S    
C41   O10   S    
C35   H3    S    
C9    C11   A    
C27   C46   A    
C16   C18   A    
C15   C24   S    
C1    C23   S    
O17   Zn2   S    
C40   H20   S    
O12   Zn2   S    
C12   C34   S    
C17   Cl7   S    
C11   O4    S    
O16   Zn2   S    
C35   O4    S    
C19   Cl9   S    
C32   H25   S    
O15   Zn1   S    
C38   H13   S    
C36   H7    S    
C34   C43   A    
C16   Cl6   S    
C3    C5    A    
C33   O3    S    
C41   H21   S    
C6    N1    A    
C31   H23   S    
C14   C22   S    
C28   C30   A    
C33   H29   S    
C8    Cl1   S    
C12   O11   A    
C11   N2    A    
C36   O5    S    
O1    Zn1   S    
C32   O2    S    
C45   Cl4   S    
C32   H27   S    
C37   H9    S    
C17   C19   A    
C35   H4    S    
C39   H15   S    
C18   Cl8   S    
C7    C13   S    
C20   C21   A    
C10   N2    A    
C8    C10   A    
C40   H19   S    
C2    C28   A    
N2    Zn1   S    
C36   H6    S    
C26   O2    S    
C1    O12   A    
C5    N1    A    
C25   O18   S    
