data_mof_unit_60076.cif
_audit_creation_date              2012-12-10T20:04:49-0500
_audit_creation_method            fapswitch 2.2
_symmetry_space_group_name_H-M    P1
_symmetry_Int_Tables_number       1
_space_group_crystal_system       triclinic
_cell_length_a                    38.595771
_cell_length_b                    32.092688
_cell_length_c                    21.366603
_cell_angle_alpha                 89.999906
_cell_angle_beta                  123.750674
_cell_angle_gamma                 89.999798
_cell_volume                      22005.1464723

loop_
_atom_site_label
_atom_site_type_symbol
_atom_type_description
_atom_site_fract_x
_atom_site_fract_y
_atom_site_fract_z
_atom_type_partial_charge
C1    C     C_R   0.919339 0.999993 0.419375 0.892892
C2    C     C_R   0.272239 0.010062 0.828847 0.379783
C3    C     C_R   0.001425 0.228385 0.944566 0.506271
C4    C     C_R   0.498852 0.728385 0.055727 0.506144
C5    C     C_R   0.501147 0.728385 0.944273 0.506145
C6    C     C_R   0.999999 0.206725 1.000000 -0.347271
C7    C     C_R   0.500000 0.706725 1.000000 -0.347195
C8    C     C_1   0.500000 0.837974 0.000000 0.243471
C9    C     C_1   1.000000 0.337974 0.000000 0.243859
C10   C     C_3   0.997153 0.960827 0.767692 0.474403
C11   C     C_3   0.002840 0.960826 0.232302 0.474403
C12   C     C_3   0.498199 0.460772 0.768747 0.474790
C13   C     C_R   0.227760 0.511346 0.171698 0.379780
C14   C     C_3   0.501731 0.460769 0.231182 0.474804
C15   C     C_1   0.999999 0.162269 1.000000 0.230928
C16   C     C_1   0.500000 0.662269 1.000000 0.230776
C17   C     C_1   1.000000 0.124973 1.000000 -0.132717
C18   C     C_1   0.500000 0.624973 1.000000 -0.132923
C19   C     C_1   0.500000 0.875282 0.000000 -0.125221
C20   C     C_1   1.000000 0.375282 0.000000 -0.124809
C21   C     C_3   0.999904 0.000458 0.811011 -0.437113
C22   C     C_3   0.000096 0.000458 0.188989 -0.437113
C23   C     C_3   0.499871 0.500465 0.810980 -0.437610
C24   C     C_R   0.772241 0.511448 0.828246 0.379743
C25   C     C_3   0.500130 0.500465 0.189021 -0.437606
C26   C     C_3   0.967088 0.022689 0.736838 0.308327
C27   C     C_3   0.032916 0.022683 0.263165 0.308331
C28   C     C_3   0.466459 0.521793 0.736204 0.308665
C29   C     C_3   0.533581 0.521732 0.263835 0.308697
C30   C     C_3   0.002993 0.039969 0.733077 0.294029
C31   C     C_3   0.997014 0.039969 0.266929 0.294026
C32   C     C_3   0.501883 0.540042 0.731965 0.294037
C33   C     C_3   0.498189 0.540046 0.268108 0.294019
C34   C     C_3   0.035659 0.017333 0.805882 0.292243
C35   C     C_R   0.706526 0.997875 0.204431 -0.288031
C36   C     C_3   0.964344 0.017339 0.194121 0.292239
C37   C     C_3   0.535149 0.518305 0.805379 0.292379
C38   C     C_3   0.464884 0.518368 0.194656 0.292337
C39   C     C_3   0.032637 0.977884 0.762209 0.471438
C40   C     C_3   0.967359 0.977890 0.237787 0.471436
C41   C     C_3   0.533202 0.478784 0.762779 0.471639
C42   C     C_3   0.466761 0.478844 0.237185 0.471642
C43   C     C_3   0.798821 0.005902 0.443453 -0.196772
C44   C     C_3   0.201176 0.005877 0.556543 -0.196771
C45   C     C_3   0.298861 0.502586 0.443681 -0.196811
C46   C     C_R   0.293474 0.997875 0.795569 -0.288035
C47   C     C_3   0.701133 0.502339 0.556299 -0.196795
C48   C     C_3   0.017902 0.798378 0.163480 -0.118103
C49   C     C_3   0.982098 0.798381 0.836522 -0.118086
C50   C     C_3   0.519094 0.298396 0.164327 -0.120019
C51   C     C_3   0.480908 0.298397 0.835677 -0.119890
C52   C     C_3   0.904114 0.946448 0.653042 -0.192938
C53   C     C_3   0.095877 0.946431 0.346948 -0.192954
C54   C     C_3   0.405583 0.443875 0.654564 -0.194639
C55   C     C_3   0.594314 0.443701 0.345329 -0.194769
C56   C     C_3   0.907772 0.060750 0.656298 -0.235541
C57   C     C_R   0.206528 0.497932 0.204330 -0.287959
C58   C     C_3   0.092238 0.060734 0.343712 -0.235560
C59   C     C_3   0.406132 0.558223 0.654586 -0.237671
C60   C     C_3   0.593975 0.558048 0.345525 -0.237815
C61   C     C_3   0.010475 0.109995 0.762399 -0.155855
C62   C     C_3   0.989544 0.109997 0.237619 -0.155856
C63   C     C_3   0.507460 0.610245 0.759388 -0.155329
C64   C     C_3   0.492746 0.610259 0.240817 -0.155361
C65   C     C_3   0.101965 0.041061 0.851606 -0.187483
C66   C     C_3   0.898042 0.041081 0.148402 -0.187437
C67   C     C_3   0.600793 0.543824 0.850509 -0.188516
C68   C     C_R   0.793473 0.497940 0.795668 -0.287968
C69   C     C_3   0.399292 0.544018 0.149586 -0.188083
C70   C     C_3   0.810188 0.990662 0.167620 -0.237531
C71   C     C_3   0.189814 0.990686 0.832386 -0.237566
C72   C     C_3   0.310182 0.493936 0.167189 -0.235139
C73   C     C_3   0.689832 0.494180 0.832843 -0.235497
C74   C     C_3   0.694627 0.991870 0.048006 -0.203574
C75   C     C_3   0.305375 0.991896 0.951997 -0.203583
C76   C     C_3   0.194602 0.495257 0.047656 -0.203636
C77   C     C_3   0.805404 0.495520 0.952354 -0.203646
C78   C     C_R   0.728474 0.984768 0.279451 0.511467
C79   C     C_R   0.271526 0.984759 0.720555 0.511474
C80   C     C_R   0.228478 0.483616 0.278639 0.511527
C81   C     C_R   0.080661 0.999993 0.580624 0.892883
C82   C     C_R   0.771523 0.483533 0.721416 0.511551
C83   C     C_R   0.771994 0.985493 0.323270 0.372996
C84   C     C_R   0.228006 0.985484 0.676735 0.372994
C85   C     C_R   0.271998 0.484326 0.322482 0.373195
C86   C     C_R   0.728003 0.484241 0.677570 0.373181
C87   C     C_R   0.793415 0.997857 0.290500 -0.269866
C88   C     C_R   0.206585 0.997857 0.709500 -0.269871
C89   C     C_R   0.293416 0.497914 0.290373 -0.269910
C90   C     C_R   0.706585 0.497922 0.709627 -0.269935
C91   C     C_R   0.771462 0.009788 0.214158 0.396844
C92   C     C_R   0.419340 0.499994 0.419379 0.892638
C93   C     C_R   0.228538 0.009797 0.785836 0.396857
C94   C     C_R   0.271462 0.511085 0.214682 0.396535
C95   C     C_R   0.728539 0.511188 0.785264 0.396620
C96   C     C_1   0.662038 0.998910 0.161563 0.186598
C97   C     C_1   0.337962 0.998909 0.838437 0.186595
C98   C     C_1   0.162040 0.498931 0.161523 0.186558
C99   C     C_1   0.837961 0.498935 0.838473 0.186557
C100  C     C_1   0.837900 0.999145 0.336118 0.144789
C101  C     C_1   0.162100 0.999145 0.663882 0.144795
C102  C     C_1   0.337901 0.499173 0.336053 0.144856
C103  C     C_R   0.580660 0.499994 0.580621 0.892543
C104  C     C_1   0.662099 0.499176 0.663946 0.144934
C105  C     C_1   0.875163 0.999819 0.374410 -0.151070
C106  C     C_1   0.124837 0.999818 0.625590 -0.151071
C107  C     C_1   0.375164 0.499825 0.374385 -0.150674
C108  C     C_1   0.624837 0.499825 0.625614 -0.150681
C109  C     C_R   0.000041 0.000069 0.621740 1.041776
C110  C     C_R   0.999959 0.000069 0.378260 1.041773
C111  C     C_R   0.500022 0.500070 0.621722 1.041528
C112  C     C_R   0.499979 0.500070 0.378279 1.041509
C113  C     C_1   0.624748 0.999551 0.124836 -0.141945
C114  C     C_3   0.999982 0.000377 0.688811 -0.432209
C115  C     C_1   0.375253 0.999550 0.875164 -0.141947
C116  C     C_1   0.124748 0.499555 0.124828 -0.142039
C117  C     C_1   0.875252 0.499557 0.875170 -0.142047
C118  C     C_R   0.000000 0.919377 0.000000 0.916465
C119  C     C_R   0.500000 0.419377 0.000000 0.916116
C120  C     C_R   0.999964 0.000261 0.878208 1.052245
C121  C     C_R   0.000036 0.000261 0.121792 1.052242
C122  C     C_R   0.499958 0.500266 0.878203 1.051983
C123  C     C_R   0.500042 0.500266 0.121797 1.051951
C124  C     C_R   1.000000 0.080746 1.000000 0.881677
C125  C     C_3   0.000018 0.000377 0.311189 -0.432208
C126  C     C_R   0.500000 0.580746 1.000000 0.881498
C127  C     C_R   0.500000 0.919534 0.000000 0.873608
C128  C     C_R   1.000000 0.419534 0.000000 0.874176
C129  C     C_R   0.580514 0.000021 0.080535 0.879693
C130  C     C_R   0.419486 0.000021 0.919465 0.879697
C131  C     C_R   0.080514 0.500018 0.080535 0.880105
C132  C     C_R   0.919486 0.500017 0.919465 0.880135
C133  C     C_R   0.500000 0.080573 0.000000 0.877557
C134  C     C_R   0.000000 0.580572 1.000000 0.877728
C135  C     C_R   0.491140 0.228180 0.046418 0.501844
C136  C     C_3   0.499946 0.500382 0.688777 -0.432324
C137  C     C_R   0.508862 0.228180 0.953586 0.501857
C138  C     C_R   0.990685 0.728178 0.045791 0.501937
C139  C     C_R   0.009316 0.728179 0.954209 0.501940
C140  C     C_R   0.500001 0.206580 0.000002 -0.304200
C141  C     C_R   0.000000 0.706579 0.000000 -0.304016
C142  C     C_R   0.008510 0.771744 0.952814 0.360215
C143  C     C_R   0.991490 0.771744 0.047186 0.360223
C144  C     C_R   0.508053 0.271746 0.952202 0.360609
C145  C     C_R   0.491950 0.271745 0.047802 0.360643
C146  C     C_3   0.964466 0.983006 0.694061 0.299135
C147  C     C_3   0.500056 0.500382 0.311225 -0.432312
C148  C     C_3   0.035531 0.983000 0.305937 0.299136
C149  C     C_3   0.464916 0.482056 0.694519 0.298988
C150  C     C_3   0.535052 0.481992 0.305449 0.298982
C151  C     C_R   0.000000 0.793408 0.000000 -0.283720
C152  C     C_R   0.500001 0.293409 0.000002 -0.284024
C153  C     C_1   0.500001 0.162114 0.000001 0.226643
C154  C     C_1   0.000000 0.662113 0.000000 0.226553
C155  C     C_1   0.000000 0.837913 0.000000 0.168474
C156  C     C_1   0.500001 0.337914 0.000001 0.168685
C157  C     C_1   0.000000 0.875185 0.000000 -0.114785
C158  C     C_R   0.727761 0.010053 0.171148 0.379786
C159  C     C_1   0.500000 0.375186 0.000001 -0.115079
C160  C     C_1   0.500000 0.124813 0.000000 -0.125466
C161  C     C_1   0.000000 0.624812 1.000000 -0.125581
C162  C     C_R   0.501148 0.771830 0.944276 0.518074
C163  C     C_R   0.498852 0.771830 0.055725 0.518074
C164  C     C_R   0.001425 0.271830 0.944568 0.518258
C165  C     C_R   0.998574 0.271830 0.055432 0.518258
C166  C     C_R   0.500000 0.793501 0.000000 -0.360210
C167  C     C_R   1.000000 0.293501 1.000000 -0.360158
C168  C     C_R   0.998574 0.228385 0.055434 0.506273
F1    F     F_    0.995054 0.920744 0.789130 -0.638012
F2    F     F_    0.997191 0.207455 0.109261 -0.608055
F3    F     F_    0.502261 0.707455 0.890162 -0.608246
F4    F     F_    0.497739 0.707455 0.109838 -0.608255
F5    F     F_    0.502263 0.792748 0.890165 -0.584947
F6    F     F_    0.497737 0.792748 0.109836 -0.584947
F7    F     F_    0.002810 0.292748 0.890741 -0.584840
F8    F     F_    0.997189 0.292748 0.109258 -0.584839
F9    F     F_    0.065283 0.954470 0.771563 -0.628587
F10   F     F_    0.934710 0.954482 0.228429 -0.628600
F11   F     F_    0.566471 0.456270 0.772751 -0.629227
F12   F     F_    0.004933 0.920743 0.210857 -0.638005
F13   F     F_    0.433451 0.456391 0.227174 -0.629378
F14   F     F_    0.707674 0.971922 0.310501 -0.612139
F15   F     F_    0.292326 0.971903 0.689510 -0.612135
F16   F     F_    0.207681 0.469597 0.309004 -0.612108
F17   F     F_    0.792320 0.469425 0.691105 -0.612093
F18   F     F_    0.497183 0.420648 0.791277 -0.636694
F19   F     F_    0.502675 0.420643 0.208580 -0.636647
F20   F     F_    0.481945 0.207054 0.090538 -0.608142
F21   F     F_    0.518057 0.207054 0.909465 -0.608138
F22   F     F_    0.981051 0.707052 0.089296 -0.608338
F23   F     F_    0.018950 0.707052 0.910704 -0.608334
F24   F     F_    0.002808 0.207456 0.890739 -0.608054
H1    H     H_    0.768278 0.017861 0.429720 0.190213
H2    H     H_    0.731661 0.513900 0.569347 0.189985
H3    H     H_    0.682936 0.528397 0.558925 0.131374
H4    H     H_    0.683292 0.490596 0.497568 0.178149
H5    H     H_    0.041736 0.816701 0.161377 0.129357
H6    H     H_    0.031050 0.767845 0.191529 0.173316
H7    H     H_    0.009965 0.816094 0.198474 0.220172
H8    H     H_    0.958266 0.816706 0.838627 0.129365
H9    H     H_    0.968948 0.767848 0.808471 0.173310
H10   H     H_    0.990035 0.816096 0.801527 0.220176
H11   H     H_    0.542706 0.316722 0.161553 0.128102
H12   H     H_    0.817004 0.031446 0.439401 0.132301
H13   H     H_    0.532373 0.267868 0.192270 0.173646
H14   H     H_    0.511509 0.316117 0.199813 0.219346
H15   H     H_    0.457297 0.316724 0.838452 0.128158
H16   H     H_    0.467628 0.267870 0.807734 0.173623
H17   H     H_    0.488493 0.316117 0.800191 0.219391
H18   H     H_    0.898622 0.967320 0.688310 0.174267
H19   H     H_    0.918707 0.916825 0.683193 0.214758
H20   H     H_    0.873238 0.938650 0.601881 0.184424
H21   H     H_    0.101372 0.967302 0.311684 0.174267
H22   H     H_    0.081279 0.916811 0.316794 0.214756
H23   H     H_    0.816657 0.995182 0.502812 0.177555
H24   H     H_    0.126752 0.938628 0.398108 0.184415
H25   H     H_    0.399572 0.464579 0.689338 0.174299
H26   H     H_    0.420959 0.414639 0.685453 0.214152
H27   H     H_    0.374909 0.435282 0.603641 0.183491
H28   H     H_    0.600357 0.464390 0.310581 0.174298
H29   H     H_    0.578886 0.414490 0.314398 0.214125
H30   H     H_    0.624976 0.435057 0.396234 0.183416
H31   H     H_    0.891109 0.035149 0.615239 0.180509
H32   H     H_    0.925210 0.080024 0.639447 0.196862
H33   H     H_    0.883824 0.081073 0.653909 0.184389
H34   H     H_    0.231719 0.017836 0.570271 0.190201
H35   H     H_    0.108898 0.035130 0.384766 0.180510
H36   H     H_    0.074803 0.080010 0.360567 0.196861
H37   H     H_    0.116190 0.081053 0.346105 0.184385
H38   H     H_    0.390171 0.532171 0.614254 0.180604
H39   H     H_    0.423048 0.577945 0.637196 0.196736
H40   H     H_    0.381640 0.577900 0.651622 0.184091
H41   H     H_    0.609898 0.531964 0.385799 0.180616
H42   H     H_    0.577096 0.577789 0.362967 0.196716
H43   H     H_    0.618497 0.577691 0.348522 0.184073
H44   H     H_    0.041462 0.107568 0.816229 0.196339
H45   H     H_    0.182992 0.031423 0.560585 0.132296
H46   H     H_    0.985356 0.107595 0.772811 0.193629
H47   H     H_    0.008339 0.141504 0.739185 0.198640
H48   H     H_    0.958557 0.107575 0.183787 0.196344
H49   H     H_    0.014664 0.107593 0.227209 0.193625
H50   H     H_    0.991683 0.141506 0.260837 0.198642
H51   H     H_    0.538506 0.608661 0.813262 0.197082
H52   H     H_    0.482423 0.607157 0.769894 0.192905
H53   H     H_    0.504461 0.641686 0.735315 0.198605
H54   H     H_    0.461704 0.608724 0.186924 0.197123
H55   H     H_    0.517789 0.607132 0.230335 0.192878
H56   H     H_    0.183342 0.995149 0.497188 0.177559
H57   H     H_    0.495786 0.641695 0.264935 0.198608
H58   H     H_    0.088983 0.057278 0.796848 0.174281
H59   H     H_    0.116134 0.010888 0.852030 0.200975
H60   H     H_    0.127243 0.060925 0.896022 0.184858
H61   H     H_    0.911028 0.057296 0.203161 0.174276
H62   H     H_    0.883868 0.010911 0.147976 0.200976
H63   H     H_    0.872768 0.060948 0.103989 0.184864
H64   H     H_    0.587391 0.559695 0.795328 0.174599
H65   H     H_    0.615776 0.514047 0.851746 0.200641
H66   H     H_    0.625517 0.564359 0.894401 0.184549
H67   H     H_    0.268331 0.514173 0.430584 0.190011
H68   H     H_    0.412730 0.559877 0.204786 0.174567
H69   H     H_    0.384254 0.514275 0.148323 0.200657
H70   H     H_    0.374602 0.564593 0.105723 0.184584
H71   H     H_    0.793360 0.960495 0.156650 0.136871
H72   H     H_    0.843204 0.986834 0.215042 0.182727
H73   H     H_    0.809952 0.998102 0.116693 0.186535
H74   H     H_    0.206644 0.960518 0.843370 0.136878
H75   H     H_    0.156798 0.986853 0.784966 0.182711
H76   H     H_    0.190051 0.998135 0.883311 0.186517
H77   H     H_    0.293295 0.463677 0.154488 0.136799
H78   H     H_    0.317055 0.528611 0.440952 0.131435
H79   H     H_    0.343173 0.489713 0.214465 0.183102
H80   H     H_    0.310030 0.502579 0.116778 0.186154
H81   H     H_    0.706721 0.463916 0.845650 0.136869
H82   H     H_    0.656838 0.489930 0.785596 0.182916
H83   H     H_    0.689997 0.502907 0.883234 0.185981
H84   H     H_    0.674947 0.968746 0.053401 0.141772
H85   H     H_    0.722471 0.976311 0.055766 0.155748
H86   H     H_    0.675941 0.004207 0.989706 0.199036
H87   H     H_    0.325057 0.968768 0.946611 0.141776
H88   H     H_    0.277533 0.976338 0.944244 0.155744
H89   H     H_    0.316703 0.490915 0.502458 0.178109
H90   H     H_    0.324061 0.004240 0.010292 0.199036
H91   H     H_    0.174932 0.471565 0.051860 0.141936
H92   H     H_    0.222434 0.480173 0.054574 0.155731
H93   H     H_    0.175898 0.508501 0.990026 0.199029
H94   H     H_    0.825072 0.471786 0.948241 0.141943
H95   H     H_    0.777574 0.480473 0.945505 0.155726
H96   H     H_    0.824111 0.508834 0.009930 0.199029
O1    O     O_R   0.939010 0.034440 0.439030 -0.625798
O2    O     O_R   0.439000 0.999980 0.991570 -0.612516
O3    O     O_R   0.061000 0.499980 0.008430 -0.612771
O4    O     O_R   0.939000 0.499980 0.991570 -0.612795
O5    O     O_R   0.500000 0.061040 0.052440 -0.600280
O6    O     O_R   0.500000 0.061040 0.947560 -0.600279
O7    O     O_R   0.000000 0.561040 0.052440 -0.600483
O8    O     O_R   0.000000 0.561040 0.947560 -0.600480
O9    O     O_R   0.939030 0.965580 0.439000 -0.598897
O10   O     O_R   0.060970 0.965580 0.561000 -0.598893
O11   O     O_R   0.439030 0.465580 0.439000 -0.598362
O12   O     O_R   0.060990 0.034440 0.560970 -0.625793
O13   O     O_R   0.560970 0.465580 0.561000 -0.598322
O14   O     O_R   0.000010 0.034440 0.593030 -0.596264
O15   O     O_R   0.999990 0.034440 0.406970 -0.596265
O16   O     O_R   0.500010 0.534440 0.593030 -0.596311
O17   O     O_R   0.499990 0.534440 0.406970 -0.596317
O18   O     O_R   0.000020 0.965580 0.593000 -0.581197
O19   O     O_R   0.999980 0.965580 0.407000 -0.581198
O20   O     O_R   0.500020 0.465580 0.593000 -0.581041
O21   O     O_R   0.499980 0.465580 0.407000 -0.581049
O22   O     O_R   0.034440 0.939060 0.034360 -0.618066
O23   O     O_R   0.439010 0.534440 0.439030 -0.625890
O24   O     O_R   0.965560 0.939060 0.965640 -0.618058
O25   O     O_R   0.534440 0.439060 0.034360 -0.618296
O26   O     O_R   0.465560 0.439060 0.965640 -0.618241
O27   O     O_R   0.034440 0.000050 0.941370 -0.579504
O28   O     O_R   0.965560 0.000050 0.058630 -0.579502
O29   O     O_R   0.534440 0.500050 0.941370 -0.579324
O30   O     O_R   0.465560 0.500050 0.058630 -0.579319
O31   O     O_R   0.965570 0.000070 0.872530 -0.607037
O32   O     O_R   0.034430 0.000070 0.127470 -0.607035
O33   O     O_R   0.465570 0.500070 0.872530 -0.606773
O34   O     O_R   0.560990 0.534440 0.560970 -0.625840
O35   O     O_R   0.534430 0.500070 0.127470 -0.606748
O36   O     O_R   0.034450 0.061050 0.034440 -0.609386
O37   O     O_R   0.965550 0.061050 0.965560 -0.609379
O38   O     O_R   0.534450 0.561050 0.034440 -0.609335
O39   O     O_R   0.465550 0.561050 0.965560 -0.609283
O40   O     O_R   0.500030 0.939050 0.052570 -0.599414
O41   O     O_R   0.499970 0.939050 0.947430 -0.599413
O42   O     O_R   0.000030 0.439050 0.052570 -0.599324
O43   O     O_R   0.999970 0.439050 0.947430 -0.599325
O44   O     O_3   0.793605 0.971911 0.397133 -0.543164
O45   O     O_R   0.561000 0.000050 0.113470 -0.595823
O46   O     O_3   0.206396 0.971892 0.602878 -0.543158
O47   O     O_3   0.293610 0.469552 0.395609 -0.542548
O48   O     O_3   0.706391 0.469378 0.604502 -0.542500
O49   O     O_3   0.981332 0.793097 0.091083 -0.539286
O50   O     O_3   0.018669 0.793097 0.908917 -0.539292
O51   O     O_3   0.482233 0.293098 0.092325 -0.538119
O52   O     O_3   0.517769 0.293098 0.907678 -0.538160
O53   O     O_3   0.928372 0.965629 0.630612 -0.592945
O54   O     O_3   0.071623 0.965616 0.369382 -0.592940
O55   O     O_3   0.429302 0.463700 0.631575 -0.591983
O56   O     O_R   0.439000 0.000050 0.886530 -0.595824
O57   O     O_3   0.570634 0.463572 0.368359 -0.591925
O58   O     O_3   0.933785 0.045251 0.730172 -0.586883
O59   O     O_3   0.066223 0.045240 0.269835 -0.586878
O60   O     O_3   0.432547 0.543454 0.728889 -0.586025
O61   O     O_3   0.567532 0.543333 0.271191 -0.585976
O62   O     O_3   0.006101 0.080235 0.709951 -0.594786
O63   O     O_3   0.993912 0.080236 0.290062 -0.594788
O64   O     O_3   0.503889 0.580381 0.707740 -0.594805
O65   O     O_3   0.496257 0.580389 0.292405 -0.594816
O66   O     O_3   0.071904 0.035009 0.868615 -0.575733
O67   O     O_R   0.061000 0.500050 0.113470 -0.596041
O68   O     O_3   0.928101 0.035021 0.131391 -0.575742
O69   O     O_3   0.570890 0.536952 0.867647 -0.576002
O70   O     O_3   0.429175 0.537076 0.132420 -0.576099
O71   O     O_3   0.791950 0.024351 0.182000 -0.554369
O72   O     O_3   0.208050 0.024370 0.817989 -0.554356
O73   O     O_3   0.291948 0.526853 0.183307 -0.554115
O74   O     O_3   0.708053 0.527042 0.816579 -0.553968
O75   O     O_3   0.706067 0.025466 0.098414 -0.542777
O76   O     O_3   0.293932 0.025485 0.901575 -0.542777
O77   O     O_3   0.206065 0.527932 0.099802 -0.542786
O78   O     O_R   0.939000 0.500050 0.886530 -0.596053
O79   O     O_3   0.793935 0.528123 0.900076 -0.542784
O80   O     O_R   0.561000 0.999980 0.008430 -0.612512
Zn1   Zn    Zn3+2 0.000000 0.045990 0.500000 1.044608
Zn2   Zn    Zn3+2 0.499980 0.000060 0.929880 1.046709
Zn3   Zn    Zn3+2 0.000020 0.500060 0.070120 1.046077
Zn4   Zn    Zn3+2 0.999980 0.500060 0.929880 1.046087
Zn5   Zn    Zn3+2 0.500000 0.545990 0.500000 1.044983
Zn6   Zn    Zn3+2 0.000000 0.954030 0.500000 1.097264
Zn7   Zn    Zn3+2 0.500000 0.454030 0.500000 1.098030
Zn8   Zn    Zn3+2 0.045990 0.000050 0.045940 1.058765
Zn9   Zn    Zn3+2 0.954010 0.000050 0.954060 1.058777
Zn10  Zn    Zn3+2 0.545990 0.500050 0.045940 1.058848
Zn11  Zn    Zn3+2 0.454010 0.500050 0.954060 1.058892
Zn12  Zn    Zn3+2 0.500020 0.000060 0.070120 1.046706

loop_
_geom_bond_atom_site_label_1
_geom_bond_atom_site_label_2
_ccdc_geom_bond_type
C21   C26   S    
C74   H85   S    
C53   H22   S    
C87   C91   A    
C154  C161  T    
C90   C95   A    
C45   O47   S    
C12   C23   S    
C123  O35   A    
O26   Zn11  S    
C110  O19   A    
C22   C121  S    
C47   H3    S    
O22   Zn8   S    
C138  C143  A    
C46   C79   A    
C139  C142  A    
C141  C154  S    
C29   C33   S    
C89   C94   A    
C117  C132  S    
C33   C147  S    
C142  O50   S    
C152  C156  S    
O2    Zn12  S    
C62   H50   S    
C151  C155  S    
C158  O75   S    
C97   C115  T    
C129  O45   A    
O13   Zn7   S    
C143  C151  A    
C37   O69   S    
C127  O41   A    
C70   H71   S    
C42   C147  S    
O30   Zn11  S    
C34   O66   S    
C54   H26   S    
C23   C122  S    
C6    C168  A    
C59   O60   S    
C42   F13   S    
C25   C29   S    
C137  C140  A    
C48   H7    S    
C27   C31   S    
C61   H47   S    
C28   C32   S    
C147  C150  S    
C36   O68   S    
C86   C90   A    
O10   Zn6   S    
C69   H69   S    
C23   C37   S    
C51   O52   S    
C125  C148  S    
C121  O28   A    
C142  C151  A    
O5    Zn12  S    
C51   H17   S    
C52   H18   S    
C66   H61   S    
C9    C167  S    
C1    O1    A    
O3    Zn4   S    
C69   O70   S    
C90   C104  S    
O16   Zn5   S    
C3    C164  A    
C69   H68   S    
C52   O53   S    
O12   Zn1   S    
C53   H24   S    
C22   C27   S    
C146  O53   S    
C1    O9    A    
C109  O14   A    
C76   H92   S    
C60   H41   S    
C84   C88   A    
C138  C141  A    
C53   O54   S    
C22   C36   S    
C35   C78   A    
C33   C38   S    
C61   O62   S    
C131  O3    A    
C13   C94   A    
C133  C160  S    
C127  O40   A    
O24   Zn9   S    
C14   F19   S    
O8    Zn4   S    
C24   O79   S    
C93   O72   S    
C134  O8    A    
C67   H66   S    
C64   H54   S    
C119  C159  S    
C52   H20   S    
C31   C36   S    
O43   Zn4   S    
C1    C105  S    
C71   H76   S    
C3    C6    A    
C59   H39   S    
C28   O60   S    
C35   C96   S    
C10   F1    S    
C70   H72   S    
C150  O57   S    
C79   C84   A    
O6    Zn2   S    
C51   H15   S    
C111  C136  S    
C13   C57   A    
O42   Zn3   S    
C131  O67   A    
C43   O44   S    
C164  F7    S    
C26   C146  S    
C91   C158  A    
C128  O43   A    
C126  O39   A    
O9    Zn6   S    
C28   C149  S    
C165  C167  A    
C110  O15   A    
O40   Zn12  S    
C29   O61   S    
C57   C80   A    
C126  O38   A    
C60   H43   S    
C77   H95   S    
C4    C7    A    
C31   O63   S    
C78   C83   A    
C129  O80   A    
C45   H78   S    
C63   H53   S    
C49   H9    S    
C4    C163  A    
C8    C19   T    
C30   C34   S    
C92   O11   A    
C34   C39   S    
C72   O73   S    
C88   C93   A    
C27   C148  S    
C32   C37   S    
O41   Zn2   S    
C48   H6    S    
O29   Zn10  S    
C78   F14   S    
C148  O54   S    
C25   C38   S    
C99   C117  T    
C17   C124  S    
O37   Zn9   S    
C73   H82   S    
C119  O26   A    
C102  C107  T    
C133  O6    A    
C25   C123  S    
C109  C114  S    
C10   C146  S    
C55   H30   S    
C50   H14   S    
C137  C144  A    
C26   C30   S    
C71   H74   S    
O7    Zn3   S    
C72   H77   S    
C137  F21   S    
C31   C125  S    
O35   Zn10  S    
C62   H49   S    
C87   C100  S    
O23   Zn5   S    
C101  C106  T    
C74   H86   S    
C53   H21   S    
C4    F4    S    
C41   F11   S    
C56   H31   S    
O21   Zn7   S    
C58   O59   S    
O32   Zn8   S    
C112  C147  S    
C75   H88   S    
C43   H1    S    
C68   C82   A    
C60   O61   S    
C153  C160  T    
C56   O58   S    
C144  C152  A    
C81   O10   A    
C18   C126  S    
C139  C141  A    
C54   O55   S    
C40   C125  S    
C79   F15   S    
C50   O51   S    
C80   F16   S    
C37   C41   S    
C11   C40   S    
C145  C152  A    
C38   C42   S    
C122  O33   A    
C38   O70   S    
C65   H60   S    
C43   H12   S    
C132  O78   A    
C70   O71   S    
O4    Zn3   S    
C44   H34   S    
C58   H35   S    
C115  C130  S    
C83   C87   A    
C103  O34   A    
C118  O24   A    
C155  C157  T    
O80   Zn2   S    
C136  C149  S    
C54   H27   S    
C162  F5    S    
C50   H11   S    
C165  F8    S    
C75   H90   S    
C112  O21   A    
C56   H33   S    
C61   H46   S    
O39   Zn11  S    
C32   O64   S    
C139  F23   S    
C111  O16   A    
O19   Zn6   S    
C62   H48   S    
C77   O79   S    
C120  O31   A    
C143  O49   S    
C47   H2    S    
O31   Zn9   S    
C162  C166  A    
C124  O37   A    
O17   Zn5   S    
C66   H62   S    
C112  O17   A    
C135  C145  A    
C72   H79   S    
C149  O55   S    
C26   O58   S    
C140  C153  S    
C168  F2    S    
C10   C21   S    
C128  O42   A    
C73   O74   S    
C2    O76   S    
C39   F9    S    
C33   O65   S    
C156  C159  T    
C135  C140  A    
C47   H4    S    
C163  C166  A    
C60   H42   S    
C85   O47   S    
C24   C95   A    
C5    C7    A    
C85   C89   A    
C21   C34   S    
C82   F17   S    
C67   H64   S    
C83   O44   S    
C71   O72   S    
C130  O56   A    
C80   C85   A    
C9    C20   T    
C144  O52   S    
C12   F18   S    
C14   C150  S    
C67   H65   S    
C7    C16   S    
C46   C97   S    
C118  O22   A    
C96   C113  T    
C81   O12   A    
O78   Zn4   S    
C104  C108  T    
C54   H25   S    
C32   C136  S    
C30   C114  S    
C15   C17   T    
C71   H75   S    
O14   Zn1   S    
C12   C149  S    
C164  C167  A    
C76   O77   S    
C134  C161  S    
C27   O59   S    
C69   H70   S    
C5    C162  A    
C35   C158  A    
O45   Zn12  S    
C82   C86   A    
C62   O63   S    
C57   C98   S    
C14   C25   S    
O28   Zn9   S    
C11   C148  S    
C24   C68   A    
C64   H57   S    
C10   C39   S    
C118  C157  S    
C11   F12   S    
C3    F24   S    
C63   O64   S    
C49   O50   S    
O27   Zn8   S    
C95   O74   S    
C89   C102  S    
C76   H91   S    
C77   H94   S    
C43   H23   S    
C44   H45   S    
C88   C101  S    
C2    C46   A    
C64   H55   S    
C100  C105  T    
C12   C41   S    
C113  C129  S    
C64   O65   S    
C20   C128  S    
C21   C120  S    
O67   Zn3   S    
C63   H52   S    
C84   O46   S    
C67   O69   S    
C86   O48   S    
C134  O7    A    
C6    C15   S    
C91   O71   S    
O34   Zn5   S    
C52   H19   S    
C119  O25   A    
C103  C108  S    
C133  O5    A    
C14   C42   S    
C124  O36   A    
C121  O32   A    
C44   O46   S    
C29   C150  S    
C30   O62   S    
C123  O30   A    
C138  F22   S    
C59   H40   S    
C45   H67   S    
C111  O20   A    
C45   H89   S    
C120  O27   A    
C36   C40   S    
C114  C146  S    
C73   H81   S    
C56   H32   S    
C51   H16   S    
C44   H56   S    
C109  O18   A    
C75   H87   S    
O20   Zn7   S    
C94   O73   S    
O38   Zn10  S    
C92   C107  S    
C98   C116  T    
C103  O13   A    
C39   C114  S    
C63   H51   S    
C130  O2    A    
C132  O4    A    
C5    F3    S    
C8    C166  S    
C40   F10   S    
C16   C18   T    
C165  C168  A    
C65   H59   S    
C76   H93   S    
C23   C28   S    
C77   H96   S    
C135  F20   S    
C58   H36   S    
C48   O49   S    
C70   H73   S    
C66   O68   S    
O15   Zn1   S    
C49   H10   S    
C13   O77   S    
C74   O75   S    
O18   Zn6   S    
C2    C93   A    
C145  O51   S    
C65   O66   S    
C55   H28   S    
C11   C22   S    
O1    Zn1   S    
C65   H58   S    
C55   H29   S    
C48   H5    S    
C68   C99   S    
C75   O76   S    
C58   H37   S    
O36   Zn8   S    
C163  F6    S    
C116  C131  S    
C47   O48   S    
C73   H83   S    
C19   C127  S    
O33   Zn11  S    
O56   Zn2   S    
C110  C125  S    
C50   H13   S    
O25   Zn10  S    
C66   H63   S    
C122  O29   A    
C55   O57   S    
C72   H80   S    
C61   H44   S    
C74   H84   S    
C81   C106  S    
C59   H38   S    
C92   O23   A    
C41   C136  S    
O11   Zn7   S    
C49   H8    S    
