data_mof_unit_63531.cif
_audit_creation_date              2012-12-10T16:49:06-0500
_audit_creation_method            fapswitch 2.2
_symmetry_space_group_name_H-M    P1
_symmetry_Int_Tables_number       1
_space_group_crystal_system       triclinic
_cell_length_a                    18.892409
_cell_length_b                    18.686171
_cell_length_c                    18.644773
_cell_angle_alpha                 108.940042
_cell_angle_beta                  109.081373
_cell_angle_gamma                 109.3106
_cell_volume                      5133.38882496

loop_
_atom_site_label
_atom_site_type_symbol
_atom_type_description
_atom_site_fract_x
_atom_site_fract_y
_atom_site_fract_z
_atom_type_partial_charge
C1    C     C_R   0.381951 0.384512 0.504634 0.919316
C2    C     C_2   0.320413 0.327649 0.517732 -0.217496
C3    C     C_2   0.422793 0.173291 0.180451 -0.141852
C4    C     C_R   0.497551 0.616915 0.619392 0.858611
C5    C     C_2   0.494117 0.184995 0.174770 -0.339798
C6    C     C_2   0.422707 0.246107 0.241703 -0.124524
C7    C     C_2   0.494338 0.305714 0.316995 -0.331679
C8    C     C_2   0.812353 0.736951 0.484191 -0.091478
C9    C     C_2   0.824077 0.817616 0.511874 -0.330643
C10   C     C_2   0.752138 0.675423 0.495972 -0.162645
C11   C     C_2   0.680142 0.677512 0.487997 -0.341325
C12   C     C_R   0.413730 0.669544 0.677459 0.101696
C13   C     C_R   0.381755 0.996340 0.876316 0.958867
C14   C     C_R   0.496936 0.877720 0.874095 0.871422
C15   C     C_R   0.618234 0.997760 0.117679 0.941285
C16   C     C_R   0.618115 0.617346 0.497320 0.940297
C17   C     C_R   0.497996 0.116818 0.114566 0.934801
C18   C     C_R   0.882877 0.002399 0.381345 0.920573
C19   C     C_R   0.113242 0.118456 0.493420 0.805560
C20   C     C_R   0.115757 0.996013 0.618428 0.993647
C21   C     C_R   0.882931 0.881271 0.502482 0.951802
C22   C     C_2   0.177230 0.916662 0.677380 0.520308
C23   C     C_R   0.493459 0.679151 0.684462 -0.098869
C24   C     C_2   0.174849 0.990144 0.685623 -0.494476
C25   C     C_2   0.240893 0.921213 0.751540 -0.222342
C26   C     C_2   0.318883 0.991097 0.802790 -0.417968
C27   C     C_2   0.814357 0.076213 0.324953 -0.146520
C28   C     C_R   0.498051 0.377976 0.380499 0.944744
C29   C     C_2   0.822365 0.005471 0.313137 -0.309671
C30   C     C_2   0.753288 0.075294 0.251594 -0.145375
C31   C     C_2   0.680153 0.001784 0.190894 -0.334021
C32   C     C_R   0.335175 0.592522 0.614429 -0.170842
C33   C     C_R   0.257367 0.586904 0.606620 -0.147737
C34   C     C_R   0.570802 0.752700 0.750639 -0.201868
C35   C     C_R   0.256271 0.657650 0.660732 -0.097392
C36   C     C_R   0.333098 0.733313 0.724625 -0.147953
C37   C     C_R   0.413017 0.738823 0.736160 0.087576
C38   C     C_R   0.570416 0.818615 0.810556 -0.198867
C39   C     C_R   0.492620 0.811744 0.804241 -0.105400
C40   C     C_2   0.186944 0.264949 0.516940 -0.334279
C41   C     C_2   0.160182 0.179923 0.471574 0.300826
C42   C     C_2   0.247908 0.329250 0.508158 -0.098445
H1    H     H_    0.631620 0.759539 0.755188 0.163131
H2    H     H_    0.662440 0.719500 0.466302 0.158065
H3    H     H_    0.333053 0.535724 0.571584 0.136010
H4    H     H_    0.215050 0.049073 0.748086 0.139422
H5    H     H_    0.224487 0.865867 0.762768 0.211956
H6    H     H_    0.338806 0.043221 0.787432 0.168190
H7    H     H_    0.855345 0.135718 0.386804 0.166859
H8    H     H_    0.788424 0.949531 0.248845 0.161102
H9    H     H_    0.767141 0.135330 0.248902 0.168222
H10   H     H_    0.661473 0.944450 0.198825 0.157312
H11   H     H_    0.197733 0.527697 0.557989 0.140948
H12   H     H_    0.336722 0.285210 0.539795 0.171959
H13   H     H_    0.195720 0.653592 0.653696 0.176127
H14   H     H_    0.328817 0.787173 0.763786 0.156434
H15   H     H_    0.631176 0.874523 0.863057 0.166346
H16   H     H_    0.169923 0.288698 0.566582 0.160871
H17   H     H_    0.233936 0.376865 0.494852 0.154809
H18   H     H_    0.068800 0.680182 0.553125 0.379168
H19   H     H_    0.096384 0.016578 0.254621 0.380622
H20   H     H_    0.363684 0.111663 0.137712 0.175874
H21   H     H_    0.550057 0.249123 0.210279 0.157873
H22   H     H_    0.363327 0.248800 0.226567 0.180676
H23   H     H_    0.550687 0.297463 0.336470 0.157754
H24   H     H_    0.848296 0.716585 0.455092 0.208104
H25   H     H_    0.793598 0.839634 0.547899 0.157784
H26   H     H_    0.764882 0.626323 0.507160 0.175046
O1    O     O_R   0.460610 0.409240 0.550770 -0.626436
O2    O     O_R   0.909530 0.949160 0.358700 -0.611355
O3    O     O_R   0.090460 0.141840 0.551380 -0.654328
O4    O     O_R   0.358470 0.409870 0.449260 -0.602431
O5    O     O_R   0.090460 0.039050 0.448590 -0.539150
O6    O     O_R   0.090470 0.050840 0.641300 -0.630699
O7    O     O_R   0.090460 0.948050 0.538510 -0.538642
O8    O     O_R   0.909540 0.960950 0.551410 -0.630077
O9    O     O_R   0.909540 0.858160 0.448620 -0.597526
O10   O     O_R   0.551070 0.590720 0.641790 -0.621650
O11   O     O_R   0.448930 0.591350 0.540280 -0.624248
O12   O     O_R   0.358520 0.946380 0.906940 -0.628633
O13   O     O_R   0.641530 0.590130 0.550740 -0.613844
O14   O     O_R   0.539390 0.590760 0.449230 -0.618821
O15   O     O_R   0.551070 0.408650 0.459720 -0.621684
O16   O     O_R   0.448930 0.409280 0.358210 -0.610902
O17   O     O_R   0.460650 0.048500 0.906910 -0.619031
O18   O     O_2   0.013162 0.799338 0.559520 -0.337919
O19   O     O_2   0.120642 0.807623 0.511451 -0.274002
O20   O     O_3   0.110872 0.735259 0.607982 -0.599296
O21   O     O_2   0.177695 0.194443 0.336612 -0.282867
O22   O     O_2   0.248708 0.125425 0.401497 -0.310810
O23   O     O_R   0.551120 0.956920 0.905770 -0.617594
O24   O     O_3   0.083546 0.038483 0.302113 -0.531630
O25   O     O_R   0.449000 0.854790 0.905800 -0.629801
O26   O     O_R   0.641600 0.047410 0.086710 -0.614319
O27   O     O_R   0.539480 0.945290 0.086740 -0.616734
O28   O     O_R   0.551130 0.138990 0.087850 -0.626522
O29   O     O_R   0.449000 0.036870 0.087880 -0.611667
O30   O     O_R   0.909540 0.051950 0.461490 -0.625753
S1    S     S_3+6 0.102570 0.813068 0.585246 0.024249
S2    S     S_3+6 0.170234 0.136103 0.376657 0.036168
Zn1   Zn    Zn3+2 0.568200 0.499580 0.567780 0.975946
Zn2   Zn    Zn3+2 0.431800 0.500420 0.432220 0.989900
Zn3   Zn    Zn3+2 0.568250 0.065080 0.996810 0.972917
Zn4   Zn    Zn3+2 0.431870 0.928710 0.996840 0.971351
Zn5   Zn    Zn3+2 0.000000 0.068630 0.568630 0.966825
Zn6   Zn    Zn3+2 0.000000 0.931370 0.431370 1.102481

loop_
_geom_bond_atom_site_label_1
_geom_bond_atom_site_label_2
_ccdc_geom_bond_type
C18   O2    A    
C30   H9    S    
C8    H24   S    
O8    Zn5   S    
C28   O16   A    
O16   Zn2   S    
C32   H3    S    
C19   O3    A    
C35   C36   A    
C31   H10   S    
C3    C6    S    
C15   O26   A    
H18   O20   S    
O13   Zn1   S    
C12   C23   A    
O30   Zn5   S    
O12   Zn4   S    
C36   C37   A    
C15   O27   A    
C38   C39   A    
C27   C29   D    
C5    H21   S    
C1    C2    S    
C6    H22   S    
C12   C37   A    
C14   C39   S    
C20   C24   S    
C8    C9    D    
C22   C25   S    
O11   Zn2   S    
C25   H5    S    
C14   O25   A    
O17   Zn3   S    
H19   O24   S    
C26   H6    S    
C40   C42   S    
C13   O12   A    
C12   C32   A    
O10   Zn1   S    
O25   Zn4   S    
O22   S2    D    
O19   S1    D    
C29   H8    S    
C33   H11   S    
C1    O4    A    
C40   H16   S    
O21   S2    D    
C35   H13   S    
O29   Zn4   S    
C19   O5    A    
C4    O11   A    
C2    H12   S    
C18   C29   S    
C4    C23   S    
C27   C30   S    
C25   C26   D    
C1    O1    A    
C7    C28   S    
C20   O7    A    
C9    H25   S    
C4    O10   A    
C36   H14   S    
C7    H23   S    
C38   H15   S    
C11   C16   S    
C21   O8    A    
C23   C34   A    
C16   O14   A    
O14   Zn2   S    
C41   S2    S    
C20   O6    A    
C11   H2    S    
C17   O28   A    
O18   S1    D    
C40   C41   D    
O26   Zn3   S    
O1    Zn1   S    
O3    Zn5   S    
O2    Zn6   S    
C22   C24   D    
C13   C26   S    
C13   O17   A    
O27   Zn4   S    
O24   S2    S    
C3    H20   S    
O9    Zn6   S    
C22   S1    S    
O15   Zn1   S    
C34   C38   A    
C34   H1    S    
O23   Zn3   S    
C3    C5    D    
C42   H17   S    
C15   C31   S    
C6    C7    D    
C10   H26   S    
C24   H4    S    
C32   C33   A    
C37   C39   A    
O6    Zn5   S    
C9    C21   S    
O5    Zn6   S    
C30   C31   D    
O4    Zn2   S    
C2    C42   D    
C16   O13   A    
C33   C35   A    
C14   O23   A    
O20   S1    S    
C10   C11   D    
C27   H7    S    
C5    C17   S    
O7    Zn6   S    
C8    C10   S    
O28   Zn3   S    
C21   O9    A    
C18   O30   A    
C17   O29   A    
C19   C41   S    
C28   O15   A    
