data_mof_unit_41453.cif
_audit_creation_date              2012-10-26T19:59:12-0400
_audit_creation_method            fapswitch 2.2
_symmetry_space_group_name_H-M    P1
_symmetry_Int_Tables_number       1
_space_group_crystal_system       triclinic
_cell_length_a                    7.447309
_cell_length_b                    8.694786
_cell_length_c                    15.775479
_cell_angle_alpha                 94.248478
_cell_angle_beta                  74.971843
_cell_angle_gamma                 103.160387
_cell_volume                      960.535093458

loop_
_atom_site_label
_atom_site_type_symbol
_atom_type_description
_atom_site_fract_x
_atom_site_fract_y
_atom_site_fract_z
_atom_type_partial_charge
C1    C     C_R   0.545058 0.800103 0.502599 0.550231
C2    C     C_R   0.616076 0.512166 0.333738 0.536816
C3    C     C_R   0.311960 0.460939 0.760861 0.001239
C4    C     C_R   0.686458 0.532551 0.238599 -0.029682
C5    C     C_R   0.079127 0.327510 0.884604 -0.112557
C6    C     C_R   0.917835 0.656793 0.111949 -0.124847
C7    C     C_R   0.134028 0.363855 0.795738 -0.088850
C8    C     C_R   0.864995 0.626507 0.201510 -0.120384
C9    C     C_R   0.434600 0.518468 0.815101 -0.132175
C10   C     C_R   0.562255 0.469929 0.185679 -0.083352
C11   C     C_R   0.393569 0.464989 0.901422 0.003130
C12   C     C_R   0.454940 0.199897 0.497404 0.544512
C13   C     C_R   0.601793 0.514988 0.097785 0.031947
C14   C     C_R   0.206990 0.378992 0.937766 0.004929
C15   C     C_R   0.788263 0.601306 0.059956 -0.024627
C16   C     C_R   0.529558 0.499658 0.953260 -0.025542
C17   C     C_R   0.465330 0.473352 0.045822 0.033728
C18   C     C_R   0.267122 0.410737 0.082718 0.227736
C19   C     C_R   0.728091 0.559708 0.916047 0.213116
C20   C     C_R   0.146018 0.352901 0.027389 -0.121883
C21   C     C_R   0.848322 0.622772 0.969874 -0.070822
C22   C     C_2   0.570385 0.968023 0.503852 -0.153735
C23   C     C_2   0.429608 0.031980 0.496159 -0.153033
C24   C     C_R   0.383736 0.486843 0.666217 0.542111
Cu1   Cu    Cu3+1 0.322120 0.483240 0.490330 0.975874
Cu2   Cu    Cu3+1 0.677880 0.516760 0.509670 0.965979
H1    H     H_    0.998254 0.297479 0.055471 0.101321
H2    H     H_    0.293932 0.960629 0.488899 0.136459
H3    H     H_    0.003644 0.615157 0.568997 0.249430
H4    H     H_    0.996354 0.384837 0.431004 0.246009
H5    H     H_    0.052261 0.364768 0.186225 0.323577
H6    H     H_    0.752836 0.443946 0.806567 0.321888
H7    H     H_    0.995854 0.676193 0.939913 0.147746
H8    H     H_    0.438331 0.382099 0.214728 0.191999
H9    H     H_    0.561852 0.605701 0.788359 0.179010
H10   H     H_    0.963098 0.676004 0.241522 0.157969
H11   H     H_    0.038087 0.316252 0.754455 0.136108
H12   H     H_    0.937231 0.258425 0.911685 0.113189
H13   H     H_    0.059750 0.724322 0.083314 0.125197
H14   H     H_    0.706061 0.039374 0.511112 0.134197
N1    N     N_2   0.945180 0.542040 0.524240 -0.254637
N2    N     N_2   0.054820 0.457960 0.475760 -0.253927
O1    O     O_R   0.384450 0.714270 0.493720 -0.502073
O2    O     O_3   0.814709 0.547279 0.828189 -0.722573
O3    O     O_R   0.615550 0.285730 0.506280 -0.506337
O4    O     O_R   0.684880 0.742590 0.510050 -0.496903
O5    O     O_R   0.315120 0.257410 0.489950 -0.500335
O6    O     O_R   0.265540 0.477900 0.617090 -0.497230
O7    O     O_R   0.734460 0.522100 0.382910 -0.502724
O8    O     O_R   0.565970 0.506210 0.633420 -0.498958
O9    O     O_R   0.434030 0.493790 0.366580 -0.484959
O10   O     O_3   0.189224 0.417316 0.172150 -0.733299

loop_
_geom_bond_atom_site_label_1
_geom_bond_atom_site_label_2
_ccdc_geom_bond_type
Cu1   N2    S    
C2    C4    S    
Cu1   O9    S    
C3    C9    A    
C2    O7    A    
N1    N2    D    
Cu1   O5    S    
C18   C20   A    
Cu1   O6    S    
C13   C17   A    
H5    O10   S    
C4    C8    A    
C22   H14   S    
Cu1   O1    S    
C13   C15   A    
C17   C18   A    
C7    H11   S    
C18   O10   S    
C1    C22   S    
C10   H8    S    
Cu1   Cu2   S    
C23   H2    S    
C9    C11   A    
C12   C23   S    
C5    C14   A    
C16   C17   A    
H3    N1    S    
C12   O5    A    
C20   H1    S    
C3    C7    A    
C6    H13   S    
Cu2   O8    S    
C24   O8    A    
C11   C14   A    
C1    O4    A    
C11   C16   A    
C21   H7    S    
C2    O9    A    
Cu2   O4    S    
C4    C10   A    
C24   O6    A    
C14   C20   A    
C15   C21   A    
C19   O2    S    
H6    O2    S    
C5    C7    A    
C8    H10   S    
Cu2   O7    S    
C9    H9    S    
C22   C23   D    
H4    N2    S    
C6    C8    A    
Cu2   O3    S    
C19   C21   A    
C6    C15   A    
C5    H12   S    
C1    O1    A    
Cu2   N1    S    
C3    C24   S    
C12   O3    A    
C10   C13   A    
C16   C19   A    
