data_mof_unit_20413.cif
_audit_creation_date              2012-12-11T14:25:40-0500
_audit_creation_method            fapswitch 2.2
_symmetry_space_group_name_H-M    P1
_symmetry_Int_Tables_number       1
_space_group_crystal_system       triclinic
_cell_length_a                    6.964033
_cell_length_b                    14.835617
_cell_length_c                    16.107235
_cell_angle_alpha                 90.56504
_cell_angle_beta                  89.859148
_cell_angle_gamma                 90.426021
_cell_volume                      1663.99902901

loop_
_atom_site_label
_atom_site_type_symbol
_atom_type_description
_atom_site_fract_x
_atom_site_fract_y
_atom_site_fract_z
_atom_type_partial_charge
O1    O     O_R   0.494490 0.416160 0.413410 -0.522026
O2    O     O_R   0.823830 0.407240 0.585990 -0.544924
O3    O     O_R   0.994160 0.583840 0.586590 -0.532079
C1    C     C_R   0.653636 0.385754 0.613946 0.744836
O4    O     O_R   0.824200 0.405280 0.414020 -0.558134
O5    O     O_R   0.994530 0.581860 0.413390 -0.532730
C2    C     C_R   0.654253 0.380676 0.388390 0.630611
O6    O     O_R   0.494110 0.418140 0.586610 -0.550223
O7    O     O_3   0.660810 0.557940 0.500000 -0.356746
V1    V     V_3+5 0.935650 0.489250 0.500000 1.430997
O8    O     O_R   0.324250 0.592760 0.414010 -0.541922
C3    C     C_R   0.155944 0.614449 0.385828 0.761667
O9    O     O_R   0.323880 0.594720 0.585980 -0.538934
C4    C     C_R   0.156204 0.614962 0.616330 0.646097
V2    V     V_3+5 0.435660 0.510750 0.500000 1.456917
O10   O     O_3   0.160630 0.442060 0.500000 -0.375611
C5    C     C_3   0.984591 0.659888 0.749325 -0.322562
H1    H     H_    0.849005 0.644287 0.717475 0.176761
H2    H     H_    0.021562 0.596003 0.781072 0.118556
C6    C     C_3   0.956118 0.734613 0.816178 -0.317328
H3    H     H_    0.951238 0.703719 0.878823 0.123648
H4    H     H_    0.815852 0.768134 0.806288 0.159912
H5    H     H_    0.969968 0.889412 0.722398 0.156624
C7    C     C_3   0.127559 0.783238 0.653347 -0.148762
C8    C     C_3   0.335890 0.685086 0.741562 -0.155765
C9    C     C_3   0.148878 0.684503 0.687232 0.040237
H6    H     H_    0.364759 0.616201 0.765018 0.088167
C10   C     C_3   0.121610 0.804824 0.811730 0.085601
C11   C     C_3   0.107522 0.851870 0.726356 -0.356916
C12   C     C_3   0.314130 0.751867 0.816332 -0.345566
H7    H     H_    0.317607 0.713159 0.875146 0.125045
H8    H     H_    0.437712 0.799937 0.819381 0.147555
H9    H     H_    0.260810 0.801948 0.619625 0.112501
H10   H     H_    0.226998 0.901510 0.722142 0.132022
C13   C     C_2   0.986495 0.708953 0.282687 -0.110297
C14   C     C_2   0.151235 0.681897 0.318600 -0.300917
H11   H     H_    0.850919 0.681166 0.304441 0.141208
H12   H     H_    0.288545 0.709077 0.299023 0.127416
C15   C     C_2   0.973527 0.775976 0.214289 -0.134907
C16   C     C_2   0.125867 0.813159 0.175516 -0.308424
H13   H     H_    0.829947 0.794639 0.195069 0.135066
H14   H     H_    0.270445 0.795155 0.193079 0.131494
C17   C     C_2   0.781033 0.203325 0.773232 0.466007
C18   C     C_2   0.622677 0.183380 0.819038 -0.372754
H15   H     H_    0.497762 0.226516 0.815415 0.101642
C19   C     C_2   0.784139 0.287771 0.722387 -0.271760
C20   C     C_2   0.635648 0.313417 0.675683 -0.358676
H16   H     H_    0.918421 0.325042 0.717415 0.131398
H17   H     H_    0.499498 0.277517 0.679318 0.125981
C21   C     C_2   0.764335 0.202405 0.218469 -0.134744
C22   C     C_2   0.617454 0.191050 0.164351 -0.166274
H18   H     H_    0.883106 0.155364 0.216851 0.137536
C23   C     C_2   0.780124 0.278458 0.279260 -0.238458
C24   C     C_2   0.635661 0.302580 0.330808 0.269828
H19   H     H_    0.919073 0.311692 0.284721 0.141237
O11   O     O_R   0.770850 0.076180 0.907410 -0.501730
O12   O     O_R   0.440600 0.088970 0.079950 -0.541241
O13   O     O_R   0.270430 0.912340 0.080550 -0.543528
C25   C     C_R   0.609820 0.113341 0.106095 0.667507
O14   O     O_R   0.441120 0.087010 0.907980 -0.548937
O15   O     O_R   0.270950 0.910370 0.907350 -0.547248
C26   C     C_R   0.611088 0.108991 0.879963 0.775393
O16   O     O_R   0.770320 0.078150 0.080620 -0.539426
O17   O     O_3   0.604200 0.936340 0.994000 -0.382611
V3    V     V_3+5 0.329300 0.004970 0.993950 1.433801
O18   O     O_R   0.941240 0.899420 0.907920 -0.543365
C27   C     C_R   0.110192 0.875179 0.881143 0.672068
O19   O     O_R   0.940720 0.901380 0.079890 -0.544036
C28   C     C_R   0.109548 0.879993 0.108252 0.731209
V4    V     V_3+5 0.829310 0.983370 0.993880 1.447015
O20   O     O_3   0.104280 0.052120 0.993920 -0.357363
O21   O     O_3   0.937692 0.144622 0.775946 -0.539690
C29   C     C_3   0.086908 0.167903 0.720010 0.109289
H20   H     H_    0.171548 0.225367 0.745989 0.110360
H21   H     H_    0.031475 0.184817 0.657250 0.119774
C30   C     C_3   0.219566 0.088333 0.707595 -0.740283
H22   H     H_    0.146070 0.036893 0.668354 0.206547
H23   H     H_    0.352608 0.110315 0.675206 0.175380
H24   H     H_    0.258114 0.058858 0.768247 0.240301
C31   C     C_1   0.469186 0.258513 0.155915 0.413587
N1    N     N_1   0.350741 0.312221 0.148946 -0.360849
O22   O     O_3   0.462447 0.255821 0.328436 -0.537478
C32   C     C_3   0.446582 0.201825 0.399831 0.117271
H25   H     H_    0.447119 0.243650 0.457639 0.102099
H26   H     H_    0.566159 0.152404 0.402207 0.111924
C33   C     C_3   0.257632 0.149820 0.396516 -0.696685
H27   H     H_    0.252984 0.106339 0.340000 0.219164
H28   H     H_    0.243413 0.106736 0.452227 0.172192
H29   H     H_    0.135425 0.197498 0.395109 0.216782
C34   C     C_1   0.983963 0.795276 0.587668 0.335240
N2    N     N_1   0.876609 0.805931 0.533940 -0.328416
C35   C     C_1   0.501382 0.713037 0.691712 0.272905
N3    N     N_1   0.623925 0.737883 0.649568 -0.346050

loop_
_geom_bond_atom_site_label_1
_geom_bond_atom_site_label_2
_ccdc_geom_bond_type
C17   O21   S    
C29   H20   S    
O2    C1    A    
C13   C14   D    
C30   H24   S    
C1    O6    A    
C15   H13   S    
C23   C24   D    
C5    C9    S    
H5    C11   S    
C10   C11   S    
C13   H11   S    
C7    C9    S    
O5    C3    A    
C12   H7    S    
C33   H28   S    
O12   C25   A    
V2    O10   S    
C5    C6    S    
O14   C26   A    
C22   C31   S    
C7    C11   S    
O8    V2    S    
O19   C28   A    
C21   H18   S    
V4    O20   S    
O1    V2    S    
O17   V4    S    
C3    C14   S    
O7    V1    S    
C16   H14   S    
O18   C27   A    
O9    C4    A    
C29   H21   S    
C21   C22   D    
C23   H19   S    
C19   H16   S    
C21   C23   S    
C16   C28   S    
C10   C27   S    
C30   H22   S    
C20   H17   S    
O12   V3    S    
C15   C16   D    
O4    C2    A    
C33   H27   S    
C31   N1    T    
C6    C10   S    
C18   C26   S    
C8    C9    S    
V3    O20   S    
C11   H10   S    
C13   C15   S    
C17   C18   D    
O15   C27   A    
O13   V3    S    
C32   H25   S    
O16   V4    S    
C5    H1    S    
C4    C9    S    
O3    C4    A    
C32   H26   S    
C6    H4    S    
O14   V3    S    
O6    V2    S    
O11   V4    S    
O9    V2    S    
C29   C30   S    
O11   C26   A    
C22   C25   S    
O2    V1    S    
C24   O22   S    
C18   H15   S    
C8    C12   S    
C19   C20   D    
C8    C35   S    
O1    C2    A    
C30   H23   S    
O21   C29   S    
C33   H29   S    
C7    C34   S    
O5    V1    S    
O8    C3    A    
O13   C28   A    
C8    H6    S    
C25   O16   A    
C7    H9    S    
O17   V3    S    
C14   H12   S    
O7    V2    S    
O4    V1    S    
O3    V1    S    
V1    O10   S    
C12   H8    S    
C34   N2    T    
O18   V4    S    
C10   C12   S    
C35   N3    T    
C5    H2    S    
C17   C19   S    
O15   V3    S    
C32   C33   S    
C6    H3    S    
O19   V4    S    
O22   C32   S    
C2    C24   S    
C1    C20   S    
