data_mof_unit_35983.cif
_audit_creation_date              2012-12-11T15:28:42-0500
_audit_creation_method            fapswitch 2.2
_symmetry_space_group_name_H-M    P1
_symmetry_Int_Tables_number       1
_space_group_crystal_system       triclinic
_cell_length_a                    6.957123
_cell_length_b                    19.475088
_cell_length_c                    23.341141
_cell_angle_alpha                 95.809782
_cell_angle_beta                  90.658716
_cell_angle_gamma                 89.216421
_cell_volume                      3145.80363078

loop_
_atom_site_label
_atom_site_type_symbol
_atom_type_description
_atom_site_fract_x
_atom_site_fract_y
_atom_site_fract_z
_atom_type_partial_charge
O1    O     O_R   0.617180 0.809390 0.808140 -0.527398
O2    O     O_R   0.382820 0.190610 0.191860 -0.525044
O3    O     O_R   0.293300 0.672410 0.795490 -0.545361
O4    O     O_R   0.706700 0.327590 0.204510 -0.532173
O5    O     O_R   0.117220 0.690610 0.691850 -0.529073
O6    O     O_R   0.882780 0.309390 0.308150 -0.512556
C1    C     C_R   0.463533 0.647398 0.806013 0.745491
C2    C     C_R   0.537018 0.353126 0.194554 0.754591
O7    O     O_R   0.287840 0.807750 0.814460 -0.525920
O8    O     O_R   0.712160 0.192250 0.185540 -0.527559
O9    O     O_R   0.111720 0.826910 0.710960 -0.537539
O10   O     O_R   0.888280 0.173090 0.289040 -0.516685
C3    C     C_R   0.456497 0.830660 0.833244 0.713835
C4    C     C_R   0.543513 0.169323 0.166765 0.712096
O11   O     O_R   0.622680 0.673080 0.789040 -0.530203
O12   O     O_R   0.377320 0.326920 0.210960 -0.546031
O13   O     O_3   0.448820 0.756130 0.716020 -0.352657
O14   O     O_3   0.551180 0.243870 0.283980 -0.347929
V1    V     V_3+5 0.176220 0.748860 0.756300 1.384950
V2    V     V_3+5 0.823780 0.251140 0.243700 1.417112
O15   O     O_R   0.781670 0.827580 0.704500 -0.521612
O16   O     O_R   0.218330 0.172420 0.295500 -0.537882
C5    C     C_R   0.949298 0.852523 0.695030 0.755529
C6    C     C_R   0.051189 0.147492 0.305046 0.753799
O17   O     O_R   0.787130 0.692240 0.685530 -0.515121
O18   O     O_R   0.212870 0.307760 0.314470 -0.532366
C7    C     C_R   0.956283 0.669844 0.666427 0.720087
C8    C     C_R   0.043847 0.330185 0.333556 0.712374
V3    V     V_3+5 0.675510 0.751130 0.743690 1.429877
V4    V     V_3+5 0.324490 0.248870 0.256310 1.399487
O19   O     O_3   0.952780 0.743870 0.783980 -0.368233
O20   O     O_3   0.047220 0.256130 0.216020 -0.369794
C9    C     C_1   0.967178 0.617972 0.614235 -0.219350
C10   C     C_1   0.033514 0.382118 0.385716 -0.219664
C11   C     C_1   0.978914 0.574259 0.571542 -0.001124
C12   C     C_1   0.022195 0.425859 0.428401 -0.000237
C13   C     C_1   0.994153 0.522093 0.521186 -0.007018
C14   C     C_1   0.007203 0.478037 0.478756 -0.006294
C15   C     C_R   0.958513 0.914834 0.664401 -0.065776
C16   C     C_R   0.050208 0.085072 0.335799 -0.076607
C17   C     C_R   0.013892 0.037894 0.669321 0.210889
C18   C     C_R   0.130608 0.963279 0.334991 0.220180
C19   C     C_R   0.999447 0.977441 0.696246 -0.288140
C20   C     C_R   0.124107 0.023967 0.307763 -0.261597
C21   C     C_R   0.936129 0.911365 0.604132 0.135005
C22   C     C_R   0.986347 0.087116 0.392981 0.132006
C23   C     C_R   0.979360 0.970575 0.574769 -0.010031
C24   C     C_R   0.021611 0.028843 0.424900 -0.003800
C25   C     C_R   0.004080 0.034922 0.608692 0.113103
C26   C     C_R   0.080914 0.965546 0.393730 0.097065
C27   C     C_R   0.005270 0.968513 0.513630 0.080164
C28   C     C_R   0.007336 0.031078 0.486444 0.082349
C29   C     C_R   0.023694 0.093503 0.522058 -0.231518
C30   C     C_R   0.057331 0.906992 0.480328 -0.219513
C31   C     C_R   0.025064 0.095261 0.581601 -0.157700
C32   C     C_R   0.097077 0.905731 0.422169 -0.165662
H1    H     H_    0.045912 0.144719 0.606433 0.166232
H2    H     H_    0.144578 0.857132 0.399802 0.155776
H3    H     H_    0.170985 0.023198 0.263558 0.115876
H4    H     H_    0.015240 0.979721 0.742671 0.120394
H5    H     H_    0.054247 0.141349 0.504863 0.137417
H6    H     H_    0.086657 0.859962 0.499542 0.137939
C33   C     C_R   0.477581 0.582512 0.835422 -0.211036
C34   C     C_R   0.529325 0.418468 0.165494 -0.209866
C35   C     C_R   0.546318 0.457541 0.830623 0.391347
C36   C     C_R   0.570367 0.544663 0.171130 0.389085
C37   C     C_R   0.501826 0.517959 0.802833 0.322050
C38   C     C_R   0.539559 0.483233 0.198391 0.317588
C39   C     C_R   0.486453 0.585866 0.895737 -0.260211
C40   C     C_R   0.539813 0.415708 0.105330 -0.236308
C41   C     C_R   0.540141 0.527652 0.925043 -0.012578
C42   C     C_R   0.567777 0.475765 0.076351 -0.011771
C43   C     C_R   0.560564 0.462314 0.892198 -0.141247
C44   C     C_R   0.576752 0.541012 0.109508 -0.148988
C45   C     C_R   0.572976 0.532841 0.986395 -0.121266
C46   C     C_R   0.585801 0.472090 0.014820 -0.121190
C47   C     C_R   0.637953 0.410053 0.981342 0.295204
C48   C     C_R   0.613963 0.596268 0.019732 0.311306
C49   C     C_R   0.606225 0.402718 0.920766 0.380846
C50   C     C_R   0.603076 0.601611 0.080925 0.378699
H7    H     H_    0.525185 0.365495 0.081594 0.173993
H8    H     H_    0.454281 0.635229 0.919258 0.181043
C51   C     C_1   0.467171 0.882622 0.885345 -0.224399
C52   C     C_1   0.532909 0.117287 0.114702 -0.222019
C53   C     C_1   0.478698 0.926121 0.928189 -0.007832
C54   C     C_1   0.521512 0.073718 0.071895 -0.004553
C55   C     C_1   0.493705 0.977984 0.978758 -0.006850
C56   C     C_1   0.506602 0.021809 0.021349 -0.007405
O21   O     O_3   0.746326 0.360739 0.006446 -0.577891
C57   C     C_3   0.931760 0.387392 0.020662 0.102319
H9    H     H_    0.926392 0.426646 0.058700 0.133223
H10   H     H_    0.994417 0.412469 0.984398 0.062096
C58   C     C_3   0.067923 0.329066 0.034498 -0.358861
H11   H     H_    0.062697 0.286484 0.999271 0.204413
H12   H     H_    0.216976 0.348733 0.037484 0.156171
C59   C     C_3   0.017513 0.301363 0.091161 -0.606672
H13   H     H_    0.027818 0.343086 0.127195 0.210503
H14   H     H_    0.120149 0.259302 0.099586 0.194188
H15   H     H_    0.869611 0.280406 0.089057 0.227454
O22   O     O_3   0.679299 0.652109 0.993476 -0.572779
C60   C     C_3   0.863282 0.636555 0.969088 0.094922
H16   H     H_    0.850067 0.604980 0.926965 0.135202
H17   H     H_    0.957328 0.607224 0.997244 0.060061
C61   C     C_3   0.966502 0.702958 0.958711 -0.333809
H18   H     H_    0.006534 0.731484 0.000412 0.190573
H19   H     H_    0.101311 0.689269 0.934844 0.150297
C62   C     C_3   0.842982 0.749715 0.924217 -0.630570
H20   H     H_    0.792056 0.720580 0.883831 0.230630
H21   H     H_    0.929137 0.794095 0.913326 0.195508
H22   H     H_    0.716818 0.769942 0.949664 0.221674
N1    N     N_3   0.866446 0.144740 0.414034 -0.670099
H23   H     H_    0.775853 0.132217 0.446704 0.245105
H24   H     H_    0.952521 0.186886 0.427885 0.208147
N2    N     N_3   0.845512 0.850938 0.575962 -0.679728
H25   H     H_    0.775283 0.861376 0.537948 0.245830
H26   H     H_    0.947699 0.811328 0.568385 0.209612
N3    N     N_3   0.044770 0.102142 0.703768 -0.694633
H27   H     H_    0.930770 0.110510 0.732548 0.227745
H28   H     H_    0.171088 0.097546 0.727871 0.233679
N4    N     N_3   0.194336 0.899711 0.303701 -0.680334
H29   H     H_    0.243631 0.908352 0.262917 0.230404
H30   H     H_    0.074378 0.868052 0.296879 0.219394
O23   O     O_3   0.568984 0.338647 0.890387 -0.572449
C63   C     C_3   0.702021 0.284414 0.897394 0.138044
H31   H     H_    0.645849 0.238316 0.870864 0.113592
H32   H     H_    0.704306 0.268075 0.941361 0.161391
C64   C     C_3   0.902653 0.297704 0.874508 -0.303221
H33   H     H_    0.890296 0.312706 0.829975 0.231967
H34   H     H_    0.972208 0.340461 0.901521 0.185699
C65   C     C_3   0.029472 0.232913 0.873809 -0.868696
H35   H     H_    0.025153 0.210900 0.915794 0.229949
H36   H     H_    0.180512 0.245713 0.865319 0.247509
H37   H     H_    0.979610 0.193254 0.839497 0.230828
O24   O     O_3   0.571589 0.665202 0.112842 -0.570303
C66   C     C_3   0.712806 0.716158 0.108350 0.147505
H38   H     H_    0.673448 0.760177 0.140268 0.118935
H39   H     H_    0.704852 0.738579 0.066732 0.162197
C67   C     C_3   0.918174 0.693659 0.123557 -0.324128
H40   H     H_    0.919995 0.672075 0.165756 0.236179
H41   H     H_    0.971464 0.653099 0.090732 0.177483
C68   C     C_3   0.053880 0.755152 0.127010 -0.861811
H42   H     H_    0.030128 0.786534 0.090435 0.225905
H43   H     H_    0.205237 0.736661 0.125758 0.257172
H44   H     H_    0.029966 0.789007 0.167566 0.231661
O25   O     O_3   0.542652 0.486183 0.257944 -0.591435
C69   C     C_3   0.359162 0.474212 0.281623 0.032745
H45   H     H_    0.357740 0.502612 0.325353 0.145874
H46   H     H_    0.347335 0.419418 0.288922 0.158260
C70   C     C_3   0.180642 0.497545 0.247723 -0.414226
H47   H     H_    0.206438 0.547963 0.231716 0.198596
H48   H     H_    0.152045 0.459623 0.209809 0.190762
C71   C     C_3   0.001075 0.505056 0.284716 -0.732186
H49   H     H_    0.943841 0.453639 0.291032 0.237072
H50   H     H_    0.889832 0.533924 0.262409 0.274080
H51   H     H_    0.031203 0.534415 0.327094 0.215077
O26   O     O_3   0.502186 0.514295 0.743207 -0.590223
C72   C     C_3   0.316613 0.525791 0.718880 0.033528
H52   H     H_    0.317377 0.498375 0.674776 0.147512
H53   H     H_    0.297434 0.580866 0.712462 0.154377
C73   C     C_3   0.142462 0.500165 0.751484 -0.408390
H54   H     H_    0.175057 0.449413 0.766703 0.197738
H55   H     H_    0.110272 0.536894 0.789873 0.194023
C74   C     C_3   0.962541 0.492567 0.713630 -0.730989
H56   H     H_    0.900537 0.543962 0.707457 0.234586
H57   H     H_    0.854223 0.463227 0.735115 0.274208
H58   H     H_    0.994426 0.463762 0.671213 0.214506
O27   O     O_3   0.628734 0.399277 0.799890 -0.564589
C75   C     C_3   0.510234 0.365189 0.756236 0.108001
H59   H     H_    0.605376 0.329391 0.729053 0.128547
H60   H     H_    0.448194 0.399075 0.725909 0.158113
C76   C     C_3   0.354567 0.321331 0.780176 -0.314704
H61   H     H_    0.424056 0.277467 0.799520 0.219428
H62   H     H_    0.270688 0.352657 0.813820 0.204507
C77   C     C_3   0.217884 0.291751 0.732510 -0.861162
H63   H     H_    0.139993 0.333926 0.713023 0.238766
H64   H     H_    0.110762 0.258418 0.750603 0.254603
H65   H     H_    0.299048 0.259995 0.698465 0.240649
O28   O     O_3   0.647190 0.603376 0.202153 -0.565369
C78   C     C_3   0.529798 0.635612 0.246696 0.108557
H66   H     H_    0.622961 0.671975 0.273796 0.128550
H67   H     H_    0.477453 0.600657 0.276849 0.159286
C79   C     C_3   0.364037 0.678222 0.224045 -0.304576
H68   H     H_    0.423257 0.723661 0.205540 0.220739
H69   H     H_    0.282633 0.646696 0.189944 0.204116
C80   C     C_3   0.227194 0.704245 0.272445 -0.866059
H70   H     H_    0.162774 0.660247 0.291808 0.239226
H71   H     H_    0.109246 0.735268 0.255148 0.242057
H72   H     H_    0.305188 0.737287 0.306431 0.244545

loop_
_geom_bond_atom_site_label_1
_geom_bond_atom_site_label_2
_ccdc_geom_bond_type
C66   C67   S    
C36   C38   A    
C76   H61   S    
C72   H52   S    
N2    H26   S    
N3    H27   S    
C62   H21   S    
C74   H56   S    
C4    C52   S    
C55   C56   T    
V1    O19   S    
C61   H19   S    
N2    H25   S    
C80   H70   S    
C50   O24   S    
C66   H38   S    
C23   C25   A    
C28   C29   A    
C16   C22   A    
C76   H62   S    
C47   O21   S    
C60   H16   S    
C34   C38   A    
O26   C72   S    
C11   C13   S    
C52   C54   T    
O3    C1    A    
C70   H48   S    
O25   C69   S    
C9    C11   T    
C54   C56   S    
C75   H60   S    
C80   H71   S    
C70   H47   S    
C20   H3    S    
O12   V4    S    
C36   C44   A    
C59   H15   S    
C35   C43   A    
O10   C6    A    
C21   C23   A    
O4    C2    A    
C39   C41   A    
C40   H7    S    
O7    C3    A    
C77   H63   S    
C39   H8    S    
C6    C16   S    
O5    C7    A    
C29   H5    S    
C21   N2    S    
O7    V1    S    
C75   C76   S    
O6    C8    A    
C33   C39   A    
O8    V2    S    
C35   C37   A    
C59   H14   S    
C62   H20   S    
O3    V1    S    
O14   V4    S    
C34   C40   A    
V4    O20   S    
C10   C12   T    
C42   C46   A    
C15   C21   A    
C78   C79   S    
C24   C26   A    
C8    C10   S    
C2    O12   A    
C44   C50   A    
C22   N1    S    
C17   C19   A    
C18   C20   A    
C17   C25   A    
C61   H18   S    
N4    H30   S    
O11   V3    S    
C69   H46   S    
C29   C31   A    
O15   C5    A    
O17   V3    S    
C76   C77   S    
C33   C37   A    
C53   C55   S    
C27   C28   A    
C73   C74   S    
O28   C78   S    
O23   C63   S    
C74   H58   S    
C47   C49   A    
C46   C47   A    
C42   C44   A    
O8    C4    A    
C68   H44   S    
O27   C75   S    
C41   C43   A    
C79   H69   S    
C80   H72   S    
C23   C27   A    
C1    O11   A    
C30   H6    S    
C25   C31   A    
C49   O23   S    
C26   C32   A    
C37   O26   S    
C68   H43   S    
C73   H55   S    
C72   H53   S    
C65   H36   S    
C45   C46   A    
C64   H34   S    
C13   C14   T    
C69   C70   S    
C36   O28   S    
C57   H10   S    
C71   H51   S    
C24   C28   A    
O9    V1    S    
C59   H13   S    
O10   V2    S    
O1    V3    S    
C43   C49   A    
C48   C50   A    
N1    H24   S    
C58   H11   S    
C77   H65   S    
C1    C33   S    
C67   H41   S    
C19   H4    S    
C18   C26   A    
C63   C64   S    
C75   H59   S    
C51   C53   T    
C2    C34   S    
C58   C59   S    
O18   V4    S    
C72   C73   S    
C31   H1    S    
C48   O22   S    
C62   H22   S    
O16   C6    A    
C70   C71   S    
C65   H37   S    
O1    C3    A    
C64   H33   S    
N4    H29   S    
C57   C58   S    
C63   H32   S    
C69   H45   S    
V2    O20   S    
C66   H39   S    
C3    C51   S    
O16   V4    S    
N1    H23   S    
C74   H57   S    
C71   H50   S    
C67   C68   S    
C15   C19   A    
C30   C32   A    
O24   C66   S    
O5    V1    S    
O17   C7    A    
O6    V2    S    
C35   O27   S    
O18   C8    A    
O2    V4    S    
C27   C30   A    
C73   H54   S    
N3    H28   S    
C65   H35   S    
C64   C65   S    
V3    O19   S    
O13   V3    S    
C12   C14   S    
C41   C45   A    
C18   N4    S    
C57   H9    S    
C58   H12   S    
O15   V3    S    
C5    C15   S    
O9    C5    A    
O22   C60   S    
O13   V1    S    
C32   H2    S    
O14   V2    S    
O2    C4    A    
C45   C48   A    
C77   H64   S    
C67   H40   S    
C78   H66   S    
O4    V2    S    
C22   C24   A    
C16   C20   A    
C71   H49   S    
C60   H17   S    
C7    C9    S    
C40   C42   A    
C60   C61   S    
C17   N3    S    
O21   C57   S    
C68   H42   S    
C79   C80   S    
C61   C62   S    
C38   O25   S    
C79   H68   S    
C63   H31   S    
C78   H67   S    
