data_mof_unit_68008.cif
_audit_creation_date              2012-12-11T15:59:24-0500
_audit_creation_method            fapswitch 2.2
_symmetry_space_group_name_H-M    P1
_symmetry_Int_Tables_number       1
_space_group_crystal_system       triclinic
_cell_length_a                    10.812248
_cell_length_b                    10.856845
_cell_length_c                    17.065479
_cell_angle_alpha                 99.319773
_cell_angle_beta                  99.756296
_cell_angle_gamma                 61.737117
_cell_volume                      1731.20499719

loop_
_atom_site_label
_atom_site_type_symbol
_atom_type_description
_atom_site_fract_x
_atom_site_fract_y
_atom_site_fract_z
_atom_type_partial_charge
C1    C     C_R   0.381786 0.708758 0.387964 0.543470
C2    C     C_R   0.849079 0.310955 0.331574 -0.012713
C3    C     C_R   0.338846 0.801886 0.149724 -0.014824
C4    C     C_R   0.370642 0.346732 0.357855 0.525475
C5    C     C_R   0.472205 0.758689 0.192701 -0.050718
C6    C     C_R   0.479358 0.755625 0.275489 -0.074431
C7    C     C_R   0.265279 0.726187 0.250267 -0.036912
C8    C     C_R   0.239094 0.771799 0.176169 0.211240
C9    C     C_R   0.598052 0.714552 0.156809 0.263935
C10   C     C_R   0.724476 0.684872 0.206440 -0.121861
C11   C     C_R   0.722769 0.709116 0.289405 -0.060507
C12   C     C_R   0.809561 0.234609 0.191689 -0.020616
C13   C     C_R   0.596243 0.762935 0.322333 0.022099
C14   C     C_R   0.374382 0.735682 0.305192 -0.072917
C15   C     C_R   0.312409 0.320995 0.808424 -0.038953
C16   C     C_R   0.777414 0.373354 0.404329 0.530213
C17   C     C_R   0.428339 0.219289 0.767149 -0.083695
C18   C     C_R   0.404213 0.194533 0.684764 -0.018995
C19   C     C_R   0.193100 0.411103 0.678629 -0.066759
C20   C     C_R   0.189341 0.414909 0.761367 -0.062958
C21   C     C_R   0.560345 0.127390 0.804154 0.032163
C22   C     C_R   0.632309 0.990515 0.768731 0.226458
C23   C     C_R   0.813368 0.218579 0.272813 0.032060
C24   C     C_R   0.580259 0.952976 0.692751 -0.071114
C25   C     C_R   0.473161 0.056363 0.647529 0.255117
C26   C     C_R   0.312348 0.310021 0.643527 -0.016753
C27   C     C_1   0.818242 0.342087 0.708711 -0.038144
C28   C     C_R   0.379439 0.719055 0.631814 0.549088
C29   C     C_1   0.846908 0.312739 0.776281 -0.047279
C30   C     C_1   0.357855 0.769879 0.713909 -0.055124
C31   C     C_1   0.324706 0.816362 0.780549 -0.063151
C32   C     C_R   0.904224 0.304185 0.091445 0.533367
C33   C     C_R   0.318404 0.297189 0.120141 0.531793
C34   C     C_R   0.930073 0.366254 0.312014 -0.171212
C35   C     C_R   0.294228 0.886923 0.082798 0.582114
C36   C     C_R   0.889830 0.295705 0.858506 0.552163
C37   C     C_R   0.303058 0.289528 0.888648 0.529235
C38   C     C_R   0.278984 0.884390 0.857204 0.531273
C39   C     C_R   0.367180 0.345335 0.581953 0.531720
C40   C     C_R   0.772224 0.381647 0.629689 0.528939
C41   C     C_1   0.344034 0.333615 0.274429 -0.024245
C42   C     C_1   0.332231 0.322635 0.203519 -0.035955
C43   C     C_R   0.872210 0.312693 0.172200 0.001632
C44   C     C_1   0.848868 0.675803 0.343892 0.192308
C45   C     C_R   0.942837 0.366621 0.233069 -0.146686
C46   C     C_1   0.576739 0.873958 0.385557 0.242323
C47   C     C_1   0.070050 0.490112 0.625338 0.184987
C48   C     C_1   0.625681 0.176170 0.874243 0.225676
C49   C     C_1   0.057482 0.508713 0.793901 0.211932
C50   C     C_3   0.871414 0.897139 0.788359 0.018128
C51   C     C_3   0.896567 0.840226 0.701492 -0.302055
C52   C     C_3   0.043416 0.801781 0.685459 -0.434707
C53   C     C_3   0.303225 0.057670 0.542258 0.037001
C54   C     C_3   0.247996 0.158751 0.476197 -0.258244
C55   C     C_3   0.193325 0.103138 0.398302 -0.460820
C56   C     C_R   0.747378 0.168772 0.132191 -0.107468
C57   C     C_3   0.928008 0.951115 0.378700 0.009453
C58   C     C_3   0.944166 0.918984 0.465158 -0.211857
C59   C     C_3   0.972747 0.024649 0.525912 -0.391125
C60   C     C_1   0.175709 0.669830 0.265205 0.244220
C61   C     C_3   0.567488 0.586783 0.039819 0.030714
C62   C     C_3   0.554635 0.580455 0.948601 -0.232633
C63   C     C_3   0.432620 0.550720 0.908906 -0.471215
C64   C     C_3   0.117062 0.692654 0.075126 0.032136
C65   C     C_3   0.995786 0.749057 0.008284 -0.234539
C66   C     C_3   0.865653 0.739367 0.023293 -0.387310
C67   C     C_R   0.710824 0.071190 0.150093 -0.127171
C68   C     C_R   0.730304 0.040711 0.228045 -0.081319
C69   C     C_R   0.783442 0.110305 0.289646 0.296577
Cr1   Cr    Cr6+3 0.608100 0.610860 0.522250 1.056791
Cr2   Cr    Cr6+3 0.288890 0.599990 0.488420 0.996007
Cr3   Cr    Cr6+3 0.603040 0.289190 0.489390 1.057111
Cr4   Cr    Cr6+3 0.053960 0.052250 0.967380 1.011487
Cr5   Cr    Cr6+3 0.059890 0.373160 0.992710 0.991647
Cr6   Cr    Cr6+3 0.373370 0.061690 0.991710 1.042639
H1    H     H_    0.983504 0.408383 0.358833 0.172609
H2    H     H_    0.878900 0.746363 0.688079 0.214882
H3    H     H_    0.822067 0.920663 0.660787 0.145447
H4    H     H_    0.060129 0.896684 0.696541 0.160893
H5    H     H_    0.052340 0.760904 0.621863 0.200014
H6    H     H_    0.122701 0.718882 0.723323 0.160189
H7    H     H_    0.233384 0.104118 0.591396 0.086078
H8    H     H_    0.297705 0.959058 0.518600 0.203410
H9    H     H_    0.161848 0.261523 0.496635 0.134300
H10   H     H_    0.332920 0.178289 0.462309 0.233878
H11   H     H_    0.264257 0.991277 0.383218 0.180688
H12   H     H_    0.822308 0.646605 0.180486 0.149497
H13   H     H_    0.187878 0.161151 0.348953 0.149246
H14   H     H_    0.086940 0.118972 0.404334 0.142265
H15   H     H_    0.019809 0.961727 0.367072 0.141148
H16   H     H_    0.925468 0.863104 0.337398 0.158072
H17   H     H_    0.845980 0.919342 0.476887 0.182342
H18   H     H_    0.032297 0.812828 0.474127 0.189848
H19   H     H_    0.926592 0.129155 0.503597 0.198959
H20   H     H_    0.087367 0.987150 0.539551 0.134753
H21   H     H_    0.928745 0.035397 0.582234 0.135513
H22   H     H_    0.468434 0.599052 0.057728 0.100628
H23   H     H_    0.632787 0.846357 0.665769 0.168045
H24   H     H_    0.649672 0.484702 0.059284 0.139390
H25   H     H_    0.538662 0.680690 0.930012 0.205918
H26   H     H_    0.654093 0.496478 0.926857 0.178061
H27   H     H_    0.330065 0.640654 0.923116 0.155710
H28   H     H_    0.440953 0.456548 0.931171 0.158468
H29   H     H_    0.434934 0.532834 0.843119 0.143354
H30   H     H_    0.109834 0.611588 0.102687 0.173837
H31   H     H_    0.218520 0.643269 0.047687 0.091517
H32   H     H_    0.965659 0.860194 0.001550 0.207522
H33   H     H_    0.032300 0.687041 0.951087 0.135822
H34   H     H_    0.727341 0.191264 0.071249 0.167884
H35   H     H_    0.886345 0.628152 0.015620 0.202116
H36   H     H_    0.774822 0.798201 0.979898 0.170861
H37   H     H_    0.838271 0.783859 0.084788 0.155667
H38   H     H_    0.007889 0.410077 0.219634 0.160457
H39   H     H_    0.668468 0.017859 0.102949 0.154973
H40   H     H_    0.702530 0.963369 0.241253 0.126056
H41   H     H_    0.963779 0.830740 0.828381 0.183257
H42   H     H_    0.861923 0.004793 0.799026 0.156739
N1    N     N_1   0.946880 0.647735 0.390597 -0.306822
N2    N     N_1   0.567158 0.963268 0.434897 -0.220850
N3    N     N_1   0.974011 0.549897 0.580470 -0.281457
N4    N     N_1   0.677540 0.216254 0.930182 -0.343010
N5    N     N_1   0.950497 0.583219 0.818498 -0.255195
N6    N     N_1   0.102130 0.623995 0.272890 -0.320598
O1    O     O_R   0.749810 0.499790 0.438040 -0.497440
O2    O     O_R   0.411730 0.181020 0.091530 -0.520435
O3    O     O_R   0.365010 0.944360 0.063320 -0.464450
O4    O     O_R   0.477660 0.726260 0.439290 -0.485664
O5    O     O_R   0.159380 0.906670 0.876210 -0.558729
O6    O     O_R   0.930820 0.177420 0.886730 -0.500028
O7    O     O_R   0.910360 0.395420 0.895720 -0.500531
O8    O     O_R   0.186010 0.361730 0.919870 -0.504512
O9    O     O_R   0.400000 0.173010 0.914630 -0.501788
O10   O     O_R   0.354140 0.936940 0.899340 -0.487572
O11   O     O_3   0.162410 0.162370 0.983930 -0.263232
O12   O     O_R   0.298970 0.468800 0.557390 -0.512540
O13   O     O_R   0.260150 0.743000 0.412270 -0.546014
O14   O     O_R   0.297740 0.466550 0.394720 -0.486288
O15   O     O_R   0.488080 0.253500 0.386430 -0.475400
O16   O     O_R   0.722670 0.303800 0.421940 -0.452887
O17   O     O_R   0.751130 0.502220 0.613520 -0.487885
O18   O     O_R   0.478890 0.728510 0.601960 -0.487403
O19   O     O_R   0.261470 0.745430 0.587750 -0.558676
O20   O     O_3   0.752305 0.892402 0.808385 -0.567815
O21   O     O_3   0.447413 0.019873 0.567116 -0.527644
O22   O     O_3   0.800452 0.072905 0.365618 -0.536493
O23   O     O_R   0.489400 0.255930 0.561910 -0.475811
O24   O     O_3   0.601764 0.696136 0.074663 -0.568152
O25   O     O_3   0.106599 0.802769 0.134765 -0.539700
O26   O     O_R   0.723890 0.306050 0.584610 -0.520335
O27   O     O_3   0.500010 0.500010 0.500020 -0.302708
O28   O     O_R   0.171100 0.914680 0.053100 -0.487100
O29   O     O_R   0.941680 0.184840 0.050710 -0.481765
O30   O     O_R   0.922080 0.403420 0.072610 -0.536998
O31   O     O_R   0.196880 0.369150 0.083850 -0.534085

loop_
_geom_bond_atom_site_label_1
_geom_bond_atom_site_label_2
_ccdc_geom_bond_type
Cr1   O4    S    
Cr1   O17   S    
C57   O22   S    
C27   C29   T    
C50   H42   S    
C69   O22   S    
C41   C42   T    
C23   C69   A    
C19   C20   A    
Cr1   O27   S    
C54   H9    S    
Cr6   O11   S    
C7    C8    A    
Cr2   O14   S    
C61   H24   S    
C53   C54   S    
C50   O20   S    
C29   C36   S    
C62   C63   S    
C35   O28   A    
C24   H23   S    
C33   C42   S    
C21   C22   A    
C67   H39   S    
C12   C43   A    
Cr2   O12   S    
C30   C31   T    
C19   C47   S    
C26   C39   S    
Cr2   O27   S    
C4    C41   S    
C21   C48   S    
Cr5   O11   S    
Cr5   O31   S    
C38   O10   A    
C55   H13   S    
C19   C26   A    
C15   C37   S    
C4    O14   A    
C7    C14   A    
C68   C69   A    
C18   C26   A    
C22   O20   S    
C46   N2    T    
C59   H19   S    
C44   N1    T    
C66   H36   S    
C1    O13   A    
C2    C16   S    
C9    C10   A    
C65   H33   S    
C61   C62   S    
C62   H26   S    
C2    C34   A    
Cr3   O15   S    
Cr5   O8    S    
C64   O25   S    
C8    O25   S    
C18   C25   A    
C59   H20   S    
C63   H27   S    
C50   C51   S    
Cr3   O16   S    
C15   C20   A    
Cr4   O6    S    
C10   H12   S    
C57   H15   S    
C67   C68   A    
C64   H30   S    
C24   C25   A    
C63   H28   S    
C3    C8    A    
C48   N4    T    
C33   O31   A    
C39   O12   A    
C37   O9    A    
C58   C59   S    
C9    O24   S    
C17   C21   A    
C37   O8    A    
Cr5   O30   S    
C53   H7    S    
Cr6   O2    S    
C35   O3    A    
C51   H2    S    
C5    C9    A    
C20   C49   S    
C36   O7    A    
C6    C14   A    
C32   O29   A    
C3    C35   S    
C27   C40   S    
Cr1   O1    S    
C33   O2    A    
C17   C18   A    
C11   C44   S    
C34   C45   A    
C45   H38   S    
C66   H35   S    
C43   C45   A    
C12   C56   A    
Cr2   O19   S    
C62   H25   S    
C47   N3    T    
C7    C60   S    
Cr3   O26   S    
Cr3   O27   S    
Cr5   O7    S    
Cr4   O29   S    
C22   C24   A    
C16   O16   A    
C28   O19   A    
C59   H21   S    
C52   H4    S    
C56   H34   S    
Cr2   O13   S    
Cr6   O9    S    
C15   C17   A    
C54   C55   S    
Cr1   O18   S    
C57   H16   S    
C58   H18   S    
C61   H22   S    
C1    O4    A    
C63   H29   S    
C3    C5    A    
C54   H10   S    
C38   O5    A    
Cr6   O10   S    
C64   H31   S    
C1    C14   S    
C56   C67   A    
C31   C38   S    
C53   H8    S    
C53   O21   S    
C64   C65   S    
Cr6   O3    S    
C55   H11   S    
C28   C30   S    
C61   O24   S    
C51   H3    S    
C51   C52   S    
C55   H14   S    
C36   O6    A    
C6    C13   A    
C11   C13   A    
C57   C58   S    
C5    C6    A    
Cr3   O23   S    
C49   N5    T    
C40   O17   A    
C39   O23   A    
C32   C43   S    
C40   O26   A    
C50   H41   S    
C16   O1    A    
C52   H6    S    
C10   C11   A    
C68   H40   S    
C4    O15   A    
C32   O30   A    
C25   O21   S    
C12   C23   A    
C60   N6    T    
Cr4   O11   S    
Cr4   O5    S    
C65   C66   S    
C2    C23   A    
C13   C46   S    
C28   O18   A    
C66   H37   S    
C52   H5    S    
C58   H17   S    
C65   H32   S    
Cr4   O28   S    
C34   H1    S    
