data_mof_unit_36412.cif
_audit_creation_date              2012-12-10T20:38:20-0500
_audit_creation_method            fapswitch 2.2
_symmetry_space_group_name_H-M    P1
_symmetry_Int_Tables_number       1
_space_group_crystal_system       triclinic
_cell_length_a                    9.840496
_cell_length_b                    10.677421
_cell_length_c                    16.57983
_cell_angle_alpha                 90.24512
_cell_angle_beta                  84.281256
_cell_angle_gamma                 89.279624
_cell_volume                      1733.22730337

loop_
_atom_site_label
_atom_site_type_symbol
_atom_type_description
_atom_site_fract_x
_atom_site_fract_y
_atom_site_fract_z
_atom_type_partial_charge
C1    C     C_R   0.499977 0.740340 0.497244 0.884822
C2    C     C_R   0.355600 0.572459 0.782272 -0.219403
C3    C     C_R   0.472845 0.694498 0.160313 -0.343788
C4    C     C_R   0.449009 0.647416 0.238900 0.491170
C5    C     C_R   0.646720 0.507810 0.211091 -0.295319
C6    C     C_R   0.667011 0.553157 0.132540 -0.119458
C7    C     C_R   0.577176 0.643228 0.106484 -0.001206
C8    C     C_2   0.465097 0.598367 0.990272 -0.285688
C9    C     C_2   0.569775 0.656894 0.019547 0.505155
C10   C     C_R   0.535451 0.551229 0.263468 -0.123308
C11   C     C_R   0.382809 0.938388 0.474463 0.188064
C12   C     C_R   0.480199 0.499611 0.653696 0.885604
C13   C     C_R   0.503009 0.871692 0.482977 -0.094020
C14   C     C_R   0.628786 0.933640 0.474176 -0.242094
C15   C     C_R   0.629890 0.063063 0.473618 -0.237919
C16   C     C_R   0.505217 0.128915 0.481855 -0.110269
C17   C     C_R   0.384151 0.066280 0.473971 0.127401
C18   C     C_3   0.249052 0.078036 0.523158 -0.470623
C19   C     C_3   0.247523 0.936558 0.524126 -0.535361
C20   C     C_R   0.916558 0.538425 0.567083 0.202235
C21   C     C_R   0.939154 0.449134 0.437326 -0.154187
C22   C     C_R   0.083293 0.449294 0.437244 -0.132232
C23   C     C_R   0.501383 0.259939 0.496731 0.879072
C24   C     C_R   0.059321 0.536239 0.567715 0.134962
C25   C     C_3   0.057208 0.661129 0.607886 -0.589095
C26   C     C_3   0.903650 0.665690 0.604415 0.304086
C27   C     C_R   0.519906 0.507868 0.346745 0.897029
C28   C     C_R   0.467587 0.509580 0.741324 -0.096269
C29   C     C_R   0.574798 0.466125 0.783445 -0.326189
C30   C     C_R   0.576702 0.493765 0.865842 0.570901
C31   C     C_R   0.466717 0.563672 0.905235 0.135827
C32   C     C_R   0.354954 0.598807 0.864274 -0.289915
H1    H     H_    0.657402 0.412298 0.751625 0.168190
H2    H     H_    0.726707 0.110308 0.473453 0.175564
H3    H     H_    0.256133 0.120326 0.584014 0.208664
H4    H     H_    0.169536 0.120069 0.488063 0.205818
H5    H     H_    0.254225 0.897387 0.585681 0.201257
H6    H     H_    0.893812 0.410605 0.386004 0.146187
H7    H     H_    0.146654 0.410872 0.385819 0.144804
H8    H     H_    0.088503 0.655800 0.670327 0.213081
H9    H     H_    0.111623 0.730865 0.568625 0.177944
H10   H     H_    0.870808 0.737498 0.561253 0.068918
H11   H     H_    0.715582 0.436499 0.230441 0.156246
H12   H     H_    0.407326 0.767477 0.139717 0.133327
H13   H     H_    0.271725 0.605814 0.750323 0.161510
H14   H     H_    0.377490 0.569093 0.030757 0.110102
N1    N     N_R   0.857140 0.500860 0.500530 -0.132230
N2    N     N_R   0.142780 0.500820 0.500530 -0.100691
O1    O     O_R   0.385310 0.683210 0.499990 -0.598953
O2    O     O_R   0.614650 0.683240 0.500000 -0.643408
O3    O     O_R   0.371780 0.500000 0.615800 -0.613125
O4    O     O_R   0.601120 0.500040 0.615800 -0.597805
O5    O     O_R   0.385350 0.316760 0.500000 -0.615923
O6    O     O_R   0.614690 0.316790 0.500010 -0.620781
O7    O     O_R   0.398880 0.499960 0.384200 -0.597590
O8    O     O_R   0.628220 0.500000 0.384200 -0.620861
Zn1   Zn    Zn3+2 0.346870 0.499980 0.499990 0.951277
Zn2   Zn    Zn3+2 0.653130 0.500020 0.500010 0.942271
H15   H     H_    0.746974 0.512211 0.090554 0.165627
H16   H     H_    0.725189 0.883586 0.474213 0.163855
H17   H     H_    0.166252 0.898176 0.489587 0.196830
O9    O     O_3   0.353917 0.705215 0.294801 -0.635635
C33   C     C_3   0.220519 0.683942 0.273608 0.099572
H18   H     H_    0.199875 0.581598 0.272620 0.128483
H19   H     H_    0.205675 0.724427 0.213349 0.121054
C34   C     C_3   0.117881 0.747294 0.336670 -0.326066
H20   H     H_    0.129185 0.707325 0.397376 0.235625
H21   H     H_    0.139491 0.849110 0.339058 0.218297
C35   C     C_3   0.971218 0.730123 0.316438 -0.954893
H22   H     H_    0.955326 0.778111 0.258756 0.261648
H23   H     H_    0.899330 0.771172 0.365667 0.264434
H24   H     H_    0.948299 0.629201 0.310335 0.267978
O10   O     O_3   0.832080 0.662507 0.682880 -0.638459
C36   C     C_3   0.736216 0.762578 0.693817 0.117494
H25   H     H_    0.661812 0.739669 0.746363 0.157707
H26   H     H_    0.675363 0.772838 0.641037 0.143988
C37   C     C_3   0.805842 0.885759 0.712693 -0.387289
H27   H     H_    0.845163 0.878878 0.773114 0.227466
H28   H     H_    0.893717 0.903157 0.666846 0.224165
C38   C     C_3   0.706600 0.996816 0.712486 -0.961970
H29   H     H_    0.673955 0.010160 0.650864 0.273377
H30   H     H_    0.757638 0.083290 0.730427 0.267268
H31   H     H_    0.614913 0.981542 0.755735 0.262948
O11   O     O_3   0.682906 0.691689 0.968180 -0.655111
C39   C     C_3   0.720455 0.815622 0.985156 0.045628
H32   H     H_    0.826904 0.827830 0.957347 0.164793
H33   H     H_    0.721772 0.834672 0.051211 0.136953
C40   C     C_3   0.627358 0.909983 0.946938 -0.369641
H34   H     H_    0.616759 0.881121 0.883500 0.235355
H35   H     H_    0.524234 0.910196 0.981053 0.205003
C41   C     C_3   0.684532 0.042196 0.947225 -0.931904
H36   H     H_    0.695660 0.073082 0.010263 0.265291
H37   H     H_    0.613859 0.108036 0.920069 0.276357
H38   H     H_    0.785554 0.045137 0.910849 0.257966
H39   H     H_    0.269438 0.650316 0.895269 0.153356
O12   O     O_3   0.676327 0.443580 0.910786 -0.648158
C42   C     C_3   0.810480 0.467454 0.874918 0.127434
H40   H     H_    0.868037 0.510623 0.922009 0.174430
H41   H     H_    0.815236 0.535639 0.823942 0.179384
C43   C     C_3   0.882854 0.344350 0.847799 -0.397776
H42   H     H_    0.892589 0.284525 0.901679 0.231074
H43   H     H_    0.821996 0.292642 0.805999 0.221492
C44   C     C_3   0.024813 0.367962 0.804967 -0.937268
H44   H     H_    0.017137 0.425173 0.749735 0.276986
H45   H     H_    0.075238 0.277195 0.786679 0.264162
H46   H     H_    0.088732 0.417638 0.846155 0.266910

loop_
_geom_bond_atom_site_label_1
_geom_bond_atom_site_label_2
_ccdc_geom_bond_type
C10   C27   S    
C34   H21   S    
C33   H19   S    
C4    O9    S    
O10   C36   S    
C22   N2    A    
C42   C43   S    
C42   H40   S    
N2    Zn1   S    
C37   H27   S    
C11   C19   S    
O9    C33   S    
C36   H26   S    
C12   C28   S    
C28   C29   A    
C3    C7    A    
C25   H8    S    
O6    Zn2   S    
C30   C31   A    
C27   O7    A    
C37   C38   S    
C34   C35   S    
C15   C16   A    
C29   H1    S    
C26   O10   S    
O1    Zn1   S    
C2    C32   A    
C18   C19   S    
C35   H23   S    
C30   O12   S    
C19   H5    S    
C12   O4    A    
C21   H6    S    
C20   C24   A    
C8    C9    D    
C36   C37   S    
O3    Zn1   S    
C1    O2    A    
C15   H2    S    
C39   H33   S    
C34   H20   S    
C5    H11   S    
C33   C34   S    
C21   C22   A    
C38   H31   S    
C42   H41   S    
C23   O5    A    
C37   H28   S    
C2    H13   S    
C3    H12   S    
C36   H25   S    
O2    Zn2   S    
C24   C25   S    
C38   H30   S    
C25   H9    S    
C41   H36   S    
O5    Zn1   S    
C27   O8    A    
C16   C17   A    
C25   C26   S    
C39   H32   S    
C43   C44   S    
C24   N2    A    
C35   H24   S    
C29   C30   A    
C41   H37   S    
C31   C32   A    
C40   C41   S    
O12   C42   S    
C43   H43   S    
C17   C18   S    
C44   H45   S    
O11   C39   S    
O4    Zn2   S    
C40   H35   S    
C16   C23   S    
O7    Zn1   S    
C1    C13   S    
C4    C10   A    
C3    C4    A    
C12   O3    A    
C26   H10   S    
C23   O6    A    
C18   H3    S    
C39   C40   S    
C7    C9    S    
C11   C17   A    
C8    C31   S    
C6    H15   S    
C38   H29   S    
C6    C7    A    
C14   H16   S    
C5    C10   A    
C41   H38   S    
C11   C13   A    
C18   H4    S    
C5    C6    A    
C20   C26   S    
C19   H17   S    
C22   H7    S    
C43   H42   S    
O8    Zn2   S    
C44   H46   S    
C35   H22   S    
C8    H14   S    
C20   N1    A    
C9    O11   S    
C33   H18   S    
C32   H39   S    
C40   H34   S    
C44   H44   S    
C14   C15   A    
C2    C28   A    
C21   N1    A    
C13   C14   A    
C1    O1    A    
N1    Zn2   S    
