data_mof_unit_30215.cif
_audit_creation_date              2012-12-11T14:04:20-0500
_audit_creation_method            fapswitch 2.2
_symmetry_space_group_name_H-M    P1
_symmetry_Int_Tables_number       1
_space_group_crystal_system       triclinic
_cell_length_a                    19.05746
_cell_length_b                    11.050816
_cell_length_c                    18.768129
_cell_angle_alpha                 90.253796
_cell_angle_beta                  89.996388
_cell_angle_gamma                 89.716885
_cell_volume                      3952.49000468

loop_
_atom_site_label
_atom_site_type_symbol
_atom_type_description
_atom_site_fract_x
_atom_site_fract_y
_atom_site_fract_z
_atom_type_partial_charge
C1    C     C_R   0.240753 0.466147 0.647703 0.554515
C2    C     C_R   0.005519 0.656787 0.568787 -0.028081
C3    C     C_3   0.504260 0.611622 0.646095 -0.424976
C4    C     C_R   0.512927 0.174007 0.419417 -0.042086
C5    C     C_R   0.505518 0.156787 0.568787 -0.028081
C6    C     C_R   0.995074 0.893238 0.428783 -0.072619
C7    C     C_R   0.970389 0.872941 0.573888 -0.087176
C8    C     C_R   0.495073 0.393238 0.428783 -0.072619
C9    C     C_R   0.470388 0.372941 0.573888 -0.087176
C10   C     C_R   0.972447 0.995217 0.466364 0.036163
C11   C     C_R   0.963204 0.986716 0.541163 0.028517
C12   C     C_R   0.472446 0.495217 0.466364 0.036163
C13   C     C_R   0.762042 0.471769 0.355396 0.546590
C14   C     C_R   0.463204 0.486716 0.541163 0.028517
C15   C     C_R   0.992160 0.769543 0.535277 -0.015863
C16   C     C_R   0.000280 0.779051 0.460859 -0.009128
C17   C     C_R   0.492160 0.269543 0.535278 -0.015863
C18   C     C_R   0.500280 0.279051 0.460860 -0.009128
C19   C     C_R   0.020543 0.552956 0.524913 0.025540
C20   C     C_R   0.036241 0.569537 0.452605 0.011637
C21   C     C_R   0.520543 0.052956 0.524913 0.025540
C22   C     C_R   0.536241 0.069537 0.452605 0.011637
C23   C     C_R   0.022334 0.432330 0.550128 -0.072447
C24   C     C_R   0.740753 0.966147 0.647703 0.554515
C25   C     C_R   0.068614 0.476551 0.412661 -0.075301
C26   C     C_R   0.522334 0.932330 0.550128 -0.072447
C27   C     C_R   0.568614 0.976551 0.412661 -0.075301
C28   C     C_R   0.055262 0.341560 0.511013 -0.148188
C29   C     C_R   0.078762 0.363548 0.442320 -0.120523
C30   C     C_R   0.555262 0.841560 0.511013 -0.148189
C31   C     C_R   0.578762 0.863548 0.442320 -0.120523
C32   C     C_2   0.238605 0.896394 0.929011 -0.100919
C33   C     C_2   0.744513 0.926882 0.083272 -0.106464
C34   C     C_2   0.738605 0.396394 0.929011 -0.100919
C35   C     C_R   0.262042 0.971769 0.355396 0.546590
C36   C     C_2   0.244513 0.426882 0.083272 -0.106464
C37   C     C_2   0.247998 0.896279 0.085307 -0.110892
C38   C     C_2   0.744930 0.938869 0.926892 -0.093806
C39   C     C_2   0.747998 0.396279 0.085307 -0.110892
C40   C     C_2   0.244930 0.438869 0.926892 -0.093806
C41   C     C_R   0.227828 0.877263 0.649163 0.558483
C42   C     C_R   0.774192 0.870325 0.354009 0.542480
C43   C     C_R   0.727828 0.377263 0.649163 0.558482
C44   C     C_R   0.274192 0.370325 0.354009 0.542479
C45   C     C_2   0.188668 0.914608 0.049325 -0.162781
C46   C     C_2   0.302724 0.883195 0.544755 -0.169818
C47   C     C_2   0.771630 0.023643 0.970972 -0.148944
C48   C     C_2   0.688668 0.414608 0.049325 -0.162781
C49   C     C_2   0.271631 0.523643 0.970972 -0.148944
C50   C     C_2   0.183522 0.888672 0.973680 -0.150894
C51   C     C_2   0.783869 0.003076 0.046137 -0.164783
C52   C     C_2   0.683521 0.388672 0.973680 -0.150894
C53   C     C_2   0.283869 0.503076 0.046137 -0.164783
C54   C     C_2   0.990500 0.665146 0.916527 -0.111082
C55   C     C_2   0.989063 0.655079 0.073542 -0.092485
C56   C     C_2   0.490500 0.165146 0.916527 -0.111082
C57   C     C_2   0.734074 0.808914 0.470735 -0.147890
C58   C     C_2   0.489063 0.155079 0.073542 -0.092485
C59   C     C_2   0.961024 0.571492 0.029687 -0.150544
C60   C     C_2   0.975428 0.566316 0.953885 -0.164879
C61   C     C_2   0.461024 0.071492 0.029687 -0.150544
C62   C     C_2   0.475428 0.066316 0.953885 -0.164879
C63   C     C_R   0.029740 0.653687 0.644235 0.533248
C64   C     C_R   0.973817 0.656825 0.352216 0.532672
C65   C     C_R   0.529740 0.153687 0.644235 0.533248
C66   C     C_R   0.473817 0.156825 0.352216 0.532672
C67   C     C_R   0.237852 0.470997 0.852610 0.550561
C68   C     C_2   0.802724 0.383194 0.544755 -0.169818
C69   C     C_R   0.760677 0.463319 0.150454 0.554705
C70   C     C_R   0.737852 0.970997 0.852610 0.550561
C71   C     C_R   0.260677 0.963319 0.150454 0.554705
C72   C     C_R   0.225809 0.869990 0.854653 0.549296
C73   C     C_R   0.771557 0.875028 0.148352 0.556795
C74   C     C_R   0.725809 0.369990 0.854653 0.549296
C75   C     C_R   0.271557 0.375028 0.148352 0.556795
C76   C     C_R   0.028158 0.653052 0.849837 0.551650
C77   C     C_R   0.968306 0.651316 0.147694 0.548468
C78   C     C_R   0.528158 0.153052 0.849837 0.551650
C79   C     C_2   0.234074 0.308913 0.470735 -0.147890
C80   C     C_R   0.468306 0.151315 0.147694 0.548468
C81   C     C_2   0.251216 0.932426 0.583400 -0.107793
C82   C     C_2   0.756031 0.898710 0.427455 -0.101878
C83   C     C_2   0.751216 0.432426 0.583400 -0.107793
C84   C     C_2   0.256031 0.398710 0.427455 -0.101878
C85   C     C_2   0.253421 0.923948 0.426865 -0.123820
C86   C     C_2   0.761398 0.905801 0.582227 -0.114183
C87   C     C_2   0.753421 0.423948 0.426865 -0.123820
C88   C     C_2   0.261398 0.405801 0.582227 -0.114183
C89   C     C_2   0.309885 0.914659 0.469747 -0.173539
C90   C     C_R   0.012928 0.674007 0.419417 -0.042086
C91   C     C_2   0.720528 0.830202 0.546706 -0.157923
C92   C     C_2   0.809884 0.414658 0.469747 -0.173538
C93   C     C_2   0.220528 0.330201 0.546706 -0.157923
C94   C     C_3   0.961414 0.109963 0.423966 -0.276854
C95   C     C_3   0.885309 0.152008 0.420496 -0.430414
C96   C     C_3   0.948316 0.095734 0.588272 -0.299551
C97   C     C_3   0.004256 0.111623 0.646096 -0.424976
C98   C     C_3   0.461413 0.609963 0.423967 -0.276854
C99   C     C_3   0.385307 0.652008 0.420497 -0.430414
C100  C     C_3   0.448318 0.595734 0.588273 -0.299552
Cr1   Cr    Cr6+3 0.113970 0.508630 0.747920 1.015112
Cr2   Cr    Cr6+3 0.887700 0.820070 0.250200 1.008574
Cr3   Cr    Cr6+3 0.612300 0.320070 0.749800 1.008094
Cr4   Cr    Cr6+3 0.387700 0.320070 0.250200 1.008573
Cr5   Cr    Cr6+3 0.886030 0.508630 0.252080 1.009333
Cr6   Cr    Cr6+3 0.613970 0.008630 0.747920 1.015112
Cr7   Cr    Cr6+3 0.386030 0.008630 0.252080 1.009333
Cr8   Cr    Cr6+3 0.269200 0.666740 0.749850 1.004977
Cr9   Cr    Cr6+3 0.730800 0.666740 0.250150 1.008892
Cr10  Cr    Cr6+3 0.769200 0.166740 0.749850 1.004977
Cr11  Cr    Cr6+3 0.230800 0.166740 0.250150 1.008892
Cr12  Cr    Cr6+3 0.112300 0.820070 0.749800 1.008095
H1    H     H_    0.362614 0.930176 0.449891 0.165817
H2    H     H_    0.725265 0.852667 0.945608 0.095342
H3    H     H_    0.791246 0.345234 0.062043 0.095358
H4    H     H_    0.225265 0.352667 0.945608 0.095342
H5    H     H_    0.291750 0.912660 0.947386 0.086334
H6    H     H_    0.696381 0.890038 0.061197 0.110114
H7    H     H_    0.791750 0.412660 0.947386 0.086334
H8    H     H_    0.196381 0.390038 0.061197 0.110114
H9    H     H_    0.928962 0.498541 0.050442 0.152137
H10   H     H_    0.977986 0.476785 0.929816 0.154068
H11   H     H_    0.428962 0.998541 0.050442 0.152137
H12   H     H_    0.676405 0.787601 0.572665 0.140364
H13   H     H_    0.477986 0.976785 0.929816 0.154068
H14   H     H_    0.020823 0.729374 0.054292 0.088419
H15   H     H_    0.984333 0.754987 0.939519 0.103464
H16   H     H_    0.520823 0.229374 0.054292 0.088419
H17   H     H_    0.484334 0.254987 0.939519 0.103464
H18   H     H_    0.337692 0.815214 0.566855 0.139248
H19   H     H_    0.723117 0.719208 0.449715 0.150088
H20   H     H_    0.837692 0.315213 0.566854 0.139248
H21   H     H_    0.223119 0.219207 0.449715 0.150089
H22   H     H_    0.200687 0.909983 0.447207 0.107958
H23   H     H_    0.862614 0.430174 0.449891 0.165817
H24   H     H_    0.809803 0.936672 0.557686 0.117293
H25   H     H_    0.700687 0.409983 0.447207 0.107958
H26   H     H_    0.309802 0.436673 0.557686 0.117293
H27   H     H_    0.218776 0.004192 0.561082 0.107117
H28   H     H_    0.766128 0.988905 0.447850 0.094379
H29   H     H_    0.718776 0.504192 0.561082 0.107116
H30   H     H_    0.266127 0.488905 0.447850 0.094379
H31   H     H_    0.010322 0.904296 0.373678 0.127816
H32   H     H_    0.957747 0.865766 0.629869 0.130207
H33   H     H_    0.510321 0.404297 0.373678 0.127816
H34   H     H_    0.176406 0.287599 0.572665 0.140363
H35   H     H_    0.457747 0.365766 0.629869 0.130207
H36   H     H_    0.084646 0.490995 0.357955 0.119739
H37   H     H_    0.997441 0.405218 0.599172 0.138053
H38   H     H_    0.584646 0.990996 0.357955 0.119739
H39   H     H_    0.497441 0.905218 0.599172 0.138053
H40   H     H_    0.061423 0.252522 0.533458 0.100784
H41   H     H_    0.102130 0.291462 0.410995 0.121788
H42   H     H_    0.561422 0.752522 0.533458 0.100784
H43   H     H_    0.602130 0.791462 0.410995 0.121787
H44   H     H_    0.143834 0.959158 0.074021 0.152634
H45   H     H_    0.131005 0.871444 0.953476 0.152201
H46   H     H_    0.790455 0.109493 0.950515 0.157198
H47   H     H_    0.643834 0.459157 0.074021 0.152634
H48   H     H_    0.290455 0.609492 0.950515 0.157198
H49   H     H_    0.854815 0.093115 0.385058 0.184563
H50   H     H_    0.860012 0.154472 0.473612 0.142029
H51   H     H_    0.883802 0.243295 0.396493 0.153431
H52   H     H_    0.992980 0.181281 0.446854 0.146297
H53   H     H_    0.980461 0.099780 0.368237 0.129854
H54   H     H_    0.999182 0.040809 0.687515 0.152871
H55   H     H_    0.057776 0.106248 0.622858 0.159132
H56   H     H_    0.829805 0.045532 0.069499 0.152171
H57   H     H_    0.997493 0.201177 0.672346 0.125575
H58   H     H_    0.945431 0.180802 0.557744 0.136590
H59   H     H_    0.896768 0.084464 0.614076 0.175965
H60   H     H_    0.354814 0.593114 0.385059 0.184562
H61   H     H_    0.360011 0.654471 0.473613 0.142030
H62   H     H_    0.383801 0.743295 0.396495 0.153431
H63   H     H_    0.492979 0.681281 0.446854 0.146297
H64   H     H_    0.480460 0.599780 0.368237 0.129854
H65   H     H_    0.499188 0.540808 0.687513 0.152873
H66   H     H_    0.557779 0.606247 0.622855 0.159132
H67   H     H_    0.631005 0.371444 0.953476 0.152201
H68   H     H_    0.497497 0.701176 0.672345 0.125575
H69   H     H_    0.445431 0.680801 0.557745 0.136590
H70   H     H_    0.396770 0.584463 0.614079 0.175964
H71   H     H_    0.329805 0.545531 0.069499 0.152171
H72   H     H_    0.291245 0.845234 0.062043 0.095358
O1    O     O_R   0.043230 0.549300 0.667990 -0.529189
O2    O     O_R   0.832470 0.905110 0.169660 -0.514073
O3    O     O_R   0.667530 0.405110 0.830340 -0.514350
O4    O     O_R   0.332470 0.405110 0.169660 -0.514072
O5    O     O_R   0.054010 0.748440 0.822860 -0.507895
O6    O     O_R   0.945990 0.748440 0.177140 -0.497898
O7    O     O_R   0.554010 0.248440 0.822860 -0.507895
O8    O     O_R   0.445990 0.248440 0.177140 -0.497898
O9    O     O_3   0.165160 0.665150 0.749190 -0.244577
O10   O     O_3   0.834840 0.665150 0.250810 -0.244226
O11   O     O_3   0.665160 0.165150 0.749190 -0.244577
O12   O     O_R   0.956770 0.549300 0.332010 -0.517319
O13   O     O_3   0.334840 0.165150 0.250810 -0.244226
O14   O     O_R   0.178620 0.457600 0.674100 -0.486537
O15   O     O_R   0.821380 0.457600 0.325900 -0.499797
O16   O     O_R   0.678620 0.957600 0.674100 -0.486537
O17   O     O_R   0.321380 0.957600 0.325900 -0.499796
O18   O     O_R   0.284680 0.542100 0.669460 -0.540672
O19   O     O_R   0.715320 0.542100 0.330540 -0.527574
O20   O     O_R   0.784680 0.042100 0.669460 -0.540672
O21   O     O_R   0.215320 0.042100 0.330540 -0.527574
O22   O     O_R   0.262860 0.790390 0.676650 -0.497370
O23   O     O_R   0.543230 0.049300 0.667990 -0.529189
O24   O     O_R   0.737140 0.790390 0.323350 -0.506411
O25   O     O_R   0.762860 0.290390 0.676650 -0.497369
O26   O     O_R   0.237140 0.290390 0.323350 -0.506411
O27   O     O_R   0.167460 0.907030 0.670940 -0.518731
O28   O     O_R   0.832540 0.907030 0.329060 -0.521875
O29   O     O_R   0.667460 0.407030 0.670940 -0.518731
O30   O     O_R   0.332540 0.407030 0.329060 -0.521875
O31   O     O_R   0.053950 0.750220 0.675100 -0.501205
O32   O     O_R   0.946050 0.750220 0.324900 -0.507341
O33   O     O_R   0.553950 0.250220 0.675100 -0.501205
O34   O     O_R   0.456770 0.049300 0.332010 -0.517319
O35   O     O_R   0.446050 0.250220 0.324900 -0.507341
O36   O     O_R   0.043300 0.547370 0.827390 -0.513152
O37   O     O_R   0.956700 0.547370 0.172610 -0.518813
O38   O     O_R   0.543300 0.047370 0.827390 -0.513152
O39   O     O_R   0.456700 0.047370 0.172610 -0.518813
O40   O     O_R   0.178690 0.455820 0.821860 -0.495691
O41   O     O_R   0.821310 0.455820 0.178140 -0.505602
O42   O     O_R   0.678690 0.955820 0.821860 -0.495691
O43   O     O_R   0.321310 0.955820 0.178140 -0.505602
O44   O     O_R   0.284750 0.540170 0.828860 -0.518716
O45   O     O_R   0.262920 0.788600 0.824420 -0.504354
O46   O     O_R   0.715250 0.540170 0.171140 -0.512167
O47   O     O_R   0.784750 0.040170 0.828860 -0.518716
O48   O     O_R   0.215250 0.040170 0.171140 -0.512167
O49   O     O_R   0.737080 0.788600 0.175580 -0.498640
O50   O     O_R   0.762920 0.288600 0.824420 -0.504354
O51   O     O_R   0.237080 0.288600 0.175580 -0.498640
O52   O     O_R   0.167530 0.905110 0.830340 -0.514350

loop_
_geom_bond_atom_site_label_1
_geom_bond_atom_site_label_2
_ccdc_geom_bond_type
C11   C96   S    
C59   H9    S    
Cr5   O12   S    
C65   O33   A    
C21   C26   A    
C38   C70   S    
C16   C90   A    
C55   C59   D    
C43   C83   S    
Cr4   O13   S    
C8    H33   S    
C42   C82   S    
C38   H2    S    
C64   C90   S    
C32   H5    S    
C9    C14   A    
C73   O2    A    
C97   H57   S    
C32   C72   S    
C46   C89   S    
C54   C60   D    
C7    C11   A    
C43   O25   A    
Cr2   O2    S    
C44   O30   A    
C77   O6    A    
C45   C50   S    
C29   H41   S    
C28   C29   A    
C3    H66   S    
C79   C93   S    
C86   C91   D    
C95   H49   S    
C79   C84   D    
C55   C77   S    
C49   C53   S    
Cr10  O11   S    
C5    C17   A    
C20   C25   A    
C10   C94   S    
C97   H54   S    
Cr4   O8    S    
C86   H24   S    
C56   C78   S    
Cr10  O20   S    
Cr12  O31   S    
C41   O22   A    
C68   H20   S    
C70   O47   A    
Cr8   O18   S    
C76   O5    A    
Cr2   O6    S    
Cr12  O5    S    
C3    C100  S    
C35   O21   A    
C24   O20   A    
C75   O4    A    
C63   O1    A    
C40   C67   S    
Cr7   O43   S    
Cr11  O51   S    
C71   O48   A    
Cr6   O42   S    
C49   H48   S    
C75   O51   A    
C36   C53   D    
Cr5   O41   S    
C74   O50   A    
C58   C61   D    
C100  H70   S    
Cr11  O21   S    
C73   O49   A    
C56   H17   S    
C58   C80   S    
C85   H22   S    
C4    C18   A    
C61   C62   S    
C1    C88   S    
C7    C15   A    
C23   H37   S    
C59   C60   S    
C96   H58   S    
C87   C92   D    
Cr11  O48   S    
C80   O8    A    
C30   H42   S    
C51   H56   S    
C67   O40   A    
Cr3   O11   S    
C87   H25   S    
Cr1   O1    S    
C1    O18   A    
Cr2   O10   S    
C94   H53   S    
C7    H32   S    
Cr1   O9    S    
Cr7   O39   S    
Cr8   O45   S    
C50   H45   S    
C25   C29   A    
Cr5   O10   S    
Cr4   O4    S    
C48   H47   S    
C89   H1    S    
C72   O45   A    
C27   C31   A    
Cr12  O27   S    
Cr9   O19   S    
Cr3   O3    S    
Cr8   O22   S    
C10   C11   A    
C95   H50   S    
Cr6   O23   S    
C83   H29   S    
C85   C89   D    
Cr1   O14   S    
C35   O17   A    
C47   C51   S    
C99   H60   S    
Cr8   O44   S    
C97   H55   S    
C37   H72   S    
C20   C90   A    
C96   H59   S    
C8    C18   A    
C72   O52   A    
C41   O27   A    
Cr9   O24   S    
C19   C23   A    
C3    H68   S    
Cr4   O35   S    
C46   H18   S    
C66   O35   A    
C2    C15   A    
C36   C75   S    
C95   H51   S    
Cr7   O34   S    
C4    C22   A    
Cr9   O46   S    
C99   H61   S    
C55   H14   S    
C84   H30   S    
C30   C31   A    
C8    C12   A    
C41   C81   S    
C96   C97   S    
C13   C87   S    
C17   C18   A    
C39   C69   S    
C93   H34   S    
C45   H44   S    
C23   C28   A    
C60   H10   S    
C100  H69   S    
C32   C50   D    
C38   C47   D    
Cr3   O33   S    
C54   C76   S    
Cr1   O40   S    
C5    C65   S    
C78   O38   A    
C28   H40   S    
Cr5   O15   S    
Cr7   O13   S    
C91   H12   S    
C37   C71   S    
C56   C62   D    
Cr2   O32   S    
C92   H23   S    
Cr3   O7    S    
C37   C45   D    
C43   O29   A    
C34   C52   D    
C94   H52   S    
C1    O14   A    
C42   O28   A    
C2    C63   S    
Cr6   O16   S    
C74   O3    A    
C46   C81   D    
C9    C17   A    
C34   H7    S    
C81   H27   S    
Cr3   O29   S    
C88   C93   D    
C26   H39   S    
C57   C91   S    
C98   H64   S    
C68   C83   D    
C71   O43   A    
C64   O32   A    
C57   H19   S    
C78   O7    A    
C70   O42   A    
C12   C14   A    
C44   C84   S    
C69   O41   A    
C6    C10   A    
C62   H13   S    
C31   H43   S    
C14   C100  S    
Cr6   O11   S    
C65   O23   A    
C33   C51   D    
C54   H15   S    
C88   H26   S    
C39   H3    S    
C61   H11   S    
C22   C27   A    
C21   C22   A    
C19   C20   A    
C53   H71   S    
C33   H6    S    
C6    H31   S    
Cr11  O26   S    
Cr4   O30   S    
C66   O34   A    
Cr12  O52   S    
C58   H16   S    
Cr11  O13   S    
C80   O39   A    
C4    C66   S    
C98   H63   S    
C35   C85   S    
Cr1   O36   S    
Cr2   O28   S    
C40   H4    S    
C99   H62   S    
C9    H35   S    
C67   O44   A    
C76   O36   A    
Cr5   O37   S    
C15   C16   A    
C64   O12   A    
C82   H28   S    
C42   O24   A    
C68   C92   S    
Cr6   O38   S    
C33   C73   S    
C25   H36   S    
C44   O26   A    
Cr7   O17   S    
C3    H65   S    
C94   C95   S    
C36   H8    S    
C79   H21   S    
Cr9   O10   S    
Cr12  O9    S    
C52   H67   S    
Cr10  O47   S    
C6    C16   A    
Cr10  O25   S    
Cr10  O50   S    
C48   C52   S    
C5    C21   A    
C24   O16   A    
C98   C99   S    
C12   C98   S    
C57   C82   D    
C77   O37   A    
C34   C74   S    
C13   O15   A    
C63   O31   A    
Cr8   O9    S    
C69   O46   A    
C24   C86   S    
C47   H46   S    
C27   H38   S    
C40   C49   D    
C2    C19   A    
C13   O19   A    
C39   C48   D    
C26   C30   A    
Cr9   O49   S    
