data_mof_unit_41227.cif
_audit_creation_date              2012-12-10T18:57:10-0500
_audit_creation_method            fapswitch 2.2
_symmetry_space_group_name_H-M    P1
_symmetry_Int_Tables_number       1
_space_group_crystal_system       triclinic
_cell_length_a                    10.63383
_cell_length_b                    9.913431
_cell_length_c                    10.774711
_cell_angle_alpha                 89.879299
_cell_angle_beta                  91.556211
_cell_angle_gamma                 90.057478
_cell_volume                      1135.42371219

loop_
_atom_site_label
_atom_site_type_symbol
_atom_type_description
_atom_site_fract_x
_atom_site_fract_y
_atom_site_fract_z
_atom_type_partial_charge
C1    C     C_R   0.260444 0.499807 0.500881 0.936753
C2    C     C_R   0.452329 0.602810 0.934743 -0.194766
C3    C     C_R   0.504839 0.497050 0.128510 -0.194659
C4    C     C_R   0.507817 0.497569 0.871548 -0.121009
C5    C     C_R   0.551937 0.382815 0.066715 0.327732
C6    C     C_R   0.558144 0.385698 0.936668 0.318086
C7    C     C_3   0.468161 0.753437 0.926140 0.749091
C8    C     C_3   0.465293 0.753672 0.069731 0.772800
C9    C     C_R   0.069366 0.420528 0.595770 0.444031
C10   C     C_R   0.938598 0.425092 0.601023 0.351232
C11   C     C_R   0.872307 0.501995 0.510423 -0.147423
C12   C     C_R   0.739620 0.500241 0.503095 0.863858
C13   C     C_R   0.128143 0.499500 0.506111 -0.133060
C14   C     C_R   0.933091 0.581226 0.423586 -0.198104
C15   C     C_R   0.061645 0.581059 0.422270 -0.247475
C16   C     C_3   0.601802 0.930482 0.876649 -0.118149
C17   C     C_3   0.367401 0.955640 0.119306 -0.171921
C18   C     C_R   0.596480 0.070532 0.556626 0.273767
C19   C     C_R   0.403608 0.070989 0.442999 0.288972
C20   C     C_R   0.598455 0.926497 0.552592 0.420338
C21   C     C_R   0.401671 0.926748 0.446972 0.438410
C22   C     C_R   0.502595 0.499803 0.260478 0.953229
C23   C     C_R   0.504801 0.499771 0.739551 0.959809
C24   C     C_R   0.450078 0.602714 0.061248 -0.162534
H1    H     H_    0.880752 0.641114 0.355531 0.185601
H2    H     H_    0.278952 0.998695 0.154167 0.203495
H3    H     H_    0.285839 0.775278 0.894264 0.341014
H4    H     H_    0.648452 0.737504 0.099843 0.326850
H5    H     H_    0.088391 0.292552 0.733857 0.388081
H6    H     H_    0.798177 0.402371 0.711407 0.344154
H7    H     H_    0.657642 0.219938 0.651384 0.419696
H8    H     H_    0.342640 0.219842 0.345118 0.382236
H9    H     H_    0.767053 0.913845 0.628257 0.369688
H10   H     H_    0.233721 0.914319 0.369848 0.367938
H11   H     H_    0.109346 0.641601 0.354022 0.209290
H12   H     H_    0.580669 0.190531 0.085513 0.324721
H13   H     H_    0.687307 0.247168 0.926613 0.355278
H14   H     H_    0.596383 0.973435 0.971247 0.132336
H15   H     H_    0.532558 0.980747 0.812872 0.201295
H16   H     H_    0.697134 0.954134 0.843635 0.204430
H17   H     H_    0.378903 0.996586 0.024389 0.150449
H18   H     H_    0.445632 0.990525 0.181742 0.196197
N1    N     N_R   0.500000 0.857200 0.500000 -0.147042
N2    N     N_R   0.500000 0.142810 0.500000 -0.195988
O1    O     O_R   0.316770 0.614620 0.499990 -0.569617
O2    O     O_3   0.619953 0.286343 0.872499 -0.791287
O3    O     O_3   0.585776 0.788993 0.876230 -0.608077
O4    O     O_3   0.357031 0.813533 0.120030 -0.594468
O5    O     O_3   0.364848 0.814690 0.862953 -0.772443
O6    O     O_3   0.578368 0.792095 0.132288 -0.779457
O7    O     O_3   0.142676 0.346383 0.679339 -0.741280
O8    O     O_3   0.879720 0.358214 0.696057 -0.742790
O9    O     O_3   0.692113 0.134826 0.620839 -0.726584
O10   O     O_3   0.307775 0.136001 0.379159 -0.769911
O11   O     O_3   0.696332 0.853110 0.605284 -0.690653
O12   O     O_R   0.683230 0.614620 0.500010 -0.564355
O13   O     O_3   0.303980 0.853480 0.393886 -0.688334
O14   O     O_R   0.316800 0.385290 0.500000 -0.582284
O15   O     O_R   0.683200 0.385290 0.500000 -0.601563
O16   O     O_R   0.500000 0.614690 0.316780 -0.559092
O17   O     O_R   0.500000 0.614690 0.683220 -0.553829
O18   O     O_R   0.500020 0.385360 0.316780 -0.606272
O19   O     O_R   0.499980 0.385360 0.683220 -0.603004
O20   O     O_3   0.596649 0.273553 0.134457 -0.744425
Zn1   Zn    Zn3+2 0.500000 0.653120 0.500000 1.098554
Zn2   Zn    Zn3+2 0.500000 0.346880 0.500000 1.022446

loop_
_geom_bond_atom_site_label_1
_geom_bond_atom_site_label_2
_ccdc_geom_bond_type
H9    O11   S    
H10   O13   S    
C2    C4    A    
C11   C12   S    
C8    O4    S    
C21   O13   S    
C8    O6    S    
C22   O18   A    
C9    C10   A    
N2    Zn2   S    
C2    C7    S    
C9    O7    S    
C17   O4    S    
N1    Zn1   S    
C22   O16   A    
C10   O8    S    
C23   O19   A    
O19   Zn2   S    
C7    C8    S    
C14   H1    S    
C21   N1    A    
C1    O14   A    
H7    O9    S    
O1    Zn1   S    
C1    O1    A    
C3    C24   A    
C12   O12   A    
C16   H16   S    
C20   O11   S    
C17   H2    S    
C19   O10   S    
H8    O10   S    
C19   C21   A    
O16   Zn1   S    
C18   C20   A    
C13   C15   A    
O15   Zn2   S    
C2    C24   A    
C5    C6    A    
C11   C14   A    
C17   H17   S    
C1    C13   S    
C10   C11   A    
O18   Zn2   S    
C16   H15   S    
H3    O5    S    
O12   Zn1   S    
O17   Zn1   S    
C18   N2    A    
C23   O17   A    
C20   N1    A    
C19   N2    A    
C7    O5    S    
C4    C6    A    
H5    O7    S    
C15   H11   S    
C4    C23   S    
H6    O8    S    
C17   H18   S    
C3    C22   S    
C9    C13   A    
C16   O3    S    
C6    O2    S    
C18   O9    S    
C8    C24   S    
H13   O2    S    
H12   O20   S    
C12   O15   A    
H4    O6    S    
O14   Zn2   S    
C14   C15   A    
C5    O20   S    
C16   H14   S    
C3    C5    A    
C7    O3    S    
