data_mof_unit_27652.cif
_audit_creation_date              2013-03-05T16:06:18-0500
_audit_creation_method            fapswitch 2.2
_symmetry_space_group_name_H-M    P1
_symmetry_Int_Tables_number       1
_space_group_crystal_system       triclinic
_cell_length_a                    10.844651
_cell_length_b                    9.668674
_cell_length_c                    27.5824
_cell_angle_alpha                 88.795753
_cell_angle_beta                  90.027003
_cell_angle_gamma                 88.833704
_cell_volume                      2890.86930639

loop_
_atom_site_label
_atom_site_type_symbol
_atom_site_description
_atom_site_fract_x
_atom_site_fract_y
_atom_site_fract_z
_atom_type_partial_charge
O1    O     O_R   0.319640 0.618740 0.500000 -0.540991
O2    O     O_R   0.680360 0.381260 0.500000 -0.524249
O3    O     O_R   0.680360 0.618740 0.500000 -0.533420
O4    O     O_R   0.319640 0.381260 0.500000 -0.523846
C1    C     C_R   0.262959 0.501683 0.505010 0.912466
C2    C     C_R   0.738209 0.498594 0.496685 0.928295
O5    O     O_R   0.500020 0.618770 0.430260 -0.553845
O6    O     O_R   0.499980 0.381230 0.569740 -0.542831
O7    O     O_R   0.499980 0.618770 0.569740 -0.548793
O8    O     O_R   0.500020 0.381230 0.430260 -0.529205
C3    C     C_R   0.502195 0.501416 0.407433 0.914691
C4    C     C_R   0.501066 0.498546 0.592535 0.882710
Cu1   Cu    Cu3+1 0.500000 0.640660 0.500000 1.108871
Cu2   Cu    Cu3+1 0.500000 0.359340 0.500000 1.152497
C5    C     C_R   0.481426 0.399656 0.181360 0.649785
C6    C     C_R   0.651940 0.511058 0.820622 0.723586
O9    O     O_2   0.411108 0.318482 0.209821 -0.428057
O10   O     O_2   0.715178 0.605367 0.794492 -0.405055
N1    N     N_R   0.554726 0.496246 0.202356 -0.444699
N2    N     N_R   0.569368 0.430850 0.797470 -0.441873
C7    C     C_R   0.659805 0.532760 0.177559 0.705271
C8    C     C_R   0.496620 0.339604 0.822138 0.742279
C9    C     C_R   0.628963 0.578157 0.283084 0.341114
C10   C     C_R   0.450847 0.535773 0.728710 0.322933
C11   C     C_R   0.628456 0.528349 0.331119 0.202213
C12   C     C_R   0.434319 0.554140 0.678021 0.230285
C13   C     C_R   0.405717 0.520229 0.325785 -0.213849
C14   C     C_R   0.618689 0.414476 0.663672 -0.204647
C15   C     C_R   0.413421 0.535306 0.274990 0.428509
C16   C     C_R   0.635401 0.392273 0.713332 0.410938
C17   C     C_R   0.531905 0.538563 0.252711 0.033814
C18   C     C_R   0.551284 0.452302 0.746143 0.035610
C19   C     C_R   0.576895 0.446047 0.103030 -0.134437
C20   C     C_R   0.583151 0.416453 0.898058 -0.121769
C21   C     C_R   0.485398 0.378279 0.130674 -0.105436
C22   C     C_R   0.665578 0.500997 0.871342 -0.105365
C23   C     C_R   0.405831 0.286749 0.106942 0.346723
C24   C     C_R   0.751471 0.581216 0.896468 0.335994
C25   C     C_R   0.667100 0.523427 0.126695 -0.169496
C26   C     C_R   0.499271 0.331827 0.873466 -0.177547
C27   C     C_R   0.513194 0.506958 0.354019 -0.193579
C28   C     C_R   0.517957 0.491814 0.645596 -0.212363
H1    H     H_    0.316246 0.519840 0.343284 0.217799
H2    H     H_    0.684735 0.370971 0.638548 0.234382
C29   C     C_R   0.490195 0.349883 0.976279 -0.066872
C30   C     C_R   0.679966 0.488862 0.025374 -0.070030
C31   C     C_R   0.674282 0.492809 0.974068 0.070048
C32   C     C_R   0.492726 0.352696 0.028013 0.066790
C33   C     C_R   0.584159 0.417057 0.949599 0.060285
C34   C     C_R   0.581711 0.431538 0.051943 0.057740
C35   C     C_R   0.393452 0.289447 0.949819 0.172665
C36   C     C_R   0.783058 0.536327 0.051216 0.166362
C37   C     C_R   0.413710 0.254235 0.901298 0.325400
C38   C     C_R   0.767907 0.576245 0.099452 0.333383
O11   O     O_2   0.417063 0.264436 0.796694 -0.392191
O12   O     O_2   0.762760 0.560666 0.202025 -0.412174
C39   C     C_R   0.414935 0.270601 0.056854 -0.146217
C40   C     C_R   0.750765 0.580292 0.946844 -0.146033
H3    H     H_    0.358932 0.193132 0.040727 0.215347
H4    H     H_    0.810114 0.651630 0.964607 0.213138
C41   C     C_R   0.066148 0.382395 0.520278 0.294314
C42   C     C_R   0.937427 0.622610 0.487913 0.281336
C43   C     C_R   0.943771 0.372279 0.504517 0.240525
C44   C     C_R   0.059520 0.629650 0.504033 0.277714
C45   C     C_R   0.874674 0.495837 0.493298 -0.308416
C46   C     C_R   0.128105 0.506117 0.511913 -0.326395
C47   C     C_R   0.454035 0.077016 0.461329 0.335682
C48   C     C_R   0.546746 0.922628 0.538393 0.283609
C49   C     C_R   0.537322 0.069312 0.539983 0.314592
C50   C     C_R   0.453232 0.929420 0.461456 0.268346
N3    N     N_R   0.500000 0.852070 0.500000 -0.326087
N4    N     N_R   0.500000 0.147930 0.500000 -0.294417
N5    N     N_R   0.392196 0.150039 0.422492 0.176954
O13   O     O_R   0.277372 0.188328 0.427540 -0.248616
O14   O     O_R   0.442075 0.155405 0.379607 -0.255898
N6    N     N_R   0.605259 0.849686 0.578195 0.182227
O15   O     O_R   0.715104 0.795983 0.572940 -0.270809
O16   O     O_R   0.559199 0.857266 0.621605 -0.242334
N7    N     N_R   0.548888 0.130130 0.586488 0.168382
O17   O     O_R   0.654977 0.126815 0.608421 -0.246380
O18   O     O_R   0.449857 0.143273 0.612766 -0.277976
N8    N     N_R   0.402994 0.863021 0.420134 0.179951
O19   O     O_R   0.299753 0.797723 0.423209 -0.254140
O20   O     O_R   0.455656 0.876575 0.378048 -0.255483
S1    S     S_3+6 0.275751 0.577828 0.242958 0.149080
O21   O     O_2   0.302897 0.629272 0.192348 -0.207762
O22   O     O_2   0.195874 0.452832 0.241139 -0.153313
O23   O     O_3   0.199363 0.702732 0.272896 -0.440559
H5    H     H_    0.120562 0.716601 0.255093 0.419106
S2    S     S_3+6 0.761414 0.286656 0.733525 0.130917
O24   O     O_2   0.857551 0.375953 0.755495 -0.177525
O25   O     O_2   0.718213 0.183774 0.771097 -0.210101
O26   O     O_3   0.824507 0.201219 0.686869 -0.431221
H6    H     H_    0.895303 0.148178 0.701071 0.421120
N9    N     N_R   0.311549 0.212735 0.132237 0.178651
O27   O     O_R   0.304860 0.079402 0.127790 -0.257687
O28   O     O_R   0.217555 0.280654 0.149838 -0.195146
N10   N     N_R   0.843770 0.660607 0.871932 0.180843
O29   O     O_R   0.926569 0.597651 0.845782 -0.196340
O30   O     O_R   0.861261 0.788188 0.883901 -0.243251
N11   N     N_R   0.330659 0.631740 0.659494 0.171647
O31   O     O_R   0.224357 0.572857 0.656051 -0.205799
O32   O     O_R   0.336388 0.765745 0.655954 -0.211556
N12   N     N_R   0.744212 0.502993 0.355501 0.174558
O33   O     O_R   0.847489 0.535241 0.334519 -0.207735
O34   O     O_R   0.749184 0.424281 0.394056 -0.318228
S3    S     S_3+6 0.341331 0.608366 0.770078 0.119787
O35   O     O_2   0.285008 0.741142 0.750384 -0.143287
O36   O     O_2   0.240639 0.505721 0.777931 -0.175372
O37   O     O_3   0.406221 0.642090 0.823824 -0.566055
H7    H     H_    0.336509 0.650022 0.846856 0.379377
S4    S     S_3+6 0.682109 0.750328 0.275302 0.144080
O38   O     O_2   0.658263 0.829540 0.320679 -0.219993
O39   O     O_2   0.818341 0.750659 0.265287 -0.153502
O40   O     O_3   0.605567 0.829456 0.229111 -0.458186
H8    H     H_    0.627816 0.928095 0.230814 0.396417
S5    S     S_3+6 0.335163 0.108906 0.878746 0.152724
O41   O     O_2   0.294534 0.016952 0.920087 -0.207908
O42   O     O_2   0.223893 0.157173 0.850070 -0.129438
O43   O     O_3   0.430429 0.016512 0.843105 -0.441330
H9    H     H_    0.378181 0.944404 0.829209 0.415160
S6    S     S_3+6 0.866707 0.706341 0.121455 0.148411
O44   O     O_2   0.969833 0.640246 0.150749 -0.139772
O45   O     O_2   0.920345 0.788179 0.079934 -0.197162
O46   O     O_3   0.785940 0.816257 0.156198 -0.466325
H10   H     H_    0.847266 0.882182 0.168047 0.396670
S7    S     S_3+6 0.236619 0.321603 0.966377 0.126563
O47   O     O_2   0.179619 0.192125 0.986426 -0.148486
O48   O     O_2   0.228160 0.432516 0.003668 -0.199117
O49   O     O_3   0.155593 0.374996 0.917199 -0.387176
H11   H     H_    0.194936 0.461768 0.906229 0.357417
S8    S     S_3+6 0.935144 0.489057 0.032030 0.130311
O50   O     O_2   0.930438 0.378358 0.994630 -0.202390
O51   O     O_2   0.000236 0.611872 0.010770 -0.148221
O52   O     O_3   0.017150 0.427655 0.079846 -0.384128
H12   H     H_    0.974697 0.342412 0.090447 0.365431
S9    S     S_3+6 0.131100 0.257902 0.562230 0.142423
O53   O     O_2   0.216637 0.328617 0.596221 -0.230605
O54   O     O_2   0.031615 0.190470 0.591652 -0.198503
O55   O     O_3   0.211705 0.136388 0.532504 -0.444951
H13   H     H_    0.251448 0.078384 0.558280 0.373390
S10   S     S_3+6 0.875302 0.766339 0.453239 0.162610
O56   O     O_2   0.825731 0.874156 0.486721 -0.229489
O57   O     O_2   0.974923 0.828493 0.422410 -0.122477
O58   O     O_3   0.761010 0.719938 0.416381 -0.473029
H14   H     H_    0.703298 0.800611 0.414892 0.393620
S11   S     S_3+6 0.890975 0.204488 0.490362 0.166723
O59   O     O_2   0.808441 0.206826 0.446705 -0.166600
O60   O     O_2   0.998869 0.110591 0.479634 -0.124986
O61   O     O_3   0.812247 0.141517 0.537817 -0.470345
H15   H     H_    0.860575 0.060778 0.550325 0.435645
S12   S     S_3+6 0.108161 0.786157 0.530189 0.144915
O62   O     O_2   0.149445 0.884684 0.491100 -0.180302
O63   O     O_2   0.002918 0.851239 0.557358 -0.176165
O64   O     O_3   0.223566 0.756856 0.569772 -0.447869
H16   H     H_    0.282978 0.831499 0.563463 0.362057

loop_
_geom_bond_atom_site_label_1
_geom_bond_atom_site_label_2
_geom_bond_distance
_ccdc_geom_bond_type
C43   C45   1.425564 A    
N11   O31   1.300383 A    
C13   C15   1.408274 A    
S3    O36   1.503189 D    
N5    O13   1.300226 A    
S11   O59   1.499563 D    
C16   S2    1.771735 S    
O3    C2    1.313852 A    
N1    C17   1.475754 S    
S4    O39   1.503169 D    
O58   H14   0.990225 S    
C32   C39   1.405659 A    
C31   C33   1.412975 A    
S1    O21   1.503289 D    
O5    C3    1.308963 A    
C9    S4    1.781430 S    
S9    O54   1.501615 D    
O26   H6    0.990526 S    
C44   S12   1.779486 S    
O1    C1    1.303724 A    
C6    N2    1.363678 A    
S11   O60   1.499743 D    
N6    O16   1.300501 A    
S5    O42   1.503374 D    
C12   N11   1.427168 S    
C37   S5    1.780978 S    
C29   C32   1.428048 A    
C25   C38   1.424047 A    
C29   C35   1.420209 A    
C40   H4    1.077963 S    
O40   H8    0.990569 S    
C30   C36   1.415092 A    
C23   N9    1.433100 S    
C41   C43   1.402276 A    
C47   N4    1.378561 A    
C43   S11   1.782238 S    
C10   C18   1.419979 A    
C5    C21   1.418051 A    
O7    Cu1   1.930779 S    
O37   H7    0.990524 S    
S4    O38   1.500846 D    
C4    C28   1.474783 S    
C24   C40   1.389382 A    
C41   C46   1.398901 A    
C2    C45   1.482636 S    
N9    O27   1.301030 A    
S8    O50   1.503635 D    
C42   C44   1.399937 A    
S3    O35   1.501550 D    
C50   N3    1.377486 A    
C47   N5    1.429677 S    
C15   S1    1.771201 S    
O3    Cu1   1.963097 S    
C24   N10   1.434982 S    
C32   C34   1.413683 A    
C38   S6    1.784618 S    
N11   O32   1.300025 A    
Cu1   Cu2   2.719991 S    
N5    O14   1.301414 A    
S10   O58   1.676811 S    
O2    C2    1.309051 A    
C42   S10   1.790301 S    
O2    Cu2   1.971674 S    
N12   O34   1.295079 A    
N12   O33   1.301469 A    
C36   C38   1.401911 A    
S1    O22   1.502860 D    
S9    O55   1.678107 S    
C36   S8    1.785907 S    
O52   H12   0.991056 S    
S11   O61   1.673806 S    
O55   H13   0.989369 S    
O8    Cu2   1.930779 S    
S5    O43   1.682890 S    
C11   C27   1.417722 A    
N7    O18   1.301521 A    
C48   C49   1.421444 A    
Cu1   N3    2.044054 S    
C19   C34   1.419881 A    
C14   H2    1.081941 S    
C35   C37   1.404152 A    
C9    C17   1.409008 A    
C49   N4    1.381909 A    
C5    N1    1.375480 A    
S7    O48   1.502932 D    
C13   C27   1.403665 A    
S2    O25   1.503034 D    
C7    C25   1.409904 A    
S12   O64   1.676282 S    
C29   C33   1.417496 A    
O6    C4    1.308666 A    
C8    C26   1.416394 A    
C10   S3    1.790556 S    
C19   C25   1.411552 A    
N6    O15   1.299152 A    
C6    O10   1.348899 S    
S12   O63   1.500526 D    
N8    O19   1.298436 A    
N10   O30   1.301219 A    
O46   H10   0.990557 S    
S3    O37   1.681630 S    
C20   C26   1.417784 A    
C49   N7    1.428777 S    
O1    Cu1   1.971674 S    
S6    O45   1.502438 D    
S7    O47   1.502613 D    
S10   O57   1.502409 D    
O43   H9    0.990522 S    
C12   C28   1.409561 A    
S2    O26   1.681981 S    
N2    C18   1.439257 S    
S1    O23   1.681787 S    
C5    O9    1.346411 S    
C30   C31   1.416126 A    
C20   C33   1.421783 A    
O6    Cu2   1.939621 S    
C14   C28   1.397005 A    
C42   C45   1.419153 A    
C21   C23   1.418135 A    
S10   O56   1.498899 D    
Cu2   N4    2.044055 S    
C10   C12   1.416504 A    
N2    C8    1.366491 A    
O4    C1    1.315410 A    
C7    O12   1.339404 S    
N9    O28   1.300978 A    
C11   N12   1.438052 S    
C48   N3    1.373946 A    
C8    O11   1.345930 S    
C48   N6    1.433126 S    
S9    O53   1.502968 D    
C30   C34   1.409725 A    
N8    O20   1.299290 A    
C47   C50   1.427195 A    
C35   S7    1.784133 S    
S6    O46   1.679481 S    
C22   C24   1.414542 A    
O49   H11   0.990706 S    
S7    O49   1.682115 S    
C15   C17   1.425195 A    
S5    O41   1.502888 D    
C1    C46   1.474749 S    
C31   C40   1.403456 A    
C16   C18   1.410447 A    
C41   S9    1.786090 S    
S2    O24   1.502549 D    
S8    O52   1.681452 S    
C14   C16   1.393201 A    
C19   C21   1.414729 A    
C3    C27   1.478103 S    
C20   C22   1.419616 A    
C9    C11   1.400257 A    
O4    Cu2   1.963097 S    
C50   N8    1.432614 S    
O7    C4    1.309720 A    
C23   C39   1.396929 A    
C39   H3    1.077042 S    
O8    C3    1.310609 A    
C26   C37   1.420536 A    
N7    O17   1.299115 A    
C13   H1    1.083945 S    
O5    Cu1   1.939621 S    
O23   H5    0.990742 S    
S8    O51   1.502487 D    
N10   O29   1.301477 A    
O64   H16   0.989957 S    
O61   H15   0.987395 S    
S12   O62   1.498344 D    
S6    O44   1.503451 D    
S4    O40   1.682178 S    
C6    C22   1.407814 A    
C44   C46   1.407063 A    
N1    C7    1.377653 A    
