data_mof_unit_18834.cif
_audit_creation_date              2012-12-10T17:50:10-0500
_audit_creation_method            fapswitch 2.2
_symmetry_space_group_name_H-M    P1
_symmetry_Int_Tables_number       1
_space_group_crystal_system       triclinic
_cell_length_a                    10.607422
_cell_length_b                    14.716199
_cell_length_c                    14.670216
_cell_angle_alpha                 65.045156
_cell_angle_beta                  103.816254
_cell_angle_gamma                 103.029475
_cell_volume                      1995.83996904

loop_
_atom_site_label
_atom_site_type_symbol
_atom_type_description
_atom_site_fract_x
_atom_site_fract_y
_atom_site_fract_z
_atom_type_partial_charge
C1    C     C_R   0.479220 0.119785 0.311665 0.842757
C2    C     C_R   0.520566 0.880531 0.688207 0.860473
C3    C     C_R   0.505931 0.292437 0.175303 0.379634
C4    C     C_R   0.530380 0.710328 0.826607 0.401834
C5    C     C_R   0.467982 0.361169 0.075150 -0.069019
C6    C     C_R   0.502305 0.640134 0.923100 -0.059091
C7    C     C_R   0.420611 0.323194 0.997366 -0.083324
C8    C     C_R   0.503606 0.677210 0.998241 -0.075077
C9    C     C_R   0.479816 0.466684 0.050139 0.014681
C10   C     C_R   0.474768 0.534326 0.947122 0.007391
C11   C     C_R   0.429616 0.494612 0.870811 -0.224149
C12   C     C_R   0.483702 0.505463 0.124048 -0.240151
C13   C     C_R   0.403208 0.390435 0.894930 0.482620
C14   C     C_R   0.495929 0.609420 0.099175 0.469340
C15   C     C_R   0.745845 0.299007 0.643374 -0.278203
C16   C     C_R   0.257648 0.702916 0.352288 -0.275143
C17   C     C_R   0.698814 0.210866 0.625724 0.053545
C18   C     C_R   0.300518 0.788592 0.375015 0.087043
C19   C     C_R   0.512897 0.282325 0.514045 0.086289
C20   C     C_R   0.490697 0.719737 0.481765 0.068211
C21   C     C_R   0.553666 0.373972 0.530716 -0.085364
C22   C     C_R   0.453757 0.630528 0.460386 -0.068142
C23   C     C_R   0.259342 0.000222 0.499764 0.767653
C24   C     C_R   0.740633 0.999831 0.500135 0.762823
C25   C     C_R   0.675394 0.381993 0.594831 0.055505
C26   C     C_R   0.332563 0.622751 0.395491 0.080804
C27   C     C_R   0.479840 0.457534 0.485029 -0.013441
C28   C     C_R   0.530203 0.548423 0.502992 -0.009789
C29   C     C_R   0.656156 0.555029 0.561427 -0.320888
C30   C     C_R   0.357030 0.452909 0.422234 -0.273535
C31   C     C_R   0.727143 0.472425 0.609254 0.496636
C32   C     C_R   0.286391 0.534784 0.375373 0.525647
C33   C     C_3   0.009104 0.923751 0.475446 -0.131225
C34   C     C_3   0.990812 0.076360 0.524285 -0.129714
C35   C     C_3   0.931101 0.012620 0.406708 -0.179947
C36   C     C_3   0.068803 0.987488 0.593031 -0.164393
C37   C     C_3   0.877571 0.000073 0.500080 0.031953
C38   C     C_3   0.122352 0.000028 0.499675 0.032941
C39   C     C_3   0.953309 0.911313 0.568845 -0.176508
C40   C     C_3   0.046615 0.088792 0.430887 -0.181766
C41   C     C_R   0.463750 0.187696 0.202545 -0.266033
C42   C     C_R   0.524952 0.813709 0.796976 -0.266572
C43   C     C_R   0.390630 0.218402 0.023364 -0.254564
C44   C     C_R   0.511286 0.781679 0.970985 -0.256992
C45   C     C_R   0.403609 0.150880 0.125478 0.414824
C46   C     C_R   0.518810 0.850007 0.870543 0.405418
Cu1   Cu    Cu3+1 0.465750 0.918270 0.475680 0.967601
Cu2   Cu    Cu3+1 0.534250 0.081730 0.524320 0.965404
H1    H     H_    0.837947 0.302030 0.694203 0.190402
H2    H     H_    0.165250 0.699348 0.301919 0.172954
H3    H     H_    0.019190 0.861209 0.455394 0.138774
H4    H     H_    0.980671 0.138912 0.544300 0.145958
H5    H     H_    0.353247 0.188141 0.964812 0.209280
H6    H     H_    0.506757 0.810727 0.026619 0.210625
H7    H     H_    0.403643 0.543130 0.791867 0.211727
H8    H     H_    0.466762 0.455746 0.200358 0.195019
N1    N     N_R   0.585750 0.204560 0.560800 -0.170128
N2    N     N_R   0.414250 0.795440 0.439200 -0.177637
O1    O     O_R   0.454850 0.022100 0.338110 -0.538954
O2    O     O_R   0.545150 0.977900 0.661890 -0.550637
O3    O     O_R   0.512700 0.160150 0.379180 -0.539509
O4    O     O_R   0.487300 0.839850 0.620820 -0.537828
O5    O     O_R   0.287930 0.931000 0.479440 -0.602774
O6    O     O_R   0.712070 0.069000 0.520560 -0.597573
O7    O     O_R   0.345780 0.069050 0.520520 -0.587402
O8    O     O_R   0.654220 0.930950 0.479480 -0.591587
H9    H     H_    0.871488 0.022869 0.330613 0.128174
H10   H     H_    0.128412 0.977266 0.669125 0.144635
H11   H     H_    0.577583 0.729567 0.534223 0.139449
H12   H     H_    0.425833 0.271560 0.462264 0.120982
H13   H     H_    0.241348 0.849191 0.342963 0.123064
H14   H     H_    0.754754 0.148099 0.661720 0.121267
H15   H     H_    0.703760 0.624918 0.568716 0.143033
H16   H     H_    0.311402 0.386053 0.407880 0.140435
H17   H     H_    0.912023 0.838720 0.625105 0.113615
H18   H     H_    0.088085 0.161331 0.374601 0.124751
O9    O     O_3   0.351503 0.354325 0.818510 -0.580331
C47   C     C_3   0.451377 0.368181 0.763402 -0.305808
H19   H     H_    0.537099 0.330789 0.814229 0.151245
H20   H     H_    0.483034 0.449866 0.720258 0.178565
H21   H     H_    0.411978 0.332601 0.707178 0.202917
O10   O     O_3   0.491735 0.644793 0.172085 -0.607163
C48   C     C_3   0.608090 0.629964 0.244041 -0.314111
H22   H     H_    0.696987 0.662579 0.206642 0.158619
H23   H     H_    0.610308 0.548401 0.293241 0.187371
H24   H     H_    0.611139 0.669790 0.294194 0.197253
O11   O     O_3   0.568573 0.678916 0.761981 -0.574770
C49   C     C_3   0.706629 0.694519 0.775011 -0.356249
H25   H     H_    0.747768 0.636757 0.848051 0.167936
H26   H     H_    0.749946 0.772180 0.771179 0.138664
H27   H     H_    0.735572 0.686415 0.711601 0.167788
O12   O     O_3   0.589734 0.327070 0.245760 -0.573093
C50   C     C_3   0.720059 0.331152 0.235762 -0.272324
H28   H     H_    0.740972 0.385379 0.158839 0.150333
H29   H     H_    0.741864 0.254776 0.251816 0.143655
H30   H     H_    0.787094 0.358419 0.292528 0.197904
O13   O     O_3   0.510327 0.950913 0.843087 -0.546639
C51   C     C_3   0.632212 0.998250 0.877424 -0.277778
H31   H     H_    0.628028 0.080555 0.848628 0.184202
H32   H     H_    0.713466 0.989132 0.847252 0.138667
H33   H     H_    0.653358 0.969214 0.962050 0.150077
O14   O     O_3   0.367771 0.048205 0.148616 -0.542976
C52   C     C_3   0.229851 0.026141 0.138118 -0.304940
H34   H     H_    0.192660 0.044467 0.192352 0.142350
H35   H     H_    0.201302 0.943854 0.156355 0.175244
H36   H     H_    0.181984 0.066347 0.058637 0.154588
O15   O     O_3   0.854387 0.481378 0.661412 -0.570569
C53   C     C_3   0.862506 0.521539 0.734891 -0.351521
H37   H     H_    0.771620 0.499353 0.769422 0.150415
H38   H     H_    0.888348 0.605033 0.700798 0.165099
H39   H     H_    0.943533 0.491797 0.797700 0.196589
O16   O     O_3   0.164330 0.524192 0.317587 -0.596199
C54   C     C_3   0.181755 0.540144 0.219375 -0.329054
H40   H     H_    0.236902 0.482957 0.221800 0.165397
H41   H     H_    0.231498 0.618122 0.180538 0.204516
H42   H     H_    0.083824 0.532061 0.173047 0.176023

loop_
_geom_bond_atom_site_label_1
_geom_bond_atom_site_label_2
_ccdc_geom_bond_type
C25   C31   A    
C38   C40   S    
O11   C49   S    
C26   C32   A    
C50   H28   S    
C34   C37   S    
C49   H26   S    
Cu1   O4    S    
O13   C51   S    
Cu2   N1    S    
C4    O11   S    
O9    C47   S    
C19   N1    A    
C33   C39   S    
C34   C40   S    
C28   C29   A    
C35   C37   S    
C16   H2    S    
C1    O1    A    
Cu1   O5    S    
C30   H16   S    
C47   H20   S    
Cu2   O6    S    
C29   H15   S    
C53   H37   S    
C42   C46   A    
C34   H4    S    
C43   H5    S    
C48   H22   S    
C53   H38   S    
O15   C53   S    
C7    C43   A    
Cu2   O7    S    
C9    C10   A    
Cu1   O8    S    
C24   O8    A    
C54   H42   S    
C23   O5    A    
C21   C27   A    
C24   O6    A    
C22   C28   A    
C27   C30   A    
C2    O2    A    
O16   C54   S    
C44   C46   A    
Cu2   O2    S    
C16   C26   A    
C13   O9    S    
C4    C6    A    
C45   O14   S    
C5    C7    A    
C47   H19   S    
C6    C8    A    
C40   H18   S    
C3    O12   S    
C5    C9    A    
Cu1   Cu2   S    
C49   H27   S    
C35   H9    S    
C29   C31   A    
C24   C37   S    
C52   H35   S    
C43   C45   A    
C12   H8    S    
C1    C41   S    
C48   H23   S    
C46   O13   S    
C20   C22   A    
O10   C48   S    
C50   H30   S    
C39   H17   S    
C20   H11   S    
C14   O10   S    
C20   N2    A    
C23   C38   S    
C52   H34   S    
C11   H7    S    
C54   H40   S    
C18   H13   S    
C15   C17   A    
C21   C25   A    
C3    C41   A    
C8    C14   A    
C32   O16   S    
C19   C21   A    
C31   O15   S    
C36   C39   S    
C8    C44   A    
C12   C14   A    
C3    C5    A    
C1    O3    A    
C6    C10   A    
C36   H10   S    
C33   H3    S    
C51   H33   S    
C51   H32   S    
C33   C38   S    
C53   H39   S    
C23   O7    A    
C36   C38   S    
C35   C40   S    
C37   C39   S    
Cu1   N2    S    
C30   C32   A    
C11   C13   A    
C47   H21   S    
Cu2   O3    S    
C50   H29   S    
C4    C42   A    
C2    C42   S    
O12   C50   S    
C33   C35   S    
C18   N2    A    
C52   H36   S    
C34   C36   S    
C15   H1    S    
O14   C52   S    
C9    C12   A    
C15   C25   A    
C10   C11   A    
Cu1   O1    S    
C44   H6    S    
C7    C13   A    
C48   H24   S    
C49   H25   S    
C17   H14   S    
C16   C18   A    
C51   H31   S    
C22   C26   A    
C27   C28   A    
C41   C45   A    
C19   H12   S    
C2    O4    A    
C17   N1    A    
C54   H41   S    
