data_mof_unit_55357.cif
_audit_creation_date              2012-10-26T18:47:37-0400
_audit_creation_method            fapswitch 2.2
_symmetry_space_group_name_H-M    P1
_symmetry_Int_Tables_number       1
_space_group_crystal_system       triclinic
_cell_length_a                    10.883493
_cell_length_b                    12.92021
_cell_length_c                    11.679185
_cell_angle_alpha                 101.012213
_cell_angle_beta                  94.738919
_cell_angle_gamma                 91.36722
_cell_volume                      1605.22133603

loop_
_atom_site_label
_atom_site_type_symbol
_atom_type_description
_atom_site_fract_x
_atom_site_fract_y
_atom_site_fract_z
_atom_type_partial_charge
C1    C     C_R   0.492437 0.298851 0.477508 0.537311
C2    C     C_R   0.653641 0.975870 0.588089 0.009883
C3    C     C_R   0.370617 0.128886 0.415881 -0.031626
C4    C     C_R   0.641691 0.865554 0.580242 -0.012455
C5    C     C_R   0.583856 0.130716 0.503665 -0.004860
C6    C     C_R   0.423455 0.872631 0.513325 0.034103
C7    C     C_R   0.562515 0.027649 0.527205 -0.001604
C8    C     C_R   0.446256 0.973654 0.486672 0.052000
C9    C     C_R   0.438254 0.368772 0.018351 -0.039530
C10   C     C_R   0.560267 0.632073 0.981325 -0.016488
C11   C     C_R   0.433673 0.388069 0.140728 0.013298
C12   C     C_R   0.510050 0.700667 0.522844 0.541885
C13   C     C_R   0.565680 0.612511 0.858989 0.010933
C14   C     C_R   0.522243 0.559478 0.159936 0.113945
C15   C     C_R   0.478430 0.440489 0.840141 0.065103
C16   C     C_R   0.261878 0.500520 0.498633 0.533200
C17   C     C_R   0.738037 0.500294 0.501404 0.529499
C18   C     C_R   0.520360 0.549152 0.036009 -0.000690
C19   C     C_R   0.479675 0.451240 0.963976 -0.030537
C20   C     C_R   0.162091 0.519235 0.100745 -0.025700
C21   C     C_R   0.836056 0.475854 0.894239 0.000931
C22   C     C_R   0.142188 0.536555 0.220458 -0.033337
C23   C     C_R   0.871950 0.500462 0.504436 -0.012751
C24   C     C_R   0.858273 0.461773 0.775492 0.019235
C25   C     C_R   0.089849 0.457129 0.269412 -0.014628
C26   C     C_R   0.907762 0.544059 0.729378 -0.004818
C27   C     C_R   0.055495 0.359616 0.197517 -0.138377
C28   C     C_R   0.934492 0.642362 0.802259 -0.134451
C29   C     C_R   0.074775 0.338915 0.077923 -0.001396
C30   C     C_R   0.916705 0.658958 0.922097 0.001730
C31   C     C_R   0.128053 0.419590 0.027747 -0.043424
C32   C     C_R   0.867798 0.574709 0.969702 -0.044007
C33   C     C_R   0.922581 0.479488 0.396898 -0.142133
C34   C     C_R   0.127868 0.502473 0.495573 -0.008693
C35   C     C_R   0.077046 0.524079 0.603391 -0.130624
C36   C     C_2   0.148638 0.401723 0.900766 0.168266
C37   C     C_2   0.853922 0.586677 0.097294 0.154061
C38   C     C_2   0.402051 0.260435 0.953955 0.208061
C39   C     C_2   0.592109 0.741613 0.044650 0.276713
C40   C     C_2   0.211946 0.608614 0.052749 0.207612
C41   C     C_2   0.778944 0.386145 0.937035 0.258247
C42   C     C_2   0.042937 0.230783 0.009660 0.288122
C43   C     C_2   0.959790 0.762213 0.996237 0.271496
C44   C     C_3   0.293882 0.829995 0.528778 -0.279765
C45   C     C_R   0.950357 0.522998 0.609899 -0.027481
C46   C     C_3   0.226019 0.908168 0.614594 -0.421821
C47   C     C_3   0.713886 0.180304 0.504068 -0.260949
C48   C     C_3   0.790858 0.112348 0.417030 -0.395934
C49   C     C_3   0.750926 0.803300 0.616972 -0.257172
C50   C     C_3   0.840670 0.784199 0.521901 -0.393561
C51   C     C_3   0.270003 0.181671 0.351388 -0.279467
C52   C     C_3   0.276321 0.151138 0.218867 -0.398533
C53   C     C_2   0.256986 0.956757 0.342984 0.217285
C54   C     C_2   0.748551 0.038213 0.674035 0.233662
C55   C     C_R   0.049109 0.480851 0.389870 -0.030285
C56   C     C_R   0.525587 0.814756 0.539769 0.019105
C57   C     C_R   0.482368 0.184079 0.463636 0.026794
C58   C     C_R   0.357191 0.021109 0.419738 0.037529
Cu1   Cu    Cu3+1 0.509250 0.507730 0.615930 0.934543
Cu2   Cu    Cu3+1 0.490750 0.492270 0.384070 0.957781
H1    H     H_    0.437817 0.370810 0.782585 0.194957
H2    H     H_    0.136467 0.540875 0.684559 0.145536
H3    H     H_    0.223152 0.443608 0.870949 0.098126
H4    H     H_    0.868232 0.520245 0.140027 0.107141
H5    H     H_    0.333906 0.213998 0.987246 0.091538
H6    H     H_    0.655334 0.790741 0.008860 0.125165
H7    H     H_    0.202525 0.608342 0.959651 0.095756
H8    H     H_    0.746885 0.396546 0.023680 0.103530
H9    H     H_    0.087116 0.200087 0.931160 0.177391
H10   H     H_    0.982708 0.770049 0.089568 0.186749
H11   H     H_    0.282960 0.930769 0.699617 0.186240
H12   H     H_    0.563440 0.628927 0.217513 0.207777
H13   H     H_    0.204603 0.980305 0.579746 0.161148
H14   H     H_    0.137519 0.870755 0.630114 0.164059
H15   H     H_    0.236957 0.804892 0.444770 0.183455
H16   H     H_    0.298597 0.757418 0.566390 0.148039
H17   H     H_    0.807566 0.034449 0.440404 0.186435
H18   H     H_    0.742872 0.100007 0.327473 0.179237
H19   H     H_    0.881729 0.153165 0.416372 0.144111
H20   H     H_    0.711327 0.257762 0.476563 0.146751
H21   H     H_    0.762992 0.199423 0.592519 0.173898
H22   H     H_    0.794369 0.734781 0.440734 0.182525
H23   H     H_    0.598748 0.674809 0.817956 0.123188
H24   H     H_    0.874512 0.859760 0.501612 0.194280
H25   H     H_    0.921254 0.742153 0.551975 0.130607
H26   H     H_    0.799247 0.843819 0.701487 0.209488
H27   H     H_    0.722395 0.725531 0.634373 0.152236
H28   H     H_    0.373582 0.148392 0.196451 0.166806
H29   H     H_    0.229245 0.073400 0.182619 0.200793
H30   H     H_    0.229494 0.209915 0.175656 0.120180
H31   H     H_    0.177440 0.159617 0.374835 0.126684
H32   H     H_    0.276415 0.268763 0.377342 0.168658
H33   H     H_    0.161738 0.979039 0.346617 0.094410
H34   H     H_    0.400933 0.326409 0.181863 0.124816
H35   H     H_    0.720366 0.104773 0.736533 0.192318
H36   H     H_    0.162890 0.613635 0.275382 0.171058
H37   H     H_    0.839357 0.385561 0.718269 0.173810
H38   H     H_    0.013209 0.299067 0.235919 0.157716
H39   H     H_    0.976190 0.704643 0.766135 0.154618
H40   H     H_    0.862687 0.461208 0.316292 0.142318
N1    N     N_R   0.523180 0.519350 0.790130 -0.251847
N2    N     N_R   0.476820 0.480650 0.209870 -0.250857
O1    O     O_R   0.506570 0.354460 0.582000 -0.494257
O2    O     O_2   0.824337 0.669480 0.155746 -0.547699
O3    O     O_2   0.452508 0.219373 0.868128 -0.491931
O4    O     O_2   0.543685 0.780439 0.132581 -0.438254
O5    O     O_2   0.263959 0.685171 0.117519 -0.420692
O6    O     O_2   0.764943 0.298648 0.874663 -0.471161
O7    O     O_2   0.968318 0.173071 0.042318 -0.468454
O8    O     O_2   0.972774 0.840294 0.953015 -0.485082
O9    O     O_2   0.281635 0.879844 0.271573 -0.415353
O10   O     O_2   0.857855 0.019226 0.673369 -0.506345
O11   O     O_R   0.493430 0.645540 0.418000 -0.477822
O12   O     O_R   0.490940 0.341410 0.386200 -0.515343
O13   O     O_R   0.509060 0.658590 0.613800 -0.527214
O14   O     O_R   0.327460 0.506540 0.597900 -0.508415
O15   O     O_R   0.672540 0.493460 0.402100 -0.508056
O16   O     O_R   0.311830 0.493480 0.402100 -0.498045
O17   O     O_R   0.688170 0.506520 0.597900 -0.507543
O18   O     O_2   0.081347 0.341974 0.827094 -0.514413

loop_
_geom_bond_atom_site_label_1
_geom_bond_atom_site_label_2
_ccdc_geom_bond_type
C33   C55   A    
C39   O4    D    
C27   H38   S    
C23   C45   A    
C41   O6    D    
C29   C42   S    
C27   C29   A    
C14   C18   A    
Cu2   O12   S    
C2    C7    A    
Cu2   O11   S    
C50   H24   S    
C7    C8    A    
C15   C19   A    
C5    C47   S    
C17   C23   S    
C48   H19   S    
C42   O7    D    
C24   C26   A    
C18   C19   A    
C16   O16   A    
C20   C40   S    
C14   N2    A    
C34   C35   A    
C48   H18   S    
C44   H16   S    
C49   H27   S    
C50   H25   S    
C16   C34   S    
C52   H30   S    
C9    C19   A    
Cu1   O14   S    
C23   C33   A    
C22   C25   A    
C54   H35   S    
Cu2   O16   S    
C43   O8    D    
C35   H2    S    
C36   H3    S    
C1    O1    A    
C26   C45   S    
C17   O15   A    
C12   O13   A    
C8    C58   A    
C53   O9    D    
Cu1   Cu2   S    
C6    C44   S    
C4    C56   A    
C51   H31   S    
C52   H29   S    
C22   H36   S    
C47   H20   S    
Cu2   N2    S    
C16   O14   A    
C44   C46   S    
C41   H8    S    
C21   C32   A    
C53   H33   S    
C51   C52   S    
Cu1   N1    S    
C52   H28   S    
C2    C54   S    
C6    C56   A    
C5    C7    A    
C3    C51   S    
C6    C8    A    
C40   H7    S    
C42   H9    S    
C24   H37   S    
C10   C39   S    
C48   H17   S    
C44   H15   S    
C2    C4    A    
C1    C57   S    
C51   H32   S    
C47   C48   S    
C38   H5    S    
C15   H1    S    
C54   O10   D    
Cu2   O15   S    
C32   C37   S    
C15   N1    A    
C9    C11   A    
C46   H11   S    
C12   C56   S    
C40   O5    D    
C21   C41   S    
C3    C57   A    
C28   H39   S    
C20   C22   A    
C43   H10   S    
C39   H6    S    
C30   C43   S    
C1    O12   A    
C13   N1    A    
C35   C45   A    
C46   H14   S    
C37   H4    S    
C50   H22   S    
C12   O11   A    
Cu1   O17   S    
C14   H12   S    
C49   H26   S    
C25   C55   S    
C11   H34   S    
C10   C13   A    
C37   O2    D    
C53   C58   S    
C25   C27   A    
C13   H23   S    
C26   C28   A    
C5    C57   A    
C4    C49   S    
C33   H40   S    
Cu1   O1    S    
C38   O3    D    
C28   C30   A    
C29   C31   A    
C30   C32   A    
C10   C18   A    
C9    C38   S    
C11   N2    A    
C47   H21   S    
C36   O18   D    
C17   O17   A    
C3    C58   A    
C34   C55   A    
Cu1   O13   S    
C49   C50   S    
C21   C24   A    
C31   C36   S    
C46   H13   S    
C20   C31   A    
