data_mof_unit_65160.cif
_audit_creation_date              2012-10-26T17:58:50-0400
_audit_creation_method            fapswitch 2.2
_symmetry_space_group_name_H-M    P1
_symmetry_Int_Tables_number       1
_space_group_crystal_system       triclinic
_cell_length_a                    37.192701
_cell_length_b                    30.423883
_cell_length_c                    21.410646
_cell_angle_alpha                 89.999929
_cell_angle_beta                  54.687517
_cell_angle_gamma                 90.000039
_cell_volume                      19769.6282756

loop_
_atom_site_label
_atom_site_type_symbol
_atom_type_description
_atom_site_fract_x
_atom_site_fract_y
_atom_site_fract_z
_atom_type_partial_charge
C1    C     C_R   0.914934 0.500034 0.085333 0.554642
C2    C     C_3   0.958960 0.487011 0.770219 -0.151205
C3    C     C_R   0.490529 0.656446 0.454468 -0.140416
C4    C     C_R   0.009471 0.156446 0.545531 -0.140417
C5    C     C_R   0.990529 0.156446 0.454468 -0.140417
C6    C     C_R   0.500000 0.414908 0.500000 0.578539
C7    C     C_R   0.000000 0.914909 0.500000 0.578612
C8    C     C_R   0.040268 0.702827 0.461341 0.237066
C9    C     C_R   0.959732 0.702827 0.538656 0.237066
C10   C     C_R   0.540270 0.202826 0.461278 0.237068
C11   C     C_R   0.459731 0.202826 0.538720 0.237068
C12   C     C_R   0.039822 0.656710 0.463542 -0.128126
C13   C     C_3   0.541041 0.987015 0.229779 -0.151212
C14   C     C_R   0.960178 0.656711 0.536456 -0.128126
C15   C     C_R   0.539825 0.156710 0.463479 -0.128122
C16   C     C_R   0.460175 0.156710 0.536520 -0.128122
C17   C     C_R   0.000000 0.633503 0.499999 -0.057996
C18   C     C_R   0.500000 0.133503 0.500000 -0.057987
C19   C     C_R   0.509717 0.702206 0.545176 -0.124067
C20   C     C_R   0.490284 0.702206 0.454824 -0.124066
C21   C     C_R   0.009716 0.202206 0.545176 -0.124067
C22   C     C_R   0.990283 0.202206 0.454824 -0.124066
C23   C     C_R   0.000000 0.725771 0.499998 0.052602
C24   C     C_3   0.458960 0.987011 0.770219 -0.151205
C25   C     C_R   0.500000 0.225769 0.499999 0.052594
C26   C     C_R   0.520386 0.297079 0.431005 -0.082873
C27   C     C_R   0.479614 0.297079 0.568994 -0.082872
C28   C     C_R   0.020431 0.797082 0.430997 -0.082879
C29   C     C_R   0.979570 0.797081 0.569000 -0.082876
C30   C     C_R   0.519642 0.343100 0.430416 0.209648
C31   C     C_R   0.480359 0.343100 0.569583 0.209645
C32   C     C_R   0.019688 0.843104 0.430407 0.209622
C33   C     C_R   0.980314 0.843103 0.569592 0.209617
C34   C     C_R   0.500000 0.366427 0.500000 0.016935
C35   C     C_3   0.030946 0.527617 0.199202 0.254633
C36   C     C_R   0.000001 0.866429 0.500000 0.016979
C37   C     C_R   0.500000 0.725317 0.500000 0.034987
C38   C     C_R   1.000000 0.225317 0.500000 0.034988
C39   C     C_R   0.964238 0.296547 0.511102 -0.127780
C40   C     C_R   0.035761 0.296546 0.488898 -0.127779
C41   C     C_R   0.464238 0.796546 0.511103 -0.127779
C42   C     C_R   0.535761 0.796547 0.488898 -0.127779
C43   C     C_3   0.959929 0.511961 0.269367 -0.184462
C44   C     C_3   0.040071 0.511961 0.730632 -0.184461
C45   C     C_3   0.459928 0.011957 0.269369 -0.184460
C46   C     C_3   0.969054 0.527618 0.800797 0.254633
C47   C     C_3   0.540071 0.011961 0.730632 -0.184460
C48   C     C_3   0.990985 0.539683 0.279490 0.282181
C49   C     C_3   0.009015 0.539683 0.720510 0.282181
C50   C     C_3   0.490982 0.039683 0.279493 0.282181
C51   C     C_3   0.509015 0.039684 0.720510 0.282181
C52   C     C_3   0.000344 0.499297 0.310945 -0.018550
C53   C     C_3   0.999656 0.499298 0.689055 -0.018550
C54   C     C_3   0.500344 0.999298 0.310945 -0.018549
C55   C     C_3   0.499656 0.999298 0.689055 -0.018550
C56   C     C_3   0.969261 0.470960 0.301447 -0.170393
C57   C     C_3   0.530944 0.027620 0.199205 0.254633
C58   C     C_3   0.030739 0.470960 0.698553 -0.170392
C59   C     C_3   0.469264 0.970957 0.301444 -0.170385
C60   C     C_3   0.530739 0.970960 0.698553 -0.170392
C61   C     C_3   0.968935 0.610589 0.281340 -0.115039
C62   C     C_3   0.031066 0.610589 0.718659 -0.115040
C63   C     C_3   0.468925 0.110586 0.281350 -0.115042
C64   C     C_3   0.531065 0.110589 0.718660 -0.115043
C65   C     C_3   0.794253 0.609926 0.268055 -0.139465
C66   C     C_3   0.205745 0.609931 0.731955 -0.139469
C67   C     C_3   0.294255 0.109929 0.268047 -0.139470
C68   C     C_3   0.469054 0.027617 0.800798 0.254633
C69   C     C_3   0.705745 0.109930 0.731954 -0.139470
C70   C     C_3   0.620988 0.405353 0.437907 -0.270882
C71   C     C_3   0.379012 0.405349 0.562107 -0.270882
C72   C     C_3   0.120986 0.905348 0.437892 -0.270860
C73   C     C_3   0.879013 0.905348 0.562110 -0.270860
C74   C     C_3   0.616374 0.595243 0.323809 -0.278533
C75   C     C_3   0.383629 0.595247 0.676176 -0.278530
C76   C     C_3   0.116371 0.095247 0.323824 -0.278532
C77   C     C_3   0.883629 0.095247 0.676173 -0.278530
C78   C     C_3   0.734203 0.596268 0.184071 -0.291936
C79   C     C_3   0.000448 0.499915 0.188280 0.039826
C80   C     C_3   0.265804 0.596277 0.815914 -0.291909
C81   C     C_3   0.234196 0.096277 0.184087 -0.291909
C82   C     C_3   0.765805 0.096278 0.815911 -0.291907
C83   C     C_3   0.934001 0.377507 0.449414 -0.293247
C84   C     C_3   0.065998 0.377507 0.550586 -0.293247
C85   C     C_3   0.434000 0.877508 0.449417 -0.293241
C86   C     C_3   0.565999 0.877507 0.550585 -0.293246
C87   C     C_3   0.108785 0.714839 0.350254 -0.127141
C88   C     C_3   0.891216 0.714840 0.649742 -0.127138
C89   C     C_3   0.608748 0.214843 0.350110 -0.127132
C90   C     C_3   0.999552 0.499915 0.811720 0.039826
C91   C     C_3   0.391250 0.214841 0.649884 -0.127135
C92   C     C_3   0.518605 0.360194 0.327899 -0.100324
C93   C     C_3   0.481400 0.360195 0.672095 -0.100326
C94   C     C_3   0.018762 0.860189 0.327772 -0.100341
C95   C     C_3   0.981251 0.860194 0.672212 -0.100339
C96   C     C_3   0.020585 0.386377 0.230549 -0.118428
C97   C     C_3   0.979414 0.386377 0.769452 -0.118431
C98   C     C_3   0.520607 0.886381 0.230530 -0.118424
C99   C     C_3   0.479415 0.886377 0.769451 -0.118429
C100  C     C_3   0.089151 0.573546 0.162573 -0.118571
C101  C     C_3   0.500448 0.999915 0.188280 0.039826
C102  C     C_3   0.910849 0.573546 0.837426 -0.118572
C103  C     C_3   0.589144 0.073555 0.162580 -0.118575
C104  C     C_3   0.410849 0.073546 0.837426 -0.118575
C105  C     C_3   0.776632 0.434029 0.104839 -0.118304
C106  C     C_3   0.223389 0.434028 0.895119 -0.118305
C107  C     C_3   0.276611 0.934028 0.104880 -0.118306
C108  C     C_3   0.723390 0.934028 0.895118 -0.118308
C109  C     C_R   0.085066 0.500034 0.914667 0.554642
C110  C     C_3   0.499552 0.999915 0.811720 0.039826
C111  C     C_R   0.797072 0.466526 0.175326 0.235951
C112  C     C_R   0.202927 0.466523 0.824663 0.235934
C113  C     C_R   0.297072 0.966522 0.175336 0.235934
C114  C     C_R   0.702928 0.966522 0.824663 0.235933
C115  C     C_R   0.843126 0.465600 0.130786 -0.124927
C116  C     C_R   0.156874 0.465597 0.869204 -0.124912
C117  C     C_R   0.343126 0.965597 0.130795 -0.124912
C118  C     C_R   0.656874 0.965597 0.869204 -0.124913
C119  C     C_R   0.866619 0.500325 0.134080 -0.062216
C120  C     C_R   0.414933 0.000033 0.085333 0.554642
C121  C     C_R   0.133381 0.500325 0.865919 -0.062222
C122  C     C_R   0.366619 0.000325 0.134081 -0.062221
C123  C     C_R   0.633381 0.000325 0.865919 -0.062222
C124  C     C_R   0.843923 0.535456 0.184378 -0.144751
C125  C     C_R   0.156077 0.535460 0.815629 -0.144753
C126  C     C_R   0.343923 0.035459 0.184371 -0.144753
C127  C     C_R   0.656077 0.035460 0.815629 -0.144753
C128  C     C_R   0.797396 0.536657 0.231206 0.258139
C129  C     C_R   0.202604 0.536661 0.768801 0.258161
C130  C     C_R   0.297396 0.036660 0.231200 0.258161
C131  C     C_R   0.585066 0.000034 0.914667 0.554642
C132  C     C_R   0.702604 0.036661 0.768800 0.258162
C133  C     C_R   0.774396 0.501662 0.226160 0.085533
C134  C     C_R   0.225604 0.501663 0.773840 0.085525
C135  C     C_R   0.274396 0.001663 0.226160 0.085525
C136  C     C_R   0.725604 0.001663 0.773840 0.085524
C137  C     C_R   0.000399 0.499991 0.119973 0.587028
C138  C     C_R   0.999601 0.499991 0.880027 0.587027
C139  C     C_R   0.500399 0.999991 0.119973 0.587026
C140  C     C_R   0.499601 0.999991 0.880027 0.587028
C141  C     C_R   0.703150 0.476699 0.340156 -0.107159
C142  C     C_3   0.009610 0.459690 0.220161 0.250988
C143  C     C_R   0.296850 0.476696 0.659848 -0.107158
C144  C     C_R   0.203150 0.976695 0.340152 -0.107156
C145  C     C_R   0.796850 0.976695 0.659849 -0.107156
C146  C     C_R   0.657186 0.475072 0.385715 0.087806
C147  C     C_R   0.342814 0.475069 0.614289 0.087802
C148  C     C_R   0.157186 0.975068 0.385710 0.087802
C149  C     C_R   0.842814 0.975068 0.614290 0.087801
C150  C     C_R   0.633561 0.500889 0.365982 0.041401
C151  C     C_R   0.366439 0.500890 0.634018 0.041403
C152  C     C_R   0.133561 0.000890 0.365982 0.041406
C153  C     C_3   0.990390 0.459690 0.779840 0.250988
C154  C     C_R   0.866439 0.000890 0.634018 0.041407
C155  C     C_R   0.656510 0.527260 0.299086 0.108650
C156  C     C_R   0.343490 0.527264 0.700909 0.108647
C157  C     C_R   0.156510 0.027264 0.299091 0.108646
C158  C     C_R   0.843490 0.027265 0.700908 0.108646
C159  C     C_R   0.703070 0.526815 0.251729 0.158055
C160  C     C_R   0.296931 0.526820 0.748266 0.158035
C161  C     C_R   0.203069 0.026820 0.251735 0.158036
C162  C     C_R   0.796931 0.026820 0.748265 0.158035
C163  C     C_R   0.725981 0.502107 0.273710 0.084243
C164  C     C_3   0.509614 0.959691 0.220157 0.250989
C165  C     C_R   0.274019 0.502108 0.726290 0.084220
C166  C     C_R   0.225981 0.002107 0.273710 0.084220
C167  C     C_R   0.774019 0.002107 0.726290 0.084219
C168  C     C_R   1.000000 0.366091 0.500000 0.059627
C169  C     C_R   0.500000 0.866091 0.500000 0.059626
C170  C     C_R   1.000000 0.273555 0.500000 -0.022719
C171  C     C_R   0.500000 0.773555 0.500000 -0.022719
C172  C     C_R   0.500000 0.274106 0.499999 0.016745
C173  C     C_R   0.000000 0.774108 0.499998 0.016748
C174  C     C_R   1.000000 0.585122 0.500000 0.587880
C175  C     C_3   0.490390 0.959690 0.779839 0.250988
C176  C     C_R   0.500000 0.085122 0.500000 0.587881
C177  C     C_R   0.963892 0.342484 0.510792 0.099992
C178  C     C_R   0.036108 0.342484 0.489208 0.099992
C179  C     C_R   0.463892 0.842484 0.510793 0.099992
C180  C     C_R   0.536108 0.842484 0.489208 0.099992
C181  C     C_R   0.000071 0.499688 0.379518 0.578761
C182  C     C_R   0.999929 0.499688 0.620482 0.578761
C183  C     C_R   0.500071 0.999688 0.379518 0.578758
C184  C     C_R   0.499929 0.999688 0.620482 0.578760
C185  C     C_R   1.000000 0.414744 0.500000 0.560673
C186  C     C_3   0.041040 0.487011 0.229781 -0.151205
C187  C     C_R   0.500000 0.914744 0.500000 0.560671
C188  C     C_R   0.500000 0.633221 0.500000 0.004344
C189  C     C_R   1.000000 0.133221 0.500000 0.004343
C190  C     C_R   0.500000 0.585006 0.500000 0.520334
C191  C     C_R   1.000000 0.085006 0.500000 0.520336
C192  C     C_R   0.585047 0.500143 0.414836 0.579655
C193  C     C_R   0.414953 0.500143 0.585164 0.579658
C194  C     C_R   0.085047 0.000143 0.414836 0.579673
C195  C     C_R   0.914953 0.000143 0.585164 0.579673
C196  C     C_R   0.509471 0.656446 0.545531 -0.140416
Cu1   Cu    Cu3+1 0.000000 0.455950 0.000000 1.011579
Cu2   Cu    Cu3+1 0.499990 0.500000 0.437250 0.959871
Cu3   Cu    Cu3+1 0.000010 0.000000 0.562750 0.959838
Cu4   Cu    Cu3+1 0.999990 0.000000 0.437250 0.959844
Cu5   Cu    Cu3+1 0.500000 0.955950 0.000000 1.011579
Cu6   Cu    Cu3+1 0.000000 0.544060 0.000000 0.941150
Cu7   Cu    Cu3+1 0.500000 0.044060 0.000000 0.941152
Cu8   Cu    Cu3+1 0.044060 0.499960 0.455930 0.943935
Cu9   Cu    Cu3+1 0.955940 0.499960 0.544070 0.943935
Cu10  Cu    Cu3+1 0.544060 0.999960 0.455930 0.943940
Cu11  Cu    Cu3+1 0.455940 0.999960 0.544070 0.943944
Cu12  Cu    Cu3+1 0.500010 0.500000 0.562750 0.959866
H1    H     H_    0.721308 0.457139 0.355522 0.123595
H2    H     H_    0.483028 0.639296 0.418972 0.128662
H3    H     H_    0.905107 0.112184 0.689005 0.144549
H4    H     H_    0.719548 0.541581 0.143005 0.233130
H5    H     H_    0.769502 0.604046 0.140949 0.149885
H6    H     H_    0.725144 0.606227 0.241426 0.181147
H7    H     H_    0.714160 0.615705 0.170706 0.116416
H8    H     H_    0.280450 0.541589 0.856990 0.233117
H9    H     H_    0.230506 0.604059 0.859034 0.149886
H10   H     H_    0.274866 0.606234 0.758557 0.181158
H11   H     H_    0.285849 0.615711 0.829278 0.116407
H12   H     H_    0.219550 0.041589 0.143010 0.233116
H13   H     H_    0.016972 0.139295 0.581027 0.128662
H14   H     H_    0.269494 0.104059 0.140968 0.149887
H15   H     H_    0.225135 0.106234 0.241444 0.181159
H16   H     H_    0.214152 0.115712 0.170723 0.116408
H17   H     H_    0.780450 0.041590 0.856989 0.233116
H18   H     H_    0.730507 0.104060 0.859030 0.149887
H19   H     H_    0.774866 0.106235 0.758553 0.181159
H20   H     H_    0.785849 0.115712 0.829275 0.116408
H21   H     H_    0.897666 0.348368 0.556210 0.241147
H22   H     H_    0.937576 0.347945 0.415747 0.117756
H23   H     H_    0.963908 0.398329 0.415044 0.147926
H24   H     H_    0.983028 0.139296 0.418972 0.128662
H25   H     H_    0.905198 0.396830 0.461978 0.142483
H26   H     H_    0.102333 0.348368 0.443791 0.241147
H27   H     H_    0.062423 0.347945 0.584253 0.117756
H28   H     H_    0.036091 0.398329 0.584956 0.147926
H29   H     H_    0.094801 0.396830 0.538023 0.142483
H30   H     H_    0.397666 0.848368 0.556211 0.241147
H31   H     H_    0.437576 0.847947 0.415749 0.117760
H32   H     H_    0.463907 0.898330 0.415048 0.147926
H33   H     H_    0.405197 0.896831 0.461981 0.142486
H34   H     H_    0.602333 0.848368 0.443790 0.241148
H35   H     H_    0.070586 0.639036 0.437279 0.143486
H36   H     H_    0.562424 0.847945 0.584253 0.117756
H37   H     H_    0.536092 0.898329 0.584956 0.147926
H38   H     H_    0.594802 0.896831 0.538022 0.142484
H39   H     H_    0.092224 0.712858 0.320493 0.099551
H40   H     H_    0.125951 0.683520 0.343839 0.115884
H41   H     H_    0.134314 0.740823 0.321262 0.148492
H42   H     H_    0.907777 0.712859 0.679503 0.099552
H43   H     H_    0.874050 0.683521 0.656158 0.115883
H44   H     H_    0.865687 0.740824 0.678734 0.148492
H45   H     H_    0.592145 0.212872 0.320419 0.099554
H46   H     H_    0.929414 0.639036 0.562720 0.143486
H47   H     H_    0.625919 0.183520 0.343647 0.115869
H48   H     H_    0.634275 0.240826 0.321083 0.148501
H49   H     H_    0.407851 0.212866 0.679578 0.099557
H50   H     H_    0.374078 0.183520 0.656341 0.115872
H51   H     H_    0.365723 0.240824 0.678910 0.148500
H52   H     H_    0.533283 0.382537 0.277903 0.140156
H53   H     H_    0.483203 0.369304 0.368318 0.118977
H54   H     H_    0.521795 0.326109 0.306582 0.097912
H55   H     H_    0.466721 0.382536 0.722094 0.140154
H56   H     H_    0.516800 0.369309 0.631674 0.118980
H57   H     H_    0.570593 0.139036 0.437163 0.143482
H58   H     H_    0.478215 0.326109 0.693407 0.097912
H59   H     H_    0.033466 0.882541 0.277784 0.140161
H60   H     H_    0.983349 0.869278 0.368123 0.118988
H61   H     H_    0.021993 0.826106 0.306419 0.097922
H62   H     H_    0.966543 0.882539 0.722209 0.140158
H63   H     H_    0.016660 0.869295 0.631856 0.119003
H64   H     H_    0.978035 0.826109 0.693549 0.097919
H65   H     H_    0.986549 0.379123 0.280629 0.106960
H66   H     H_    0.041712 0.396207 0.249489 0.105720
H67   H     H_    0.034420 0.355548 0.197169 0.141540
H68   H     H_    0.429407 0.139036 0.562836 0.143480
H69   H     H_    0.013450 0.379123 0.719372 0.106961
H70   H     H_    0.958287 0.396207 0.750512 0.105719
H71   H     H_    0.965579 0.355548 0.802832 0.141538
H72   H     H_    0.486576 0.879126 0.280627 0.106948
H73   H     H_    0.541746 0.896214 0.249442 0.105728
H74   H     H_    0.534436 0.855552 0.197150 0.141539
H75   H     H_    0.513451 0.879123 0.719372 0.106960
H76   H     H_    0.458288 0.896207 0.750511 0.105719
H77   H     H_    0.465579 0.855548 0.802831 0.141539
H78   H     H_    0.110795 0.547150 0.159460 0.111290
H79   H     H_    0.927284 0.521984 0.283611 0.108827
H80   H     H_    0.069915 0.588964 0.220307 0.153135
H81   H     H_    0.110771 0.599307 0.120756 0.130502
H82   H     H_    0.889205 0.547150 0.840539 0.111288
H83   H     H_    0.930085 0.588964 0.779692 0.153136
H84   H     H_    0.889229 0.599307 0.879243 0.130501
H85   H     H_    0.610790 0.047160 0.159466 0.111290
H86   H     H_    0.569906 0.088971 0.220315 0.153128
H87   H     H_    0.610762 0.099318 0.120765 0.130500
H88   H     H_    0.389205 0.047149 0.840538 0.111290
H89   H     H_    0.430085 0.088964 0.779693 0.153129
H90   H     H_    0.072716 0.521984 0.716389 0.108827
H91   H     H_    0.389229 0.099307 0.879244 0.130500
H92   H     H_    0.810792 0.427630 0.054084 0.117154
H93   H     H_    0.764717 0.466271 0.098896 0.123688
H94   H     H_    0.755140 0.408184 0.106245 0.142477
H95   H     H_    0.189228 0.427667 0.945901 0.117145
H96   H     H_    0.235345 0.466258 0.901005 0.123696
H97   H     H_    0.244860 0.408162 0.893723 0.142478
H98   H     H_    0.310772 0.927668 0.054099 0.117144
H99   H     H_    0.264654 0.966259 0.098995 0.123696
H100  H     H_    0.255140 0.908162 0.106275 0.142474
H101  H     H_    0.427282 0.021977 0.283613 0.108827
H102  H     H_    0.689229 0.927669 0.945901 0.117143
H103  H     H_    0.735348 0.966258 0.901002 0.123696
H104  H     H_    0.744860 0.908162 0.893723 0.142475
H105  H     H_    0.278692 0.457134 0.644485 0.123607
H106  H     H_    0.572715 0.021984 0.716389 0.108828
H107  H     H_    0.936457 0.278693 0.519796 0.108973
H108  H     H_    0.063543 0.278693 0.480204 0.108973
H109  H     H_    0.436457 0.778693 0.519797 0.108972
H110  H     H_    0.563543 0.778693 0.480204 0.108972
H111  H     H_    0.536743 0.279178 0.377518 0.128244
H112  H     H_    0.463258 0.279177 0.622481 0.128248
H113  H     H_    0.036823 0.779180 0.377506 0.128249
H114  H     H_    0.963179 0.779179 0.622491 0.128255
H115  H     H_    0.944036 0.447685 0.344317 0.112084
H116  H     H_    0.221308 0.957132 0.355515 0.123608
H117  H     H_    0.055963 0.447685 0.655683 0.112084
H118  H     H_    0.444041 0.947680 0.344312 0.112085
H119  H     H_    0.555964 0.947685 0.655683 0.112084
H120  H     H_    0.073559 0.476153 0.215152 0.111507
H121  H     H_    0.926441 0.476153 0.784848 0.111505
H122  H     H_    0.573562 0.976160 0.215149 0.111500
H123  H     H_    0.426441 0.976152 0.784848 0.111507
H124  H     H_    0.860471 0.437977 0.092997 0.150403
H125  H     H_    0.139529 0.437972 0.906987 0.150423
H126  H     H_    0.360471 0.937972 0.093012 0.150422
H127  H     H_    0.778692 0.957132 0.644486 0.123608
H128  H     H_    0.639529 0.937971 0.906987 0.150423
H129  H     H_    0.862850 0.560959 0.188131 0.120607
H130  H     H_    0.137150 0.560965 0.811883 0.120607
H131  H     H_    0.362850 0.060964 0.188118 0.120606
H132  H     H_    0.637150 0.060964 0.811883 0.120606
H133  H     H_    0.936350 0.601098 0.294576 0.112652
H134  H     H_    0.993872 0.613119 0.218402 0.156087
H135  H     H_    0.965333 0.643731 0.305931 0.135529
H136  H     H_    0.063650 0.601098 0.705423 0.112652
H137  H     H_    0.006128 0.613119 0.781597 0.156088
H138  H     H_    0.516990 0.719603 0.580798 0.105170
H139  H     H_    0.034667 0.643731 0.694068 0.135530
H140  H     H_    0.436341 0.101093 0.294585 0.112653
H141  H     H_    0.493862 0.113118 0.218412 0.156086
H142  H     H_    0.465320 0.143728 0.305943 0.135517
H143  H     H_    0.563650 0.101099 0.705425 0.112654
H144  H     H_    0.506127 0.113119 0.781598 0.156087
H145  H     H_    0.534666 0.143732 0.694069 0.135516
H146  H     H_    0.809892 0.619032 0.207115 0.104819
H147  H     H_    0.818616 0.610228 0.282308 0.120978
H148  H     H_    0.769317 0.635511 0.303708 0.134034
H149  H     H_    0.483010 0.719603 0.419201 0.105170
H150  H     H_    0.230680 0.635517 0.696305 0.134031
H151  H     H_    0.190103 0.619037 0.792896 0.104822
H152  H     H_    0.181384 0.610230 0.717698 0.120978
H153  H     H_    0.269320 0.135516 0.303698 0.134031
H154  H     H_    0.309897 0.119036 0.207106 0.104822
H155  H     H_    0.318616 0.110228 0.282304 0.120978
H156  H     H_    0.730680 0.135517 0.696302 0.134031
H157  H     H_    0.690103 0.119037 0.792894 0.104822
H158  H     H_    0.681384 0.110229 0.717696 0.120978
H159  H     H_    0.651259 0.442492 0.476100 0.245684
H160  H     H_    0.016989 0.219603 0.580799 0.105170
H161  H     H_    0.650177 0.385464 0.395020 0.149428
H162  H     H_    0.599920 0.410792 0.417371 0.175631
H163  H     H_    0.601474 0.386698 0.492459 0.135369
H164  H     H_    0.348740 0.442484 0.523908 0.245685
H165  H     H_    0.349822 0.385461 0.604996 0.149431
H166  H     H_    0.400079 0.410791 0.582642 0.175632
H167  H     H_    0.398525 0.386692 0.507557 0.135374
H168  H     H_    0.151259 0.942481 0.476090 0.245688
H169  H     H_    0.150175 0.885459 0.395005 0.149430
H170  H     H_    0.099921 0.910791 0.417354 0.175703
H171  H     H_    0.983010 0.219603 0.419201 0.105170
H172  H     H_    0.101471 0.886692 0.492443 0.135412
H173  H     H_    0.848741 0.942480 0.523911 0.245688
H174  H     H_    0.849824 0.885459 0.604998 0.149429
H175  H     H_    0.900079 0.910791 0.582648 0.175700
H176  H     H_    0.898528 0.886692 0.507560 0.135419
H177  H     H_    0.646900 0.559069 0.223283 0.248829
H178  H     H_    0.644211 0.617286 0.307985 0.124932
H179  H     H_    0.596676 0.588823 0.386286 0.155179
H180  H     H_    0.594898 0.612179 0.310974 0.144546
H181  H     H_    0.353100 0.559078 0.776709 0.248830
H182  H     H_    0.516972 0.639295 0.581027 0.128662
H183  H     H_    0.355794 0.617291 0.691996 0.124928
H184  H     H_    0.403328 0.588823 0.613699 0.155180
H185  H     H_    0.405107 0.612183 0.689008 0.144548
H186  H     H_    0.146900 0.059078 0.223292 0.248829
H187  H     H_    0.144206 0.117291 0.308005 0.124929
H188  H     H_    0.096673 0.088823 0.386301 0.155180
H189  H     H_    0.094894 0.112184 0.310992 0.144549
H190  H     H_    0.853100 0.059079 0.776707 0.248828
H191  H     H_    0.855795 0.117291 0.691993 0.124929
H192  H     H_    0.903328 0.088823 0.613697 0.155180
N1    N     N_2   0.634923 0.446777 0.450680 -0.501253
N2    N     N_2   0.272746 0.549775 0.819300 -0.525359
N3    N     N_2   0.227254 0.049775 0.180701 -0.525360
N4    N     N_2   0.772746 0.049776 0.819298 -0.525360
N5    N     N_2   0.927243 0.364542 0.520433 -0.490429
N6    N     N_2   0.072756 0.364542 0.479568 -0.490429
N7    N     N_2   0.427243 0.864542 0.520435 -0.490431
N8    N     N_2   0.572757 0.864542 0.479567 -0.490430
N9    N     N_2   0.365077 0.446771 0.549328 -0.501256
N10   N     N_2   0.134922 0.946769 0.450671 -0.501269
N11   N     N_2   0.865077 0.946769 0.549330 -0.501267
N12   N     N_2   0.632606 0.554616 0.280796 -0.496372
N13   N     N_2   0.367395 0.554622 0.719196 -0.496376
N14   N     N_2   0.132605 0.054622 0.280805 -0.496380
N15   N     N_2   0.867395 0.054623 0.719194 -0.496380
N16   N     N_2   0.727255 0.549767 0.180692 -0.525359
O1    O     O_R   0.935730 0.462810 0.064280 -0.511255
O2    O     O_R   0.435720 0.499990 0.617290 -0.480016
O3    O     O_R   0.064280 0.999990 0.382710 -0.480010
O4    O     O_R   0.935720 0.999990 0.617290 -0.480011
O5    O     O_R   0.500000 0.435720 0.553010 -0.482552
O6    O     O_R   0.500000 0.435720 0.446990 -0.482546
O7    O     O_R   1.000000 0.935720 0.553010 -0.482604
O8    O     O_R   1.000000 0.935720 0.446990 -0.482594
O9    O     O_R   0.935740 0.537210 0.064260 -0.513316
O10   O     O_R   0.064260 0.537210 0.935740 -0.513318
O11   O     O_R   0.435740 0.037210 0.064260 -0.513317
O12   O     O_R   0.064270 0.462810 0.935720 -0.511256
O13   O     O_R   0.564260 0.037210 0.935740 -0.513318
O14   O     O_R   0.000010 0.462810 0.091570 -0.468299
O15   O     O_R   0.999990 0.462810 0.908430 -0.468300
O16   O     O_R   0.500010 0.962810 0.091570 -0.468300
O17   O     O_R   0.499990 0.962810 0.908430 -0.468299
O18   O     O_R   0.000020 0.537210 0.091550 -0.506886
O19   O     O_R   0.999980 0.537210 0.908450 -0.506886
O20   O     O_R   0.500020 0.037210 0.091550 -0.506882
O21   O     O_R   0.499980 0.037210 0.908450 -0.506886
O22   O     O_R   0.037200 0.564240 0.462790 -0.508387
O23   O     O_R   0.435730 0.962810 0.064280 -0.511256
O24   O     O_R   0.962800 0.564240 0.537210 -0.508386
O25   O     O_R   0.537200 0.064240 0.462790 -0.508386
O26   O     O_R   0.462800 0.064240 0.537210 -0.508384
O27   O     O_R   0.037200 0.499960 0.371220 -0.527123
O28   O     O_R   0.962800 0.499960 0.628780 -0.527123
O29   O     O_R   0.537200 0.999960 0.371220 -0.527128
O30   O     O_R   0.462800 0.999960 0.628780 -0.527126
O31   O     O_R   0.962800 0.499940 0.445620 -0.494994
O32   O     O_R   0.037200 0.499940 0.554380 -0.494995
O33   O     O_R   0.462800 0.999940 0.445620 -0.494988
O34   O     O_R   0.564270 0.962810 0.935720 -0.511256
O35   O     O_R   0.537200 0.999940 0.554380 -0.494991
O36   O     O_R   0.037210 0.435680 0.462780 -0.488804
O37   O     O_R   0.962790 0.435680 0.537220 -0.488804
O38   O     O_R   0.537210 0.935680 0.462780 -0.488804
O39   O     O_R   0.462790 0.935680 0.537220 -0.488804
O40   O     O_R   0.500030 0.564270 0.552970 -0.520515
O41   O     O_R   0.499970 0.564270 0.447030 -0.520517
O42   O     O_R   0.000030 0.064270 0.552970 -0.520514
O43   O     O_R   0.999970 0.064270 0.447030 -0.520515
O44   O     O_3   0.982199 0.581129 0.315119 -0.563670
O45   O     O_R   0.564280 0.500000 0.488710 -0.492480
O46   O     O_3   0.017801 0.581129 0.684880 -0.563670
O47   O     O_3   0.482192 0.081127 0.315126 -0.563668
O48   O     O_3   0.517800 0.081129 0.684881 -0.563669
O49   O     O_3   0.772732 0.568859 0.286613 -0.569511
O50   O     O_3   0.227269 0.568866 0.713400 -0.569509
O51   O     O_3   0.272731 0.068864 0.286601 -0.569509
O52   O     O_3   0.727269 0.068865 0.713400 -0.569508
O53   O     O_3   0.079287 0.726240 0.428224 -0.563242
O54   O     O_3   0.920714 0.726240 0.571772 -0.563242
O55   O     O_3   0.579293 0.226238 0.428092 -0.563233
O56   O     O_R   0.435720 0.500000 0.511290 -0.492482
O57   O     O_3   0.420708 0.226238 0.571903 -0.563234
O58   O     O_3   0.541706 0.365445 0.361409 -0.553364
O59   O     O_3   0.458295 0.365444 0.638591 -0.553368
O60   O     O_3   0.041797 0.865452 0.361400 -0.553432
O61   O     O_3   0.958207 0.865449 0.638599 -0.553433
O62   O     O_3   0.020072 0.418392 0.183603 -0.534034
O63   O     O_3   0.979927 0.418392 0.816397 -0.534036
O64   O     O_3   0.520078 0.918394 0.183597 -0.534036
O65   O     O_3   0.479928 0.918392 0.816397 -0.534034
O66   O     O_3   0.061625 0.557330 0.142543 -0.561626
O67   O     O_R   0.064280 0.000000 0.488710 -0.492481
O68   O     O_3   0.938375 0.557330 0.857456 -0.561626
O69   O     O_3   0.561620 0.057335 0.142548 -0.561623
O70   O     O_3   0.438374 0.057329 0.857457 -0.561625
O71   O     O_3   0.773811 0.431729 0.173326 -0.566668
O72   O     O_3   0.226187 0.431720 0.826654 -0.566675
O73   O     O_3   0.273813 0.931720 0.173345 -0.566675
O74   O     O_3   0.726187 0.931720 0.826654 -0.566675
O75   O     O_R   0.935720 0.000000 0.511290 -0.492480
O76   O     O_R   0.564280 0.499990 0.382710 -0.480011

loop_
_geom_bond_atom_site_label_1
_geom_bond_atom_site_label_2
_ccdc_geom_bond_type
C62   H139  S    
C78   H6    S    
C94   O60   S    
C140  O17   A    
C179  N7    S    
C69   O52   S    
C92   O58   S    
C186  H120  S    
C32   O60   S    
C154  C158  A    
C184  O30   A    
C28   C173  A    
C79   C142  S    
Cu9   O31   S    
C29   C33   A    
C8    C23   A    
H30   N7    S    
C98   O64   S    
C7    O7    A    
C59   C164  S    
C19   C37   A    
C146  C150  A    
C42   C180  A    
C82   N4    S    
C24   H123  S    
C9    O54   S    
C61   H135  S    
C48   O44   S    
C169  C180  A    
C43   H79   S    
C180  N8    S    
C115  H124  S    
C3    H2    S    
C28   H113  S    
C26   C172  A    
Cu3   Cu4   S    
Cu10  O25   S    
Cu2   O76   S    
Cu7   O20   S    
C181  O31   A    
Cu8   O27   S    
Cu9   O37   S    
C142  C186  S    
C133  C163  S    
C183  O33   A    
Cu12  O45   S    
H17   N4    S    
Cu1   O14   S    
C59   H118  S    
C27   C31   A    
C28   C32   A    
C84   H27   S    
C169  C187  S    
Cu10  Cu11  S    
C93   H58   S    
C108  H103  S    
C15   H57   S    
C94   H61   S    
Cu3   O67   S    
C84   N6    S    
C6    O6    A    
C58   C153  S    
C72   H169  S    
C35   O66   S    
C132  O52   S    
C145  H127  S    
C196  H182  S    
C134  C165  S    
C22   H171  S    
C68   C110  S    
C70   H162  S    
C90   C153  S    
C113  O73   S    
C76   N14   S    
C23   C173  S    
C156  N13   S    
C191  O42   A    
C65   H146  S    
C125  C129  A    
C44   H90   S    
C62   H137  S    
C141  H1    S    
C103  H86   S    
C13   C54   S    
H8    N2    S    
C152  C157  A    
C45   C59   S    
C139  O20   A    
C50   C57   S    
C69   H157  S    
C137  O18   A    
C112  C134  A    
C2    C53   S    
C53   C58   S    
C87   H39   S    
C83   H22   S    
C152  C194  S    
C107  H100  S    
Cu7   O13   S    
H34   N8    S    
C50   O47   S    
C5    C189  A    
C91   H50   S    
C63   O47   S    
C109  C121  S    
C45   C50   S    
C49   C53   S    
C135  C166  S    
Cu1   O1    S    
C192  O76   A    
C51   C55   S    
Cu2   O6    S    
C160  N2    S    
C66   H152  S    
C48   C52   S    
Cu9   O24   S    
C113  C135  A    
C108  H104  S    
C51   O48   S    
Cu6   O9    S    
C73   H175  S    
C131  O13   A    
Cu6   O19   S    
C187  O39   A    
C102  H83   S    
C18   C176  S    
C15   C18   A    
C103  O69   S    
C96   H66   S    
C104  O70   S    
C159  N16   S    
C106  H95   S    
C39   H107  S    
C33   C36   A    
Cu2   O41   S    
C101  C139  S    
C98   H73   S    
C95   H64   S    
C70   N1    S    
C182  O32   A    
C81   H14   S    
C41   C171  A    
C99   O65   S    
Cu8   O22   S    
C32   C36   A    
C96   O62   S    
H159  N1    S    
C131  O34   A    
C13   C57   S    
C11   C25   A    
C185  O36   A    
C4    H13   S    
C100  H78   S    
C109  O10   A    
C188  C190  S    
C189  C191  S    
C97   H69   S    
C69   H156  S    
C21   C38   A    
C83   H25   S    
C65   H148  S    
C55   C184  S    
C190  O41   A    
C144  H116  S    
C63   H141  S    
C31   O59   S    
C140  O21   A    
C112  O72   S    
C8    C12   A    
C105  H94   S    
C76   H188  S    
C77   H192  S    
C137  O14   A    
Cu5   Cu7   S    
C14   C17   A    
C67   H155  S    
C52   C186  S    
Cu4   O43   S    
C1    O9    A    
C90   C138  S    
C54   C59   S    
C107  H98   S    
Cu7   O11   S    
C120  O23   A    
C30   C34   A    
C155  C159  A    
Cu7   O21   S    
C156  C160  A    
C13   H122  S    
C80   H9    S    
C46   O68   S    
C9    C23   A    
C129  O50   S    
C89   H48   S    
C83   N5    S    
C147  C151  A    
C117  C122  A    
C121  C125  A    
C157  N14   S    
C74   H180  S    
C66   H150  S    
C123  C127  A    
C14   H46   S    
C108  H102  S    
C132  C136  A    
Cu2   O56   S    
Cu5   O16   S    
C181  O27   A    
C31   C34   A    
Cu1   Cu6   S    
C67   H154  S    
C95   O61   S    
C64   O48   S    
C88   O54   S    
C113  C117  A    
C154  C195  S    
C105  O71   S    
C10   C25   A    
H21   N5    S    
Cu4   O3    S    
C153  O63   S    
C86   H37   S    
C115  C119  A    
C150  C155  A    
C10   O55   S    
C71   N9    S    
C112  C116  A    
C95   H62   S    
C87   H41   S    
C81   H16   S    
C114  C136  A    
C54   C183  S    
C41   C179  A    
C148  C152  A    
C63   H140  S    
C37   C171  S    
H177  N12   S    
C118  H128  S    
C26   C30   A    
H26   N6    S    
C136  C167  S    
C57   C101  S    
C100  H80   S    
C65   O49   S    
C195  O75   A    
C109  O12   A    
C88   H44   S    
Cu10  O35   S    
C85   H32   S    
C75   N13   S    
C97   H71   S    
C98   H72   S    
C53   C182  S    
C20   C37   A    
C191  O43   A    
C35   C186  S    
C183  O29   A    
C35   C79   S    
C159  C163  A    
C91   H51   S    
C42   C171  A    
Cu8   Cu9   S    
C174  O24   A    
C7    O8    A    
C75   H184  S    
C67   H153  S    
C161  N3    S    
C162  N4    S    
C27   C172  A    
C169  C179  A    
H173  N11   S    
C22   C38   A    
C193  O2    A    
C194  O67   A    
C125  H130  S    
C85   N7    S    
C86   N8    S    
C128  O49   S    
C7    C36   S    
C164  O64   S    
C130  C135  A    
C16   H68   S    
Cu5   O17   S    
C80   H11   S    
C40   C170  A    
C87   O53   S    
Cu3   O7    S    
H12   N3    S    
Cu4   O8    S    
C46   C49   S    
C50   C54   S    
C61   H133  S    
C77   N15   S    
C78   N16   S    
C84   H28   S    
C74   H178  S    
C158  N15   S    
C126  C130  A    
C168  C177  A    
C57   O69   S    
C193  O56   A    
C1    C119  S    
C143  C165  A    
C71   H166  S    
C72   H170  S    
C84   H29   S    
C64   H143  S    
C44   C58   S    
Cu1   O12   S    
C12   C17   A    
C176  O26   A    
C105  H92   S    
C70   H163  S    
C56   H115  S    
C92   H53   S    
C124  C128  A    
C93   H56   S    
C56   C142  S    
C99   H76   S    
C149  N11   S    
C55   C60   S    
C47   H106  S    
Cu12  O2    S    
C35   C48   S    
C78   H5    S    
C39   C177  A    
C106  O72   S    
C38   C170  S    
C147  N9    S    
C103  H85   S    
C27   H112  S    
C29   H114  S    
C52   C181  S    
C116  C121  A    
C155  N12   S    
C47   C51   S    
C107  H99   S    
C110  C175  S    
C142  O62   S    
C6    C34   S    
C144  C166  A    
C78   H7    S    
C143  C147  A    
C9    C14   A    
C100  H81   S    
C94   H59   S    
C111  O71   S    
C11   C16   A    
Cu11  O33   S    
C177  N5    S    
C174  O22   A    
C85   H33   S    
C5    H24   S    
C3    C20   A    
C114  O74   S    
C160  C165  A    
C67   O51   S    
Cu10  O29   S    
C45   C101  S    
C141  C146  A    
C88   H43   S    
C25   C172  S    
C194  O3    A    
Cu6   O10   S    
C73   H174  S    
C157  C161  A    
C127  H132  S    
C17   C174  S    
C82   H18   S    
C13   C164  S    
C102  H84   S    
C117  H126  S    
C145  C167  A    
Cu1   O15   S    
C123  C131  S    
C101  C164  S    
C81   N3    S    
Cu3   O42   S    
C98   H74   S    
C95   H63   S    
C46   C90   S    
Cu11  O26   S    
C104  H88   S    
C94   H60   S    
C82   H19   S    
C42   H110  S    
C89   O55   S    
C151  C193  S    
C80   N2    S    
C107  O73   S    
C6    O5    A    
C45   H101  S    
C72   H172  S    
C116  H125  S    
C130  O51   S    
C82   H20   S    
C138  O19   A    
C68   O70   S    
C118  C123  A    
C70   H161  S    
C72   N10   S    
C24   C68   S    
C129  C134  A    
C65   H147  S    
C60   C175  S    
C61   H134  S    
C128  C133  A    
C24   C175  S    
C62   H136  S    
C145  C149  A    
C97   O63   S    
C58   H117  S    
C44   C49   S    
C91   O57   S    
C26   H111  S    
C77   H191  S    
C69   H158  S    
H190  N15   S    
C144  C148  A    
C3    C188  A    
C73   N11   S    
C102  O68   S    
C74   N12   S    
C87   H40   S    
C182  O28   A    
Cu5   O34   S    
C2    C46   S    
C24   C55   S    
C100  O66   S    
C2    H121  S    
C83   H23   S    
C91   H49   S    
C64   H145  S    
C39   C170  A    
C10   C15   A    
C80   H10   S    
Cu11  O39   S    
Cu3   O4    S    
C43   C79   S    
C21   H160  S    
C76   H187  S    
C127  C132  A    
C106  H96   S    
C47   C60   S    
C66   H151  S    
Cu10  O38   S    
C5    C22   A    
C104  H89   S    
C120  O11   A    
Cu8   O32   S    
C41   H109  S    
C73   H176  S    
C149  C154  A    
C161  C166  A    
Cu6   O18   S    
C71   H167  S    
C93   O59   S    
C86   H38   S    
C19   H138  S    
C89   H45   S    
C96   H65   S    
C92   H52   S    
C120  C122  S    
C119  C124  A    
C126  H131  S    
C99   H77   S    
C81   H15   S    
Cu2   Cu12  S    
Cu12  O5    S    
C176  O25   A    
C49   O46   S    
C124  H129  S    
C138  O15   A    
C158  C162  A    
C111  C133  A    
C105  H93   S    
C185  O37   A    
C151  C156  A    
C62   O46   S    
C85   H31   S    
C33   O61   S    
C122  C126  A    
C97   H70   S    
C40   H108  S    
C192  O45   A    
H186  N14   S    
C106  H97   S    
C139  O16   A    
Cu4   O75   S    
C12   H35   S    
H168  N10   S    
C190  O40   A    
C143  H105  S    
C63   H142  S    
C188  C196  A    
H164  N9    S    
C114  C118  A    
C40   C178  A    
C16   C18   A    
C141  C163  A    
C2    C153  S    
C61   O44   S    
C75   H185  S    
C75   H183  S    
C184  O35   A    
C44   C90   S    
C88   H42   S    
C43   C48   S    
Cu9   O28   S    
C178  N6    S    
C168  C185  S    
C79   C137  S    
C4    C189  A    
C29   C173  A    
C175  O65   S    
C66   O50   S    
C47   C110  S    
C11   O57   S    
C102  H82   S    
C30   O58   S    
C146  N1    S    
C76   H189  S    
C110  C140  S    
H4    N16   S    
C1    O1    A    
C74   H179  S    
C4    C21   A    
C71   H165  S    
C148  N10   S    
C103  H87   S    
C104  H91   S    
C168  C178  A    
C195  O4    A    
H181  N13   S    
C51   C68   S    
Cu5   O23   S    
C108  O74   S    
C77   H3    S    
C187  O38   A    
C150  C192  S    
C162  C167  A    
Cu12  O40   S    
C43   C56   S    
C19   C196  A    
C64   H144  S    
C86   H36   S    
C8    O53   S    
C89   H47   S    
C96   H67   S    
C111  C115  A    
C20   H149  S    
Cu8   O36   S    
C60   H119  S    
C92   H54   S    
C52   C56   S    
C93   H55   S    
Cu11  O30   S    
C99   H75   S    
