data_mof_unit_52620.cif
_audit_creation_date              2012-12-10T19:07:59-0500
_audit_creation_method            fapswitch 2.2
_symmetry_space_group_name_H-M    P1
_symmetry_Int_Tables_number       1
_space_group_crystal_system       triclinic
_cell_length_a                    25.589855
_cell_length_b                    34.637708
_cell_length_c                    21.605664
_cell_angle_alpha                 90.056675
_cell_angle_beta                  126.696131
_cell_angle_gamma                 90.01349
_cell_volume                      15355.3197254

loop_
_atom_site_label
_atom_site_type_symbol
_atom_type_description
_atom_site_fract_x
_atom_site_fract_y
_atom_site_fract_z
_atom_type_partial_charge
C1    C     C_R   0.141350 0.250212 0.999715 0.935142
C2    C     C_R   0.858538 0.750031 0.999971 0.958602
C3    C     C_R   0.858650 0.250187 0.000248 0.936714
C4    C     C_R   0.141400 0.750002 0.999931 0.958447
C5    C     C_R   0.641350 0.750212 0.999715 0.935137
C6    C     C_R   0.358538 0.250030 0.999971 0.958593
C7    C     C_R   0.358649 0.750187 0.000247 0.936723
C8    C     C_R   0.641400 0.250002 0.999931 0.958419
C9    C     C_3   0.269057 0.756500 0.072236 0.301542
C10   C     C_3   0.730660 0.244224 0.927687 0.303154
C11   C     C_3   0.730721 0.756005 0.927389 0.304486
C12   C     C_3   0.269366 0.244869 0.072285 0.304829
C13   C     C_3   0.769056 0.256506 0.072237 0.301575
C14   C     C_3   0.230657 0.744228 0.927681 0.303162
C15   C     C_3   0.230721 0.256004 0.927389 0.304480
C16   C     C_3   0.769366 0.744869 0.072285 0.304827
C17   C     C_3   0.198208 0.750298 0.999615 -0.335284
C18   C     C_3   0.801734 0.250373 0.000482 -0.332758
C19   C     C_3   0.801666 0.750347 0.000113 -0.336664
C20   C     C_3   0.198208 0.250445 0.999389 -0.333172
C21   C     C_3   0.698209 0.250299 0.999617 -0.335278
C22   C     C_3   0.301732 0.750372 0.000477 -0.332746
C23   C     C_3   0.301666 0.250347 0.000113 -0.336662
C24   C     C_3   0.698208 0.750445 0.999389 -0.333173
C25   C     C_3   0.209564 0.778668 0.953107 0.361404
C26   C     C_3   0.790091 0.222044 0.046790 0.356319
C27   C     C_3   0.790033 0.779080 0.045915 0.360619
C28   C     C_3   0.210153 0.221753 0.953783 0.356316
C29   C     C_3   0.709561 0.278666 0.953102 0.361398
C30   C     C_3   0.290086 0.722040 0.046776 0.356300
C31   C     C_3   0.290032 0.279080 0.045915 0.360615
C32   C     C_3   0.710153 0.721753 0.953783 0.356314
C33   C     C_R   0.227393 0.283483 0.418488 0.418991
C34   C     C_R   0.745269 0.745928 0.582133 0.423473
C35   C     C_R   0.773370 0.284317 0.583475 0.414369
C36   C     C_R   0.255710 0.746330 0.417126 0.411125
C37   C     C_R   0.727390 0.783484 0.418487 0.418996
C38   C     C_R   0.245269 0.245930 0.582133 0.423481
C39   C     C_R   0.273318 0.784279 0.583462 0.414220
C40   C     C_R   0.755763 0.246415 0.417108 0.411000
C41   C     C_R   0.192233 0.281757 0.337541 0.287812
C42   C     C_R   0.785809 0.742149 0.662743 0.253406
C43   C     C_R   0.810368 0.282573 0.664063 0.269907
C44   C     C_R   0.214351 0.742043 0.336707 0.257995
C45   C     C_R   0.692230 0.781759 0.337540 0.287815
C46   C     C_R   0.285809 0.242151 0.662743 0.253406
C47   C     C_R   0.310343 0.782554 0.664055 0.269839
C48   C     C_R   0.714380 0.242088 0.336688 0.257285
C49   C     C_R   0.150793 0.249630 0.296163 -0.391690
C50   C     C_R   0.853095 0.749700 0.704885 -0.376743
C51   C     C_R   0.852515 0.250915 0.704332 -0.390706
C52   C     C_R   0.147464 0.750505 0.295174 -0.378739
C53   C     C_R   0.650792 0.749630 0.296163 -0.391686
C54   C     C_R   0.353096 0.249700 0.704885 -0.376787
C55   C     C_R   0.352493 0.750898 0.704334 -0.390699
C56   C     C_R   0.647485 0.250522 0.295172 -0.378379
C57   C     C_R   0.151030 0.217803 0.337231 0.322497
C58   C     C_R   0.880319 0.757461 0.665472 0.337408
C59   C     C_R   0.853892 0.220040 0.662490 0.315903
C60   C     C_R   0.121388 0.760208 0.335199 0.313188
C61   C     C_R   0.651032 0.717802 0.337231 0.322493
C62   C     C_R   0.380320 0.257458 0.665473 0.337392
C63   C     C_R   0.353841 0.720005 0.662504 0.315917
C64   C     C_R   0.621422 0.260221 0.335213 0.313193
C65   C     C_R   0.194738 0.217078 0.417955 0.407360
C66   C     C_R   0.840972 0.755031 0.584677 0.384980
C67   C     C_R   0.810341 0.219651 0.581759 0.422630
C68   C     C_R   0.161329 0.758660 0.416113 0.423579
C69   C     C_R   0.694741 0.717077 0.417955 0.407364
C70   C     C_R   0.340973 0.255028 0.584677 0.384989
C71   C     C_R   0.310262 0.719598 0.581777 0.422552
C72   C     C_R   0.661385 0.258688 0.416128 0.423306
C73   C     C_R   0.231165 0.250300 0.458200 -0.116331
C74   C     C_R   0.773072 0.750671 0.542995 -0.103607
C75   C     C_R   0.771614 0.252341 0.542058 -0.143272
C76   C     C_R   0.228902 0.752786 0.457147 -0.145341
C77   C     C_R   0.731165 0.750301 0.458200 -0.116329
C78   C     C_R   0.273072 0.250671 0.542995 -0.103602
C79   C     C_R   0.271536 0.752286 0.542062 -0.143776
C80   C     C_R   0.728963 0.252843 0.457142 -0.145029
C81   C     C_R   0.020805 0.040516 0.961803 0.438605
C82   C     C_R   0.038675 0.957478 0.070691 0.439169
C83   C     C_R   0.978821 0.040623 0.038091 0.438440
C84   C     C_R   0.960861 0.957354 0.929288 0.439263
C85   C     C_R   0.520825 0.540517 0.961820 0.438612
C86   C     C_R   0.538678 0.457476 0.070698 0.439213
C87   C     C_R   0.478824 0.540622 0.038089 0.438443
C88   C     C_R   0.460881 0.457354 0.929294 0.439298
C89   C     C_R   0.894833 0.250190 0.789572 0.932618
C90   C     C_R   0.104987 0.749900 0.210248 0.950892
C91   C     C_R   0.105964 0.249876 0.210596 0.930212
C92   C     C_R   0.895010 0.749810 0.789769 0.953136
C93   C     C_R   0.394831 0.750188 0.789573 0.932649
C94   C     C_R   0.604989 0.249902 0.210248 0.950968
C95   C     C_R   0.605964 0.749876 0.210596 0.930222
C96   C     C_R   0.395010 0.249811 0.789769 0.953208
C97   C     C_R   0.019267 0.081006 0.960223 0.308989
C98   C     C_R   0.037853 0.917107 0.070537 0.294960
C99   C     C_R   0.980539 0.081109 0.039727 0.309058
C100  C     C_R   0.961846 0.916989 0.929476 0.296093
C101  C     C_R   0.519280 0.581007 0.960234 0.308991
C102  C     C_R   0.537853 0.417106 0.070544 0.294939
C103  C     C_R   0.480539 0.581107 0.039724 0.309057
C104  C     C_R   0.461862 0.416989 0.929479 0.296098
C105  C     C_R   0.999931 0.101756 0.999965 -0.416452
C106  C     C_R   0.999905 0.896938 0.000014 -0.399978
C107  C     C_R   0.499935 0.601756 0.999968 -0.416440
C108  C     C_R   0.499910 0.396938 0.000017 -0.400030
C109  C     C_R   0.999763 0.020266 0.999931 -0.190248
C110  C     C_R   0.999738 0.977772 0.999975 -0.191664
C111  C     C_R   0.499777 0.520266 0.999940 -0.190250
C112  C     C_R   0.499752 0.477772 0.999983 -0.191710
C113  C     C_R   0.999999 0.144681 0.999990 0.888450
C114  C     C_R   0.000007 0.854841 0.000031 0.908361
C115  C     C_R   0.500000 0.644681 0.999990 0.888457
C116  C     C_R   0.500007 0.354841 0.000031 0.908107
C117  C     C_R   0.000012 0.355316 0.999922 0.929327
C118  C     C_R   0.999957 0.644927 0.999963 0.984492
C119  C     C_R   0.500012 0.855316 0.999922 0.929341
C120  C     C_R   0.499957 0.144927 0.999963 0.984492
C121  C     C_R   0.059183 0.459074 0.035881 0.454970
C122  C     C_R   0.964046 0.542083 0.928844 0.412031
C123  C     C_R   0.940309 0.458925 0.962125 0.453556
C124  C     C_R   0.035181 0.541950 0.069731 0.410736
C125  C     C_R   0.559186 0.959074 0.035884 0.454962
C126  C     C_R   0.464047 0.042083 0.928849 0.412046
C127  C     C_R   0.440312 0.958925 0.962132 0.453553
C128  C     C_R   0.535186 0.041951 0.069735 0.410748
C129  C     C_R   0.059362 0.418692 0.037740 0.351102
C130  C     C_R   0.959839 0.582465 0.929370 0.302889
C131  C     C_R   0.940340 0.418538 0.960674 0.348443
C132  C     C_R   0.039651 0.582332 0.069775 0.303540
C133  C     C_R   0.559364 0.918692 0.037740 0.351093
C134  C     C_R   0.459840 0.082464 0.929373 0.302894
C135  C     C_R   0.440342 0.918539 0.960677 0.348457
C136  C     C_R   0.539651 0.082333 0.069779 0.303549
C137  C     C_R   0.999929 0.398050 0.999514 -0.418573
C138  C     C_R   0.999839 0.602653 0.999713 -0.370771
C139  C     C_R   0.499930 0.898050 0.999515 -0.418569
C140  C     C_R   0.499839 0.102653 0.999715 -0.370781
C141  C     C_R   0.999695 0.479309 0.998977 -0.164241
C142  C     C_R   0.999630 0.521780 0.999162 -0.165858
C143  C     C_R   0.499698 0.979309 0.998982 -0.164262
C144  C     C_R   0.499633 0.021780 0.999167 -0.165869
C145  C     C_3   0.779780 0.284865 0.025860 0.243034
C146  C     C_3   0.219908 0.715927 0.974050 0.249891
C147  C     C_3   0.219711 0.284728 0.973082 0.242216
C148  C     C_3   0.780412 0.716199 0.026620 0.249689
C149  C     C_3   0.279785 0.784862 0.025865 0.243033
C150  C     C_3   0.719915 0.215925 0.974064 0.249895
C151  C     C_3   0.719711 0.784728 0.973082 0.242214
C152  C     C_3   0.280412 0.216199 0.026620 0.249692
O1    O     O_3   0.000000 0.250010 0.000000 -0.531116
O2    O     O_3   1.000000 0.749990 0.000000 -0.534433
O3    O     O_3   0.500000 0.750010 0.000000 -0.531112
O4    O     O_3   0.500000 0.249990 0.000000 -0.534442
O5    O     O_R   0.140020 0.272750 0.045450 -0.638059
O6    O     O_R   0.859980 0.727250 0.954550 -0.632721
O7    O     O_R   0.859980 0.272750 0.954550 -0.637530
O8    O     O_R   0.140020 0.727250 0.045450 -0.631013
O9    O     O_R   0.640020 0.772750 0.045450 -0.638060
O10   O     O_R   0.359980 0.227250 0.954550 -0.632721
O11   O     O_R   0.359980 0.772750 0.954550 -0.637535
O12   O     O_R   0.640020 0.227250 0.045450 -0.630952
O13   O     O_R   0.944020 0.227270 0.826530 -0.607485
O14   O     O_R   0.055980 0.772730 0.173470 -0.623757
O15   O     O_R   0.055980 0.227270 0.173470 -0.607241
O16   O     O_R   0.944020 0.772730 0.826530 -0.625474
O17   O     O_R   0.444020 0.727270 0.826530 -0.607502
O18   O     O_R   0.555980 0.272730 0.173470 -0.623800
O19   O     O_R   0.555980 0.727270 0.173470 -0.607245
O20   O     O_R   0.444020 0.272730 0.826530 -0.625461
O21   O     O_R   0.008020 0.163280 0.954510 -0.606568
O22   O     O_R   0.991980 0.836720 0.045490 -0.616791
O23   O     O_R   0.991980 0.163280 0.045490 -0.607015
O24   O     O_R   0.008020 0.836720 0.954510 -0.616600
O25   O     O_R   0.508020 0.663280 0.954510 -0.606555
O26   O     O_R   0.491980 0.336720 0.045490 -0.616784
O27   O     O_R   0.491980 0.663280 0.045490 -0.607013
O28   O     O_R   0.508020 0.336720 0.954510 -0.616591
O29   O     O_R   0.053480 0.336740 0.045470 -0.608538
O30   O     O_R   0.946520 0.663260 0.954530 -0.633787
O31   O     O_R   0.946520 0.336740 0.954530 -0.606902
O32   O     O_R   0.053480 0.663260 0.045470 -0.633922
O33   O     O_R   0.553480 0.836740 0.045470 -0.608543
O34   O     O_R   0.446520 0.163260 0.954530 -0.633792
O35   O     O_R   0.446520 0.836740 0.954530 -0.606930
O36   O     O_R   0.553480 0.163260 0.045470 -0.633917
O37   O     O_R   0.882520 0.272750 0.826550 -0.615464
O38   O     O_R   0.117480 0.727250 0.173450 -0.613334
O39   O     O_R   0.117480 0.272750 0.173450 -0.625687
O40   O     O_R   0.882520 0.727250 0.826550 -0.613936
O41   O     O_R   0.382520 0.772750 0.826550 -0.615486
O42   O     O_R   0.617480 0.227250 0.173450 -0.613219
O43   O     O_R   0.617480 0.772750 0.173450 -0.625689
O44   O     O_R   0.382520 0.227250 0.826550 -0.613946
O45   O     O_R   0.094550 0.227270 0.954490 -0.630072
O46   O     O_R   0.905450 0.772730 0.045510 -0.612418
O47   O     O_R   0.905450 0.227270 0.045510 -0.629859
O48   O     O_R   0.094550 0.772730 0.954490 -0.612946
O49   O     O_R   0.594550 0.727270 0.954490 -0.630070
O50   O     O_R   0.405450 0.272730 0.045510 -0.612427
O51   O     O_R   0.405450 0.727270 0.045510 -0.629850
O52   O     O_R   0.594550 0.272730 0.954490 -0.612958
Zn1   Zn    Zn3+2 0.923580 0.282490 0.935040 0.982656
Zn2   Zn    Zn3+2 0.076420 0.717510 0.064960 0.994233
Zn3   Zn    Zn3+2 0.076420 0.282490 0.064960 0.978379
Zn4   Zn    Zn3+2 0.923580 0.717510 0.935040 0.993565
Zn5   Zn    Zn3+2 0.423580 0.782490 0.935040 0.982620
Zn6   Zn    Zn3+2 0.576420 0.217510 0.064960 0.994307
Zn7   Zn    Zn3+2 0.576420 0.782490 0.064960 0.978374
Zn8   Zn    Zn3+2 0.423580 0.217510 0.935040 0.993564
Zn9   Zn    Zn3+2 0.011450 0.217520 0.935010 0.993682
Zn10  Zn    Zn3+2 0.988550 0.782480 0.064990 1.003583
Zn11  Zn    Zn3+2 0.988550 0.217520 0.064990 0.993598
Zn12  Zn    Zn3+2 0.011450 0.782480 0.935010 1.003684
Zn13  Zn    Zn3+2 0.511450 0.717520 0.935010 0.993681
Zn14  Zn    Zn3+2 0.488550 0.282480 0.064990 1.003566
Zn15  Zn    Zn3+2 0.488550 0.717520 0.064990 0.993608
Zn16  Zn    Zn3+2 0.511450 0.282480 0.935010 1.003672
O53   O     O_3   0.118567 0.478200 0.076056 -0.517710
C153  C     C_3   0.128884 0.493848 0.023796 -0.323555
H1    H     H_    0.106572 0.522907 0.004292 0.152843
H2    H     H_    0.110799 0.474879 0.972998 0.118209
H3    H     H_    0.182087 0.497505 0.054483 0.186768
O54   O     O_3   0.929344 0.522307 0.859369 -0.539782
C154  C     C_3   0.966007 0.521932 0.830187 -0.269836
H4    H     H_    0.010936 0.504476 0.867595 0.126824
H5    H     H_    0.978346 0.551593 0.822929 0.178058
H6    H     H_    0.936350 0.508107 0.772407 0.188023
O55   O     O_3   0.880849 0.477898 0.921721 -0.517596
C155  C     C_3   0.870132 0.493382 0.973784 -0.322969
H7    H     H_    0.892602 0.522403 0.993893 0.152534
H8    H     H_    0.887774 0.474270 0.024187 0.118813
H9    H     H_    0.816896 0.497076 0.942709 0.186606
O56   O     O_3   0.069635 0.522040 0.138944 -0.540496
C156  C     C_3   0.032722 0.521475 0.167793 -0.266380
H10   H     H_    0.987859 0.503941 0.130087 0.126792
H11   H     H_    0.020245 0.551077 0.175167 0.177162
H12   H     H_    0.062238 0.507627 0.225474 0.190087
O57   O     O_3   0.618570 0.978199 0.076059 -0.517704
C157  C     C_3   0.628886 0.993849 0.023798 -0.323516
H13   H     H_    0.606572 0.022906 0.004294 0.152840
H14   H     H_    0.610803 0.974879 0.973001 0.118194
H15   H     H_    0.682089 0.997506 0.054486 0.186765
O58   O     O_3   0.429344 0.022307 0.859373 -0.539784
C158  C     C_3   0.466008 0.021928 0.830193 -0.269844
H16   H     H_    0.510927 0.004463 0.867594 0.126834
H17   H     H_    0.478365 0.051587 0.822952 0.178038
H18   H     H_    0.436345 0.008110 0.772406 0.188021
O59   O     O_3   0.380853 0.977899 0.921730 -0.517600
C159  C     C_3   0.370137 0.993379 0.973796 -0.322991
H19   H     H_    0.392617 0.022397 0.993922 0.152533
H20   H     H_    0.387769 0.974261 0.024189 0.118825
H21   H     H_    0.316902 0.997079 0.942720 0.186607
O60   O     O_3   0.569644 0.022042 0.138951 -0.540498
C160  C     C_3   0.532724 0.021465 0.167790 -0.266371
H22   H     H_    0.487880 0.003915 0.130091 0.126811
H23   H     H_    0.520216 0.051062 0.175140 0.177125
H24   H     H_    0.562249 0.007627 0.225481 0.190094
O61   O     O_3   0.037822 0.021378 0.919740 -0.512676
C161  C     C_3   0.099478 0.003635 0.969980 -0.281838
H25   H     H_    0.094310 0.974006 0.985013 0.155204
H26   H     H_    0.134122 0.020573 0.023444 0.104746
H27   H     H_    0.121725 0.000656 0.939204 0.180652
O62   O     O_3   0.074443 0.976464 0.141187 -0.507531
C162  C     C_3   0.131160 0.992826 0.155101 -0.267150
H28   H     H_    0.121400 0.022770 0.132618 0.152465
H29   H     H_    0.151827 0.975619 0.130813 0.088057
H30   H     H_    0.169169 0.994471 0.218408 0.187633
O63   O     O_3   0.961800 0.021600 0.080210 -0.512788
C163  C     C_3   0.900078 0.003843 0.030025 -0.281600
H31   H     H_    0.905164 0.974135 0.015162 0.155576
H32   H     H_    0.865513 0.020650 0.976451 0.104223
H33   H     H_    0.877783 0.001082 0.060778 0.180700
O64   O     O_3   0.925036 0.976220 0.858773 -0.507312
C164  C     C_3   0.868286 0.992485 0.844867 -0.265320
H34   H     H_    0.877991 0.022457 0.867355 0.151738
H35   H     H_    0.847661 0.975260 0.869156 0.088187
H36   H     H_    0.830271 0.994033 0.781560 0.188734
O65   O     O_3   0.537855 0.521379 0.919769 -0.512683
C165  C     C_3   0.599511 0.503638 0.970021 -0.281861
H37   H     H_    0.594341 0.474008 0.985049 0.155211
H38   H     H_    0.634147 0.520577 0.023488 0.104741
H39   H     H_    0.621769 0.500661 0.939257 0.180653
O66   O     O_3   0.574437 0.476462 0.141195 -0.507507
C166  C     C_3   0.631164 0.492819 0.155127 -0.267014
H40   H     H_    0.669164 0.494462 0.218436 0.187634
H41   H     H_    0.621412 0.522764 0.132647 0.152426
H42   H     H_    0.651837 0.475612 0.130849 0.088066
O67   O     O_3   0.461793 0.521597 0.080197 -0.512795
C167  C     C_3   0.400072 0.503840 0.030001 -0.281607
H43   H     H_    0.405162 0.474132 0.015139 0.155573
H44   H     H_    0.365512 0.520648 0.976427 0.104227
H45   H     H_    0.377769 0.501076 0.060744 0.180700
O68   O     O_3   0.425067 0.476222 0.858780 -0.507299
C168  C     C_3   0.368310 0.492483 0.844855 -0.265200
H46   H     H_    0.378008 0.522455 0.867346 0.151702
H47   H     H_    0.347674 0.475256 0.869130 0.088190
H48   H     H_    0.330305 0.494032 0.781547 0.188738
O69   O     O_3   0.033527 0.100056 0.915690 -0.531786
C169  C     C_3   0.101760 0.104731 0.957639 0.205491
H49   H     H_    0.131632 0.087476 0.011858 0.062303
H50   H     H_    0.114336 0.135568 0.974193 0.168864
C170  C     C_3   0.121304 0.093790 0.905911 -0.785691
H51   H     H_    0.098821 0.114135 0.856638 0.261784
H52   H     H_    0.175105 0.094603 0.939495 0.182956
H53   H     H_    0.104298 0.064242 0.882605 0.274279
O70   O     O_3   0.071708 0.897500 0.140167 -0.537949
C171  C     C_3   0.133254 0.886316 0.160493 0.147257
H54   H     H_    0.164447 0.912008 0.174239 0.131999
H55   H     H_    0.128906 0.869547 0.113584 0.099776
C172  C     C_3   0.167101 0.860903 0.231975 -0.826430
H56   H     H_    0.137487 0.834679 0.219896 0.255270
H57   H     H_    0.215667 0.851989 0.248745 0.200481
H58   H     H_    0.173601 0.876975 0.280657 0.253227
O71   O     O_3   0.966634 0.100247 0.084566 -0.533103
C173  C     C_3   0.898458 0.104938 0.043009 0.203918
H59   H     H_    0.868337 0.087489 0.988984 0.063632
H60   H     H_    0.885911 0.135728 0.026222 0.168428
C174  C     C_3   0.879324 0.094343 0.095259 -0.787601
H61   H     H_    0.902224 0.114807 0.144499 0.260730
H62   H     H_    0.825573 0.095296 0.062098 0.184198
H63   H     H_    0.896140 0.064802 0.118542 0.274359
O72   O     O_3   0.928098 0.897292 0.859845 -0.537513
C175  C     C_3   0.866687 0.885816 0.839622 0.140140
H64   H     H_    0.835492 0.911372 0.826721 0.131855
H65   H     H_    0.871326 0.868667 0.886262 0.100278
C176  C     C_3   0.832622 0.860770 0.767495 -0.807157
H66   H     H_    0.862416 0.834797 0.778562 0.254310
H67   H     H_    0.784325 0.851427 0.751060 0.200405
H68   H     H_    0.825522 0.877311 0.718982 0.257346
O73   O     O_3   0.533540 0.600058 0.915702 -0.531794
C177  C     C_3   0.601773 0.604733 0.957651 0.205488
H69   H     H_    0.631646 0.587479 0.011872 0.062314
H70   H     H_    0.614347 0.635570 0.974201 0.168860
C178  C     C_3   0.621317 0.593789 0.905925 -0.785689
H71   H     H_    0.598833 0.614132 0.856648 0.261776
H72   H     H_    0.675118 0.594604 0.939508 0.182958
H73   H     H_    0.604313 0.564241 0.882621 0.274292
O74   O     O_3   0.571695 0.397502 0.140177 -0.537927
C179  C     C_3   0.633225 0.386284 0.160492 0.147593
H74   H     H_    0.664404 0.411961 0.174068 0.131722
H75   H     H_    0.628833 0.369430 0.113641 0.099819
C180  C     C_3   0.667130 0.360964 0.232108 -0.826583
H76   H     H_    0.637512 0.334766 0.220217 0.255271
H77   H     H_    0.715663 0.352000 0.248835 0.200357
H78   H     H_    0.673711 0.377129 0.280748 0.253253
O75   O     O_3   0.466625 0.600245 0.084554 -0.533112
C181  C     C_3   0.398447 0.604934 0.042988 0.203929
H79   H     H_    0.368332 0.587487 0.988959 0.063631
H80   H     H_    0.385900 0.635724 0.026207 0.168433
C182  C     C_3   0.379304 0.594331 0.095227 -0.787628
H81   H     H_    0.402193 0.614793 0.144467 0.260730
H82   H     H_    0.325551 0.595278 0.062056 0.184188
H83   H     H_    0.396126 0.564791 0.118510 0.274380
O76   O     O_3   0.428124 0.397296 0.859844 -0.537499
C183  C     C_3   0.366721 0.385799 0.839621 0.140322
H84   H     H_    0.335541 0.411345 0.826846 0.131653
H85   H     H_    0.371386 0.368589 0.886214 0.100321
C184  C     C_3   0.332615 0.360824 0.767396 -0.807132
H86   H     H_    0.362404 0.334869 0.778327 0.254310
H87   H     H_    0.284338 0.351449 0.750982 0.200384
H88   H     H_    0.325465 0.377432 0.718922 0.257341
O77   O     O_3   0.118551 0.399586 0.081251 -0.547886
C185  C     C_3   0.139072 0.391606 0.034740 -0.200422
H89   H     H_    0.098434 0.383064 0.974508 0.138716
H90   H     H_    0.173651 0.367049 0.060521 0.191841
H91   H     H_    0.165692 0.416728 0.034433 0.157224
O78   O     O_3   0.921767 0.602427 0.860389 -0.581184
C186  C     C_3   0.855979 0.599751 0.832431 -0.198658
H92   H     H_    0.825901 0.616416 0.778076 0.162637
H93   H     H_    0.848476 0.612375 0.873986 0.152415
H94   H     H_    0.837947 0.569487 0.818636 0.198400
O79   O     O_3   0.881237 0.399259 0.916765 -0.545415
C187  C     C_3   0.859785 0.391654 0.962438 -0.194254
H95   H     H_    0.900071 0.384303 0.023537 0.137294
H96   H     H_    0.826499 0.366434 0.937626 0.192226
H97   H     H_    0.831450 0.416495 0.960177 0.157003
O80   O     O_3   0.077693 0.602141 0.139053 -0.581468
C188  C     C_3   0.143566 0.599266 0.167455 -0.201060
H98   H     H_    0.173805 0.614726 0.223335 0.162122
H99   H     H_    0.151788 0.613010 0.127389 0.154749
H100  H     H_    0.160824 0.568861 0.178694 0.198703
O81   O     O_3   0.618553 0.899585 0.081250 -0.547892
C189  C     C_3   0.639070 0.891604 0.034736 -0.200421
H101  H     H_    0.598431 0.883057 0.974508 0.138717
H102  H     H_    0.673654 0.867050 0.060522 0.191841
H103  H     H_    0.665683 0.916726 0.034418 0.157216
O82   O     O_3   0.421769 0.102426 0.860391 -0.581181
C190  C     C_3   0.355981 0.099752 0.832433 -0.198645
H104  H     H_    0.325904 0.116418 0.778079 0.162633
H105  H     H_    0.348478 0.112375 0.873989 0.152413
H106  H     H_    0.337947 0.069488 0.818635 0.198397
O83   O     O_3   0.381239 0.899259 0.916769 -0.545451
C191  C     C_3   0.359784 0.891657 0.962440 -0.194331
H107  H     H_    0.400070 0.884326 0.023550 0.137277
H108  H     H_    0.326522 0.866425 0.937650 0.192250
H109  H     H_    0.331421 0.916491 0.960143 0.157033
O84   O     O_3   0.577685 0.102143 0.139055 -0.581462
C192  C     C_3   0.643560 0.099275 0.167463 -0.201008
H110  H     H_    0.673787 0.114760 0.223318 0.162153
H111  H     H_    0.651777 0.113000 0.127378 0.154711
H112  H     H_    0.660834 0.068873 0.178752 0.198707
O85   O     O_3   0.283650 0.762980 0.145623 -0.602110
C193  C     C_3   0.351786 0.762879 0.202806 -0.267733
H113  H     H_    0.378786 0.778634 0.185049 0.172600
H114  H     H_    0.370363 0.732939 0.219534 0.191308
H115  H     H_    0.362599 0.777476 0.255011 0.172867
O86   O     O_3   0.716020 0.237612 0.854331 -0.625462
C194  C     C_3   0.647883 0.237579 0.797277 -0.259333
H116  H     H_    0.629130 0.267512 0.780826 0.198895
H117  H     H_    0.621116 0.221531 0.815020 0.195532
H118  H     H_    0.637069 0.223166 0.744923 0.160267
O87   O     O_3   0.715795 0.761878 0.853710 -0.600291
C195  C     C_3   0.647601 0.761501 0.796835 -0.279852
H119  H     H_    0.620811 0.777879 0.814179 0.172411
H120  H     H_    0.628983 0.731491 0.781535 0.191303
H121  H     H_    0.636517 0.775256 0.743870 0.174325
O88   O     O_3   0.284050 0.238876 0.145794 -0.627639
C196  C     C_3   0.352158 0.239463 0.202894 -0.262900
H122  H     H_    0.370305 0.269576 0.218360 0.201125
H123  H     H_    0.379255 0.223298 0.185720 0.195796
H124  H     H_    0.363187 0.225534 0.255691 0.159278
O89   O     O_3   0.783644 0.262992 0.145621 -0.602123
C197  C     C_3   0.851780 0.262896 0.202808 -0.267938
H125  H     H_    0.878780 0.278648 0.185049 0.172653
H126  H     H_    0.870360 0.232957 0.219548 0.191335
H127  H     H_    0.862586 0.277497 0.255006 0.172636
O90   O     O_3   0.216014 0.737622 0.854322 -0.625462
C198  C     C_3   0.147877 0.737592 0.797270 -0.259336
H128  H     H_    0.129127 0.767526 0.780828 0.198897
H129  H     H_    0.121109 0.721543 0.815009 0.195534
H130  H     H_    0.137060 0.723183 0.744911 0.160269
O91   O     O_3   0.215794 0.261878 0.853710 -0.600301
C199  C     C_3   0.147600 0.261501 0.796835 -0.279815
H131  H     H_    0.120810 0.277879 0.814179 0.172422
H132  H     H_    0.128981 0.231491 0.781536 0.191291
H133  H     H_    0.136515 0.275255 0.743869 0.174342
O92   O     O_3   0.784050 0.738876 0.145795 -0.627644
C200  C     C_3   0.852158 0.739464 0.202894 -0.262874
H134  H     H_    0.870305 0.769576 0.218360 0.201150
H135  H     H_    0.879255 0.723298 0.185720 0.195794
H136  H     H_    0.863187 0.725534 0.255691 0.159266
O93   O     O_3   0.813428 0.320491 0.051062 -0.618694
C201  C     C_3   0.787761 0.344135 0.080413 0.149816
H137  H     H_    0.805817 0.334455 0.138964 0.178971
H138  H     H_    0.733463 0.344131 0.042670 0.167467
C202  C     C_3   0.810645 0.385502 0.087438 -0.933588
H139  H     H_    0.788603 0.397731 0.029336 0.239612
H140  H     H_    0.795307 0.403425 0.116655 0.213320
H141  H     H_    0.864601 0.386482 0.121776 0.265493
O94   O     O_3   0.184875 0.680807 0.948625 -0.601719
C203  C     C_3   0.211164 0.655707 0.922156 0.140655
H142  H     H_    0.265282 0.654197 0.962764 0.153558
H143  H     H_    0.196732 0.665096 0.864821 0.175258
C204  C     C_3   0.184245 0.615285 0.913373 -0.904314
H144  H     H_    0.130349 0.615461 0.870440 0.266362
H145  H     H_    0.205134 0.595173 0.893372 0.203800
H146  H     H_    0.197207 0.604923 0.969577 0.250426
O95   O     O_3   0.185710 0.320184 0.947097 -0.619243
C205  C     C_3   0.211065 0.343595 0.917111 0.149897
H147  H     H_    0.193134 0.333462 0.858815 0.179032
H148  H     H_    0.265358 0.343882 0.954813 0.167050
C206  C     C_3   0.187661 0.384900 0.909021 -0.936106
H149  H     H_    0.209591 0.397598 0.966798 0.240150
H150  H     H_    0.202716 0.402586 0.879273 0.213618
H151  H     H_    0.133698 0.385600 0.874732 0.264249
O96   O     O_3   0.815808 0.681259 0.052911 -0.601970
C207  C     C_3   0.789808 0.656415 0.080062 0.140930
H152  H     H_    0.735697 0.654636 0.039552 0.153474
H153  H     H_    0.804227 0.666263 0.137194 0.175232
C208  C     C_3   0.817075 0.616030 0.089785 -0.903630
H154  H     H_    0.870983 0.616490 0.132572 0.266462
H155  H     H_    0.796482 0.596128 0.110434 0.203839
H156  H     H_    0.804062 0.605204 0.033784 0.250200
O97   O     O_3   0.313438 0.820486 0.051078 -0.618698
C209  C     C_3   0.287776 0.844129 0.080435 0.149819
H157  H     H_    0.305826 0.834444 0.138982 0.179000
H158  H     H_    0.233478 0.844130 0.042689 0.167468
C210  C     C_3   0.310672 0.885495 0.087477 -0.933556
H159  H     H_    0.288639 0.897728 0.029381 0.239603
H160  H     H_    0.295334 0.903416 0.116695 0.213324
H161  H     H_    0.364629 0.886469 0.121822 0.265500
O98   O     O_3   0.684886 0.180804 0.948647 -0.601717
C211  C     C_3   0.711180 0.155702 0.922188 0.140643
H162  H     H_    0.765299 0.154195 0.962798 0.153560
H163  H     H_    0.696749 0.165087 0.864850 0.175261
C212  C     C_3   0.684267 0.115279 0.913414 -0.904315
H164  H     H_    0.630370 0.115453 0.870479 0.266362
H165  H     H_    0.705159 0.095166 0.893420 0.203799
H166  H     H_    0.697228 0.104921 0.969620 0.250427
O99   O     O_3   0.685711 0.820184 0.947097 -0.619248
C213  C     C_3   0.711066 0.843595 0.917111 0.149901
H167  H     H_    0.693133 0.833462 0.858814 0.179029
H168  H     H_    0.765358 0.843881 0.954811 0.167054
C214  C     C_3   0.687663 0.884900 0.909021 -0.936134
H169  H     H_    0.709596 0.897598 0.966800 0.240155
H170  H     H_    0.702717 0.902586 0.879273 0.213618
H171  H     H_    0.633701 0.885601 0.874735 0.264243
O100  O     O_3   0.315807 0.181259 0.052910 -0.601968
C215  C     C_3   0.289807 0.156415 0.080062 0.140932
H172  H     H_    0.235695 0.154636 0.039552 0.153475
H173  H     H_    0.304227 0.166263 0.137194 0.175234
C216  C     C_3   0.317072 0.116029 0.089783 -0.903620
H174  H     H_    0.370980 0.116488 0.132568 0.266469
H175  H     H_    0.296479 0.096127 0.110432 0.203840
H176  H     H_    0.304057 0.105203 0.033781 0.250198
O101  O     O_3   0.163425 0.807120 0.904160 -0.585578
C217  C     C_3   0.189370 0.831535 0.876468 -0.280866
H177  H     H_    0.219741 0.816017 0.863268 0.188664
H178  H     H_    0.218166 0.855047 0.918316 0.186835
H179  H     H_    0.148354 0.845117 0.822123 0.166366
O102  O     O_3   0.834912 0.193115 0.095786 -0.595581
C218  C     C_3   0.807755 0.170240 0.124080 -0.304009
H180  H     H_    0.778633 0.146368 0.083634 0.192376
H181  H     H_    0.776386 0.186779 0.134158 0.207981
H182  H     H_    0.847878 0.157500 0.180079 0.164454
O103  O     O_3   0.835874 0.807893 0.094084 -0.584957
C219  C     C_3   0.809527 0.832751 0.120693 -0.276456
H183  H     H_    0.777042 0.817815 0.131306 0.186980
H184  H     H_    0.782736 0.856685 0.079311 0.185020
H185  H     H_    0.850258 0.845686 0.176197 0.165877
O104  O     O_3   0.165796 0.192407 0.905525 -0.596002
C220  C     C_3   0.193376 0.169345 0.877932 -0.303432
H186  H     H_    0.222169 0.145553 0.918628 0.191789
H187  H     H_    0.225250 0.185687 0.868395 0.207706
H188  H     H_    0.153511 0.156519 0.821785 0.163962
O105  O     O_3   0.663417 0.307113 0.904146 -0.585579
C221  C     C_3   0.689360 0.331528 0.876450 -0.280849
H189  H     H_    0.719740 0.316011 0.863264 0.188662
H190  H     H_    0.718145 0.355045 0.918289 0.186841
H191  H     H_    0.648342 0.345102 0.822096 0.166361
O106  O     O_3   0.334903 0.693107 0.095762 -0.595581
C222  C     C_3   0.307743 0.670229 0.124048 -0.303985
H192  H     H_    0.278634 0.646353 0.083603 0.192359
H193  H     H_    0.276359 0.686762 0.134107 0.207954
H194  H     H_    0.347863 0.657493 0.180053 0.164456
O107  O     O_3   0.335873 0.307893 0.094084 -0.584965
C223  C     C_3   0.309526 0.332751 0.120693 -0.276458
H195  H     H_    0.277041 0.317815 0.131304 0.186982
H196  H     H_    0.282737 0.356685 0.079311 0.185023
H197  H     H_    0.350257 0.345685 0.176198 0.165875
O108  O     O_3   0.665797 0.692407 0.905525 -0.595996
C224  C     C_3   0.693378 0.669345 0.877932 -0.303425
H198  H     H_    0.722172 0.645555 0.918629 0.191789
H199  H     H_    0.725250 0.685688 0.868393 0.207705
H200  H     H_    0.653512 0.656519 0.821785 0.163966
O109  O     O_3   0.244267 0.318618 0.457323 -0.595243
C225  C     C_3   0.295198 0.337256 0.461444 -0.213088
H201  H     H_    0.322260 0.355465 0.514161 0.164432
H202  H     H_    0.275095 0.356955 0.411598 0.196579
H203  H     H_    0.331196 0.317088 0.466433 0.176331
O110  O     O_3   0.678421 0.742617 0.541164 -0.570339
C226  C     C_3   0.653204 0.779170 0.538989 -0.285887
H204  H     H_    0.663786 0.800843 0.509794 0.183559
H205  H     H_    0.672296 0.789290 0.597942 0.180803
H206  H     H_    0.599472 0.776764 0.505099 0.174888
O111  O     O_3   0.735261 0.316559 0.545576 -0.552791
C227  C     C_3   0.769359 0.342032 0.530517 -0.266981
H207  H     H_    0.766613 0.331947 0.479879 0.135571
H208  H     H_    0.821050 0.346231 0.581554 0.156701
H209  H     H_    0.745295 0.370662 0.515519 0.190721
O112  O     O_3   0.322048 0.740654 0.456893 -0.556308
C228  C     C_3   0.351282 0.775900 0.460605 -0.303268
H210  H     H_    0.353538 0.795748 0.502504 0.136838
H211  H     H_    0.326076 0.789932 0.403033 0.172717
H212  H     H_    0.402145 0.770049 0.481994 0.183673
O113  O     O_3   0.744259 0.818619 0.457323 -0.595243
C229  C     C_3   0.795189 0.837260 0.461442 -0.213088
H213  H     H_    0.822248 0.855469 0.514158 0.164429
H214  H     H_    0.775083 0.856959 0.411595 0.196581
H215  H     H_    0.831189 0.817094 0.466431 0.176332
O114  O     O_3   0.178421 0.242621 0.541164 -0.570339
C230  C     C_3   0.153206 0.279175 0.538989 -0.285917
H216  H     H_    0.163790 0.300847 0.509794 0.183560
H217  H     H_    0.172299 0.289295 0.597942 0.180807
H218  H     H_    0.099474 0.276770 0.505099 0.174853
O115  O     O_3   0.235207 0.816517 0.545540 -0.552676
C231  C     C_3   0.269339 0.842003 0.530550 -0.267569
H219  H     H_    0.266712 0.831906 0.479995 0.135541
H220  H     H_    0.320991 0.846236 0.581655 0.156818
H221  H     H_    0.245220 0.870618 0.515452 0.190840
O116  O     O_3   0.822117 0.240774 0.456915 -0.556544
C232  C     C_3   0.851169 0.275895 0.459575 -0.303590
H222  H     H_    0.853063 0.296225 0.500611 0.136550
H223  H     H_    0.826055 0.289385 0.401542 0.174293
H224  H     H_    0.902149 0.270013 0.481454 0.183565
O117  O     O_3   0.192889 0.313226 0.298689 -0.557146
C233  C     C_3   0.242162 0.307548 0.288402 0.119088
H225  H     H_    0.234963 0.280385 0.256601 0.168006
H226  H     H_    0.291280 0.305943 0.344294 0.097238
C234  C     C_3   0.241446 0.341234 0.242924 -0.719502
H227  H     H_    0.245256 0.368959 0.271226 0.254078
H228  H     H_    0.283414 0.338923 0.240505 0.167594
H229  H     H_    0.195460 0.340876 0.183364 0.296670
O118  O     O_3   0.759163 0.732717 0.700654 -0.560955
C235  C     C_3   0.744170 0.692856 0.689803 0.208940
H230  H     H_    0.785405 0.675188 0.700787 0.116520
H231  H     H_    0.699931 0.687086 0.630225 0.184391
C236  C     C_3   0.730569 0.679871 0.745854 -0.851465
H232  H     H_    0.689667 0.696924 0.736439 0.264730
H233  H     H_    0.717094 0.648818 0.736764 0.180018
H234  H     H_    0.774927 0.684090 0.805922 0.284367
O119  O     O_3   0.809649 0.313720 0.703731 -0.555175
C237  C     C_3   0.753271 0.311384 0.701271 0.171827
H235  H     H_    0.748739 0.282505 0.720504 0.132035
H236  H     H_    0.708633 0.317130 0.641985 0.178061
C238  C     C_3   0.757578 0.341664 0.755136 -0.730347
H237  H     H_    0.764104 0.370787 0.739193 0.272813
H238  H     H_    0.712063 0.341471 0.750676 0.165195
H239  H     H_    0.799498 0.335255 0.815605 0.287659
O120  O     O_3   0.240121 0.731389 0.298346 -0.557064
C239  C     C_3   0.252322 0.691227 0.308122 0.213298
H240  H     H_    0.209130 0.674733 0.294448 0.117497
H241  H     H_    0.294941 0.684501 0.368160 0.185337
C240  C     C_3   0.267672 0.677614 0.253941 -0.854301
H242  H     H_    0.309854 0.694055 0.265282 0.263147
H243  H     H_    0.280035 0.646417 0.263076 0.180903
H244  H     H_    0.224455 0.682142 0.193301 0.281866
O121  O     O_3   0.692884 0.813228 0.298689 -0.557151
C241  C     C_3   0.742157 0.807552 0.288401 0.119071
H245  H     H_    0.734963 0.780388 0.256606 0.168000
H246  H     H_    0.791275 0.805951 0.344294 0.097243
C242  C     C_3   0.741434 0.841237 0.242916 -0.719474
H247  H     H_    0.745240 0.868963 0.271214 0.254080
H248  H     H_    0.783402 0.838928 0.240496 0.167591
H249  H     H_    0.695447 0.840875 0.183357 0.296678
O122  O     O_3   0.259162 0.232720 0.700654 -0.560955
C243  C     C_3   0.244168 0.192859 0.689803 0.208936
H250  H     H_    0.285402 0.175190 0.700786 0.116519
H251  H     H_    0.199928 0.187089 0.630225 0.184387
C244  C     C_3   0.230568 0.179874 0.745855 -0.851458
H252  H     H_    0.189666 0.196927 0.736441 0.264730
H253  H     H_    0.217093 0.148821 0.736766 0.180013
H254  H     H_    0.274926 0.184094 0.805922 0.284370
O123  O     O_3   0.309649 0.813715 0.703713 -0.555271
C245  C     C_3   0.253282 0.811398 0.701279 0.171804
H255  H     H_    0.248735 0.782524 0.720514 0.132066
H256  H     H_    0.208640 0.817153 0.642002 0.178077
C246  C     C_3   0.257630 0.841685 0.755162 -0.730315
H257  H     H_    0.264169 0.870803 0.739216 0.272806
H258  H     H_    0.212126 0.841507 0.750725 0.165199
H259  H     H_    0.299557 0.835268 0.815623 0.287708
O124  O     O_3   0.740121 0.231400 0.298309 -0.557584
C247  C     C_3   0.752385 0.191247 0.308206 0.213224
H260  H     H_    0.709220 0.174743 0.294591 0.117599
H261  H     H_    0.795021 0.184566 0.368261 0.185402
C248  C     C_3   0.767743 0.177592 0.254053 -0.854552
H262  H     H_    0.809907 0.194036 0.265348 0.263072
H263  H     H_    0.780140 0.146401 0.263269 0.181019
H264  H     H_    0.724519 0.182083 0.193402 0.281808
O125  O     O_3   0.112483 0.185763 0.298379 -0.561178
C249  C     C_3   0.057632 0.186949 0.299024 -0.110968
H265  H     H_    0.031042 0.214892 0.276653 0.130317
H266  H     H_    0.071554 0.181448 0.357772 0.178717
H267  H     H_    0.023339 0.163786 0.260563 0.186000
O126  O     O_3   0.946905 0.762732 0.706267 -0.577823
C250  C     C_3   0.959486 0.802202 0.704059 -0.158600
H268  H     H_    0.936686 0.821071 0.723648 0.161543
H269  H     H_    0.942902 0.810958 0.645446 0.167386
H270  H     H_    0.012925 0.806963 0.744031 0.187000
O127  O     O_3   0.893463 0.188294 0.700378 -0.553804
C251  C     C_3   0.948716 0.191363 0.700821 -0.121108
H271  H     H_    0.975061 0.219143 0.726722 0.127228
H272  H     H_    0.935359 0.188085 0.641776 0.175760
H273  H     H_    0.982962 0.167706 0.736797 0.186433
O128  O     O_3   0.055145 0.766581 0.295093 -0.581169
C252  C     C_3   0.044374 0.806487 0.295963 -0.144267
H274  H     H_    0.067493 0.824021 0.275097 0.160534
H275  H     H_    0.061917 0.816310 0.354422 0.184176
H276  H     H_    0.991125 0.811919 0.256362 0.184004
O129  O     O_3   0.612488 0.685762 0.298379 -0.561190
C253  C     C_3   0.557638 0.686944 0.299025 -0.110952
H277  H     H_    0.531045 0.714886 0.276655 0.130321
H278  H     H_    0.571560 0.681442 0.357772 0.178728
H279  H     H_    0.523346 0.663781 0.260563 0.186003
O130  O     O_3   0.446907 0.262725 0.706269 -0.577829
C254  C     C_3   0.459496 0.302193 0.704058 -0.158601
H280  H     H_    0.436699 0.321066 0.723644 0.161507
H281  H     H_    0.442916 0.310947 0.645446 0.167395
H282  H     H_    0.512936 0.306951 0.744032 0.187008
O131  O     O_3   0.393413 0.688262 0.700404 -0.553761
C255  C     C_3   0.448646 0.691314 0.700804 -0.121193
H283  H     H_    0.474998 0.719096 0.726674 0.127175
H284  H     H_    0.435263 0.688020 0.641749 0.175775
H285  H     H_    0.482896 0.667660 0.736787 0.186472
O132  O     O_3   0.555173 0.266564 0.295124 -0.581209
C256  C     C_3   0.544354 0.306464 0.295978 -0.144339
H286  H     H_    0.567442 0.324014 0.275091 0.160510
H287  H     H_    0.561897 0.316288 0.354436 0.184203
H288  H     H_    0.491099 0.311873 0.256386 0.183993
O133  O     O_3   0.195063 0.185449 0.457303 -0.560840
C257  C     C_3   0.243910 0.159520 0.472707 -0.295014
H289  H     H_    0.292278 0.169392 0.523632 0.137439
H290  H     H_    0.244482 0.154982 0.422014 0.162884
H291  H     H_    0.234238 0.131084 0.487572 0.194540
O134  O     O_3   0.869115 0.759484 0.546890 -0.609059
C258  C     C_3   0.886135 0.722974 0.535179 -0.331088
H292  H     H_    0.842630 0.708591 0.484364 0.144203
H293  H     H_    0.910005 0.704092 0.587138 0.174204
H294  H     H_    0.921515 0.727202 0.522004 0.186934
O135  O     O_3   0.809555 0.187973 0.542077 -0.550507
C259  C     C_3   0.759939 0.162467 0.526013 -0.287098
H295  H     H_    0.711384 0.173640 0.477855 0.132452
H296  H     H_    0.761483 0.156594 0.577799 0.164950
H297  H     H_    0.766976 0.134503 0.506867 0.191622
O136  O     O_3   0.134238 0.765227 0.454663 -0.550414
C260  C     C_3   0.115829 0.729608 0.467812 -0.306922
H298  H     H_    0.159357 0.713663 0.515198 0.137001
H299  H     H_    0.086828 0.711492 0.414691 0.166787
H300  H     H_    0.084681 0.735415 0.486679 0.183238
O137  O     O_3   0.695069 0.685447 0.457303 -0.560837
C261  C     C_3   0.743919 0.659521 0.472707 -0.295022
H301  H     H_    0.792286 0.669394 0.523631 0.137439
H302  H     H_    0.744490 0.654984 0.422014 0.162882
H303  H     H_    0.734250 0.631084 0.487573 0.194541
O138  O     O_3   0.369117 0.259478 0.546890 -0.609065
C262  C     C_3   0.386133 0.222966 0.535180 -0.331088
H304  H     H_    0.342626 0.208585 0.484364 0.144206
H305  H     H_    0.410000 0.204085 0.587139 0.174207
H306  H     H_    0.421514 0.227191 0.522007 0.186937
O139  O     O_3   0.309454 0.687906 0.542110 -0.550468
C263  C     C_3   0.259819 0.662420 0.526055 -0.286895
H307  H     H_    0.211274 0.673598 0.477882 0.132445
H308  H     H_    0.261350 0.656570 0.577840 0.164855
H309  H     H_    0.266843 0.634443 0.506934 0.191609
O140  O     O_3   0.634310 0.265240 0.454700 -0.550488
C264  C     C_3   0.615937 0.229612 0.467869 -0.306982
H310  H     H_    0.659483 0.213675 0.515242 0.136956
H311  H     H_    0.586932 0.211494 0.414750 0.166864
H312  H     H_    0.584805 0.235406 0.486763 0.183246

loop_
_geom_bond_atom_site_label_1
_geom_bond_atom_site_label_2
_ccdc_geom_bond_type
C101  C107  A    
C190  H106  S    
C230  H217  S    
C69   O137  S    
C245  H255  S    
C116  O26   A    
C53   C95   S    
C168  H47   S    
C232  H222  S    
O67   C167  S    
C34   C42   A    
C76   C79   S    
C136  C140  A    
C27   O103  S    
C247  C248  S    
O1    Zn9   S    
C178  H71   S    
O11   Zn5   S    
C65   O133  S    
O117  C233  S    
C264  H312  S    
C135  C139  A    
C130  O78   S    
C9    C149  S    
C165  H37   S    
O76   C183  S    
C261  H302  S    
O88   C196  S    
C250  H269  S    
C191  H108  S    
O81   C189  S    
C231  H220  S    
C228  H210  S    
C67   O135  S    
C194  H117  S    
C229  H214  S    
O63   C163  S    
C206  H151  S    
C62   C70   A    
C239  C240  S    
C221  H189  S    
C204  H144  S    
C222  H194  S    
C257  H289  S    
C7    O51   A    
C201  C202  S    
C88   C104  A    
C215  H172  S    
O36   Zn6   S    
C183  H84   S    
O38   Zn2   S    
O12   Zn6   S    
C231  H219  S    
C202  H140  S    
C261  H303  S    
C18   C26   S    
C262  H306  S    
C157  H14   S    
C166  H41   S    
C47   O123  S    
C175  H64   S    
O48   Zn12  S    
C64   O132  S    
C36   O112  S    
C187  H97   S    
C55   C93   S    
C113  O23   A    
C246  H259  S    
C31   C147  S    
C229  H215  S    
C114  O24   A    
C85   O65   S    
C82   C98   A    
C49   C91   S    
C198  H130  S    
C120  O36   A    
C41   C49   A    
C182  H82   S    
O129  C253  S    
C169  H50   S    
C118  O30   A    
C184  H88   S    
C171  H55   S    
C157  H15   S    
O24   Zn12  S    
O135  C259  S    
C84   C100  A    
C259  H297  S    
C8    O52   A    
C132  O80   S    
C121  C129  A    
C179  H74   S    
O136  C260  S    
C200  H136  S    
C20   C28   S    
C237  C238  S    
C218  H181  S    
O96   C207  S    
C7    O11   A    
C179  C180  S    
C208  H156  S    
C257  H291  S    
C5    O9    A    
C260  H300  S    
C189  H102  S    
C86   O66   S    
C24   C32   S    
O114  C230  S    
C209  H158  S    
C24   C151  S    
C253  H279  S    
C184  H87   S    
C92   O16   A    
C154  H4    S    
C251  H273  S    
C238  H237  S    
C195  H120  S    
C93   O17   A    
C148  O96   S    
C12   C20   S    
C175  C176  S    
C155  H8    S    
C104  O76   S    
C13   C21   S    
O4    Zn16  S    
C127  C143  A    
C180  H78   S    
C237  H236  S    
C220  H187  S    
C128  C144  A    
C204  H146  S    
C244  H252  S    
C115  O25   A    
C252  H274  S    
C87   C103  A    
C33   C73   A    
C227  H207  S    
C62   O130  S    
C63   C71   A    
C133  C139  A    
C252  H276  S    
C84   O64   S    
O123  C245  S    
C232  H224  S    
C249  H266  S    
C36   C44   A    
C189  H103  S    
C37   C45   A    
O46   Zn10  S    
O1    Zn11  S    
C178  H73   S    
C199  H131  S    
C39   C47   A    
O126  C250  S    
C158  H18   S    
C40   C48   A    
C1    C20   S    
C201  H138  S    
C173  C174  S    
O29   Zn3   S    
C2    C19   S    
C207  H152  S    
O25   Zn13  S    
O116  C232  S    
C235  C236  S    
O79   C187  S    
C58   O126  S    
O70   C171  S    
C7    C22   S    
C240  H242  S    
C100  C106  A    
C19   C148  S    
C98   C106  A    
C17   C25   S    
O108  C224  S    
C167  H44   S    
C17   C146  S    
C208  H154  S    
C119  C139  S    
O121  C241  S    
C94   O18   A    
C41   O117  S    
C177  C178  S    
C149  O97   S    
C10   C18   S    
C231  H221  S    
C37   O113  S    
O30   Zn4   S    
C61   C69   A    
C211  H162  S    
C84   C110  A    
O8    Zn2   S    
C124  O56   S    
C168  H46   S    
C114  O22   A    
C129  C137  A    
C263  H307  S    
C126  C134  A    
C219  H184  S    
C174  H61   S    
O106  C222  S    
C103  C107  A    
C88   O68   S    
C236  H232  S    
C118  C138  S    
C10   C150  S    
C143  C144  S    
C159  H19   S    
C242  H248  S    
C225  H202  S    
C81   O61   S    
O119  C237  S    
O44   Zn8   S    
C164  H34   S    
C12   O88   S    
C12   C152  S    
C69   C77   A    
C111  C112  S    
O5    Zn3   S    
O87   C195  S    
O15   Zn11  S    
C218  H182  S    
C35   O111  S    
C224  H200  S    
C71   C79   A    
C192  H110  S    
C172  H56   S    
C254  H281  S    
O118  C235  S    
O98   C211  S    
C131  O79   S    
C183  C184  S    
O47   Zn11  S    
C91   O15   A    
O128  C252  S    
O10   Zn8   S    
C163  H33   S    
C5    O49   A    
O61   C161  S    
C162  H30   S    
C233  H226  S    
C172  H57   S    
C40   C80   A    
C66   C74   A    
C49   C57   A    
O56   C156  S    
C124  C132  A    
C211  C212  S    
C25   C149  S    
C160  H22   S    
C223  H196  S    
C99   O71   S    
C243  H250  S    
C244  H254  S    
C217  H178  S    
C52   C60   A    
C214  H171  S    
C59   C67   A    
C241  H245  S    
C53   C61   A    
C227  H209  S    
C248  H264  S    
O35   Zn5   S    
C170  H52   S    
C74   C77   S    
C55   C63   A    
C188  H100  S    
C56   C64   A    
C203  H142  S    
C120  C140  S    
C35   C43   A    
C102  O74   S    
O20   Zn16  S    
C199  H133  S    
C186  H94   S    
C16   C27   S    
C45   C53   A    
C136  O84   S    
C156  H10   S    
C3    O7    A    
C176  H67   S    
O93   C201  S    
C234  H228  S    
C187  H96   S    
O7    Zn1   S    
C240  H244  S    
C213  H168  S    
C216  H175  S    
C195  H121  S    
C225  H203  S    
O2    Zn12  S    
C8    O12   A    
C177  H69   S    
C163  H31   S    
C247  H261  S    
C153  H3    S    
C23   C31   S    
C21   C150  S    
C214  H170  S    
C243  C244  S    
C259  H296  S    
C183  H85   S    
O53   C153  S    
O42   Zn6   S    
C198  H128  S    
C263  H309  S    
C174  H63   S    
C89   O13   A    
C100  O72   S    
C10   O86   S    
C203  C204  S    
C210  H159  S    
C11   O87   S    
C1    O5    A    
C68   O136  S    
O39   Zn3   S    
C103  O75   S    
C236  H234  S    
C239  H241  S    
C212  H165  S    
C185  H91   S    
C9    O85   S    
O86   C194  S    
C242  H247  S    
C150  O98   S    
C9    C30   S    
C42   C50   A    
C159  H21   S    
O1    Zn1   S    
C11   C151  S    
C154  H5    S    
C251  H272  S    
C11   C32   S    
C256  H286  S    
C196  H124  S    
C12   C31   S    
C256  H287  S    
C14   C22   S    
O31   Zn1   S    
O100  C215  S    
C13   C26   S    
C67   C75   A    
C218  H180  S    
C86   C102  A    
C233  C234  S    
C192  H112  S    
C255  H283  S    
C90   O38   A    
C228  H212  S    
O13   Zn9   S    
C190  H105  S    
O58   C158  S    
C153  H2    S    
C245  H256  S    
C22   C30   S    
C249  H265  S    
C1    O45   A    
C27   C151  S    
O84   C192  S    
C207  C208  S    
C162  H28   S    
C161  H25   S    
C264  H311  S    
C165  H38   S    
C57   O125  S    
C205  H147  S    
C160  H24   S    
O6    Zn4   S    
O16   Zn12  S    
C164  H35   S    
O102  C218  S    
C97   C105  A    
C72   C80   A    
O122  C243  S    
C205  C206  S    
C101  O73   S    
C125  C143  A    
C126  C144  A    
C206  H150  S    
C221  H190  S    
C222  H193  S    
C91   O39   A    
C209  H157  S    
C151  O99   S    
C226  H206  S    
C119  O35   A    
C38   C46   A    
C230  H216  S    
C4    O48   A    
C51   C59   A    
O64   C164  S    
C165  H39   S    
C163  H32   S    
C202  H139  S    
C220  H188  S    
C93   O41   A    
C13   O89   S    
C262  H305  S    
O80   C188  S    
C175  H65   S    
C215  C216  S    
O19   Zn15  S    
C38   O114  S    
O17   Zn13  S    
C23   C152  S    
O120  C239  S    
O34   Zn8   S    
C221  H191  S    
C232  H223  S    
C52   C90   S    
C3    O47   A    
C26   O102  S    
O2    Zn10  S    
C18   C145  S    
C238  H239  S    
C161  H27   S    
C182  H81   S    
O59   C159  S    
C187  H95   S    
C56   C94   S    
C248  H263  S    
C257  H290  S    
C11   C19   S    
O75   C181  S    
O52   Zn16  S    
C61   O129  S    
C89   O37   A    
C113  O21   A    
C223  H195  S    
C190  H104  S    
C127  C135  A    
C128  C136  A    
C29   C145  S    
O101  C217  S    
C235  H231  S    
C200  H135  S    
C87   C111  A    
C197  H125  S    
C132  C138  A    
C186  H92   S    
C122  O54   S    
C210  H161  S    
O32   Zn2   S    
O92   C200  S    
O65   C165  S    
C147  O95   S    
O137  C261  S    
C260  H299  S    
O105  C221  S    
C22   C149  S    
C185  H89   S    
C258  H294  S    
O1    Zn3   S    
O37   Zn1   S    
C32   O108  S    
O124  C247  S    
C87   O67   S    
O127  C251  S    
C16   O92   S    
O3    Zn15  S    
C13   C145  S    
C180  H77   S    
C253  H278  S    
C255  H285  S    
C146  O94   S    
C227  H208  S    
C230  H218  S    
C252  H275  S    
O89   C197  S    
C83   C99   A    
O99   C213  S    
C90   O14   A    
C194  H118  S    
C204  H145  S    
C249  H267  S    
O94   C203  S    
C211  H163  S    
C178  H72   S    
C199  H132  S    
O78   C186  S    
C215  H173  S    
C181  H79   S    
C158  H17   S    
C261  H301  S    
O4    Zn6   S    
O115  C231  S    
C50   C58   A    
C121  C141  A    
C48   O124  S    
C26   C150  S    
C250  H270  S    
C191  H107  S    
C198  H129  S    
C156  H12   S    
C254  H280  S    
C196  H122  S    
O138  C262  S    
C54   C62   A    
C181  C182  S    
C129  O77   S    
C229  H213  S    
O95   C205  S    
C37   C77   A    
C262  H304  S    
C120  O34   A    
O4    Zn8   S    
O22   Zn10  S    
C39   C79   A    
C226  H204  S    
C119  O33   A    
O97   C209  S    
C131  C137  A    
O9    Zn7   S    
O73   C177  S    
C166  H40   S    
C213  C214  S    
O3    Zn5   S    
C44   O120  S    
C202  H141  S    
C46   C54   A    
C98   O70   S    
C157  H13   S    
C216  H174  S    
C166  H42   S    
C134  O82   S    
C9    C17   S    
C135  O83   S    
C34   C74   A    
C4    C17   S    
C263  H308  S    
C208  H155  S    
O110  C226  S    
C104  C108  A    
C182  H83   S    
O45   Zn9   S    
C127  O59   S    
C159  H20   S    
C253  H277  S    
C248  H262  S    
C105  C113  S    
C171  H54   S    
C95   O43   A    
C40   O116  S    
C217  H177  S    
C123  C131  A    
C235  H230  S    
C39   O115  S    
O26   Zn14  S    
C223  H197  S    
O69   C169  S    
C83   O63   S    
C57   C65   A    
C85   C111  A    
O85   C193  S    
O77   C185  S    
O83   C191  S    
O82   C190  S    
C32   C148  S    
C59   O127  S    
C70   O138  S    
C38   C78   A    
C205  H148  S    
C245  C246  S    
C33   C41   A    
C108  C116  S    
C189  H101  S    
C258  H292  S    
C109  C110  S    
C51   C89   S    
C15   C147  S    
C162  H29   S    
C10   C29   S    
O50   Zn14  S    
C15   C28   S    
C225  H201  S    
C21   C29   S    
C43   C51   A    
O3    Zn7   S    
C155  H7    S    
O3    Zn13  S    
C177  H70   S    
C14   C25   S    
O72   C175  S    
C43   O119  S    
C243  H251  S    
C244  H253  S    
C88   C112  A    
C86   C112  A    
C96   O44   A    
C123  O55   S    
C60   C68   A    
C170  H51   S    
C194  H116  S    
C188  H99   S    
C121  O53   S    
C193  H113  S    
C203  H143  S    
O134  C258  S    
C141  C142  S    
C95   O19   A    
O2    Zn4   S    
C92   O40   A    
O23   Zn11  S    
C171  C172  S    
C31   O107  S    
O131  C255  S    
C201  H137  S    
C126  O58   S    
C70   C78   A    
C94   O42   A    
C176  H66   S    
O21   Zn9   S    
C250  H268  S    
C34   O110  S    
C191  H109  S    
C133  O81   S    
C234  H227  S    
O113  C229  S    
O103  C219  S    
O74   C179  S    
C240  H243  S    
C169  C170  S    
C35   C75   A    
C152  O100  S    
O109  C225  S    
C81   C97   A    
O71   C173  S    
C106  C114  S    
C82   C110  A    
C167  H43   S    
C188  H98   S    
C6    O50   A    
C134  C140  A    
O66   C166  S    
C45   O121  S    
C156  H11   S    
O57   C157  S    
C65   C73   A    
C3    C18   S    
C214  H169  S    
O90   C198  S    
C36   C76   A    
C224  H199  S    
C14   O90   S    
C179  H75   S    
C58   C66   A    
C6    O10   A    
C219  H183  S    
C174  H62   S    
C193  H115  S    
C224  H198  S    
C173  H60   S    
C222  H192  S    
C83   C109  A    
C102  C108  A    
C236  H233  S    
C19   C27   S    
C212  H164  S    
O27   Zn15  S    
C28   O104  S    
C2    O6    A    
C242  H249  S    
C145  O93   S    
C15   C23   S    
C196  H123  S    
C256  H288  S    
O40   Zn4   S    
C123  C141  A    
C153  H1    S    
O133  C257  S    
C63   O131  S    
C192  H111  S    
C255  H284  S    
C30   C146  S    
C254  H282  S    
C241  H246  S    
C228  H211  S    
C99   C105  A    
C30   O106  S    
C169  H49   S    
O140  C264  S    
C25   O101  S    
C82   O62   S    
C233  H225  S    
C172  H58   S    
C161  H26   S    
C168  H48   S    
C209  C210  S    
C186  H93   S    
C264  H310  S    
C155  H9    S    
C33   O109  S    
C46   O122  S    
C160  H23   S    
C181  H80   S    
C60   O128  S    
O43   Zn7   S    
C173  H59   S    
C15   O91   S    
O41   Zn5   S    
O111  C227  S    
C73   C78   S    
C170  H53   S    
O60   C160  S    
O33   Zn7   S    
C206  H149  S    
C164  H36   S    
C20   C147  S    
O54   C154  S    
C42   O118  S    
C237  H235  S    
O104  C220  S    
C125  O57   S    
C226  H205  S    
C241  C242  S    
C107  C115  S    
O2    Zn2   S    
O14   Zn10  S    
C50   C92   S    
O132  C256  S    
C72   O140  S    
C28   C152  S    
C71   O139  S    
C66   O134  S    
C96   O20   A    
O130  C254  S    
C176  H68   S    
O28   Zn16  S    
C97   O69   S    
C122  C142  A    
O107  C223  S    
C234  H229  S    
C85   C101  A    
O112  C228  S    
C47   C55   A    
C246  H257  S    
C75   C80   S    
C125  C133  A    
C48   C56   A    
O139  C263  S    
C213  H167  S    
O68   C168  S    
C216  H176  S    
C2    O46   A    
C54   C96   S    
C260  H298  S    
C167  H45   S    
C117  C137  S    
C81   C109  A    
C124  C142  A    
C8    C21   S    
C158  H16   S    
C117  O31   A    
C247  H260  S    
C128  O60   S    
C118  O32   A    
C184  H86   S    
C14   C146  S    
O51   Zn15  S    
C16   C148  S    
C195  H119  S    
C259  H295  S    
C116  O28   A    
C238  H238  S    
O49   Zn13  S    
O125  C249  S    
C68   C76   A    
C44   C52   A    
C200  H134  S    
C4    O8    A    
C5    C24   S    
C197  H126  S    
C219  H185  S    
C6    C23   S    
C210  H160  S    
C117  O29   A    
C193  H114  S    
C64   C72   A    
C29   O105  S    
C239  H240  S    
C212  H166  S    
C185  H90   S    
C258  H293  S    
O62   C162  S    
O91   C199  S    
C154  H6    S    
C251  H271  S    
C16   C24   S    
C217  H179  S    
O55   C155  S    
O4    Zn14  S    
C207  H153  S    
C246  H258  S    
C180  H76   S    
C220  H186  S    
C122  C130  A    
C115  O27   A    
O18   Zn14  S    
C197  H127  S    
C130  C138  A    
