data_mof_unit_23383.cif
_audit_creation_date              2012-10-26T18:52:43-0400
_audit_creation_method            fapswitch 2.2
_symmetry_space_group_name_H-M    P1
_symmetry_Int_Tables_number       1
_space_group_crystal_system       triclinic
_cell_length_a                    10.741813
_cell_length_b                    14.67976
_cell_length_c                    14.696793
_cell_angle_alpha                 65.087078
_cell_angle_beta                  103.413084
_cell_angle_gamma                 102.816499
_cell_volume                      2024.18494001

loop_
_atom_site_label
_atom_site_type_symbol
_atom_type_description
_atom_site_fract_x
_atom_site_fract_y
_atom_site_fract_z
_atom_type_partial_charge
C1    C     C_R   0.476170 0.119848 0.312160 0.547504
C2    C     C_R   0.443269 0.361845 0.079477 0.029409
C3    C     C_R   0.396755 0.322840 0.002640 0.052529
C4    C     C_R   0.260936 0.996186 0.506564 0.544501
C5    C     C_R   0.461007 0.468483 0.053495 0.015166
C6    C     C_R   0.448454 0.534998 0.949616 0.024607
C7    C     C_R   0.398588 0.493127 0.875182 -0.139003
C8    C     C_R   0.372181 0.389020 0.901641 -0.134469
C9    C     C_R   0.488279 0.510235 0.128059 -0.126234
C10   C     C_R   0.514767 0.614826 0.102899 -0.004651
C11   C     C_R   0.515208 0.681265 0.000251 0.064674
C12   C     C_3   0.877390 0.995531 0.504163 0.031788
C13   C     C_R   0.483926 0.641219 0.923479 0.016827
C14   C     C_R   0.546447 0.787204 0.972217 -0.137172
C15   C     C_R   0.548900 0.852349 0.870998 -0.148675
C16   C     C_R   0.520285 0.880287 0.687909 0.538859
C17   C     C_R   0.493336 0.708600 0.822621 -0.141926
C18   C     C_R   0.707646 0.282403 0.673033 -0.161275
C19   C     C_R   0.676372 0.200946 0.642980 0.034804
C20   C     C_R   0.521880 0.286798 0.506560 0.027971
C21   C     C_R   0.539527 0.367788 0.539196 0.001147
C22   C     C_R   0.640399 0.366265 0.620894 0.039146
C23   C     C_3   0.952049 0.977930 0.612893 -0.209756
C24   C     C_R   0.465759 0.451703 0.491344 0.014779
C25   C     C_R   0.509324 0.539433 0.515893 0.001867
C26   C     C_R   0.613947 0.534708 0.596063 -0.140391
C27   C     C_R   0.675192 0.449014 0.648879 -0.129721
C28   C     C_R   0.739830 0.998795 0.500900 0.545477
C29   C     C_R   0.349626 0.451052 0.421362 -0.007323
C30   C     C_R   0.300164 0.542266 0.357797 0.017629
C31   C     C_R   0.334962 0.627297 0.385795 0.049580
C32   C     C_R   0.443241 0.627008 0.463613 -0.030138
C33   C     C_R   0.262081 0.710700 0.343195 -0.027655
C34   C     C_3   0.936761 0.097282 0.427902 -0.241043
C35   C     C_R   0.307688 0.794405 0.369814 0.053992
C36   C     C_R   0.481635 0.715367 0.486256 0.023171
C37   C     C_3   0.036207 0.899899 0.488675 -0.112855
C38   C     C_3   0.892005 0.908607 0.475262 -0.215861
C39   C     C_3   0.099601 0.985427 0.615785 -0.101829
C40   C     C_3   0.076504 0.091466 0.424260 -0.244401
C41   C     C_3   0.122626 0.993184 0.510520 0.078692
C42   C     C_3   0.064281 0.794322 0.570419 -0.419964
C43   C     C_3   0.173881 0.071759 0.649322 -0.417503
C44   C     C_3   0.545578 0.653221 0.187448 -0.409526
C45   C     C_R   0.452195 0.188040 0.204718 -0.007815
C46   C     C_3   0.222044 0.548071 0.255822 -0.398954
C47   C     C_3   0.259452 0.354043 0.427265 -0.418306
C48   C     C_3   0.127699 0.709027 0.282328 -0.425026
C49   C     C_R   0.522871 0.813238 0.795729 -0.009269
C50   C     C_R   0.375635 0.217776 0.027668 -0.137031
C51   C     C_R   0.402006 0.150640 0.128335 -0.143299
C52   C     C_R   0.474726 0.292800 0.179515 -0.141894
Cu1   Cu    Cu3+1 0.465900 0.918260 0.475680 0.902045
Cu2   Cu    Cu3+1 0.534100 0.081740 0.524320 0.904130
H1    H     H_    0.936092 0.160245 0.451088 0.134296
H2    H     H_    0.374600 0.538872 0.795576 0.105284
H3    H     H_    0.485333 0.462744 0.207103 0.100598
H4    H     H_    0.569045 0.820972 0.027861 0.108159
H5    H     H_    0.753101 0.448641 0.710940 0.106627
H6    H     H_    0.564416 0.723340 0.540983 0.119786
H7    H     H_    0.255136 0.858799 0.337445 0.127300
H8    H     H_    0.783403 0.279646 0.736968 0.088124
H9    H     H_    0.725583 0.134954 0.684689 0.118263
H10   H     H_    0.459339 0.288193 0.437573 0.129901
H11   H     H_    0.847323 0.924415 0.394666 0.114070
H12   H     H_    0.931825 0.033609 0.638848 0.129754
H13   H     H_    0.650061 0.595164 0.622438 0.090050
H14   H     H_    0.838209 0.835704 0.522062 0.132879
H15   H     H_    0.133444 0.914910 0.676319 0.125626
H16   H     H_    0.915667 0.901488 0.666774 0.094054
H17   H     H_    0.140126 0.160229 0.429731 0.127380
H18   H     H_    0.081731 0.092133 0.349184 0.102827
H19   H     H_    0.878771 0.114937 0.350651 0.110997
H20   H     H_    0.025919 0.776776 0.640803 0.120563
H21   H     H_    0.016050 0.734902 0.540748 0.125373
H22   H     H_    0.168648 0.787586 0.591653 0.172707
H23   H     H_    0.334231 0.360191 0.842286 0.107225
H24   H     H_    0.279746 0.072387 0.662727 0.171589
H25   H     H_    0.148045 0.146532 0.593530 0.135972
H26   H     H_    0.148454 0.059656 0.723059 0.111672
H27   H     H_    0.645131 0.695238 0.188987 0.126388
H28   H     H_    0.475684 0.704191 0.175537 0.130560
H29   H     H_    0.540433 0.590538 0.263262 0.140337
H30   H     H_    0.248037 0.622700 0.195334 0.132803
H31   H     H_    0.245894 0.492275 0.232124 0.134989
H32   H     H_    0.116924 0.531502 0.258778 0.126920
H33   H     H_    0.264000 0.332862 0.364105 0.113634
H34   H     H_    0.481172 0.681068 0.763410 0.121644
H35   H     H_    0.280465 0.291106 0.501612 0.128162
H36   H     H_    0.158076 0.364244 0.421636 0.133752
H37   H     H_    0.076911 0.768471 0.279841 0.106306
H38   H     H_    0.131110 0.724530 0.202355 0.128916
H39   H     H_    0.067387 0.635742 0.318772 0.142068
H40   H     H_    0.571587 0.933336 0.851822 0.124105
H41   H     H_    0.338563 0.187579 0.969290 0.101169
H42   H     H_    0.383332 0.069812 0.146272 0.123977
H43   H     H_    0.520325 0.319044 0.239150 0.119454
H44   H     H_    0.053998 0.903252 0.415471 0.137127
N1    N     N_R   0.585360 0.204570 0.560800 -0.234677
N2    N     N_R   0.414550 0.795430 0.439160 -0.246099
O1    O     O_R   0.455060 0.022100 0.338110 -0.501636
O2    O     O_R   0.512640 0.160150 0.379180 -0.511224
O3    O     O_R   0.288900 0.930980 0.479450 -0.520517
O4    O     O_R   0.346480 0.069030 0.520520 -0.510163
O5    O     O_R   0.487360 0.839850 0.620820 -0.512235
O6    O     O_R   0.544940 0.977900 0.661890 -0.509795
O7    O     O_R   0.653520 0.930970 0.479480 -0.509635
O8    O     O_R   0.711100 0.069020 0.520550 -0.504729

loop_
_geom_bond_atom_site_label_1
_geom_bond_atom_site_label_2
_ccdc_geom_bond_type
C40   H17   S    
C17   H34   S    
C44   H29   S    
C15   H40   S    
C7    C8    A    
C39   C41   S    
Cu1   Cu2   S    
C43   H24   S    
C12   C23   S    
C42   H21   S    
C29   C30   A    
C29   C47   S    
C34   C40   S    
C26   H13   S    
C32   C36   A    
C23   H12   S    
Cu2   O4    S    
Cu1   O3    S    
C44   H28   S    
C30   C31   A    
C11   C14   A    
C50   H41   S    
C4    C41   S    
C45   C51   A    
C28   O7    A    
C43   H25   S    
C4    O3    A    
C52   H43   S    
C18   C19   A    
C37   C42   S    
C24   C29   A    
Cu1   O1    S    
C48   H37   S    
C31   C33   A    
C9    C10   A    
C16   O6    A    
C51   H42   S    
C46   H31   S    
C25   C32   A    
C34   H1    S    
C21   C22   A    
C12   C38   S    
C47   H35   S    
C23   H16   S    
C7    H2    S    
C37   H44   S    
C3    C50   A    
C30   C46   S    
Cu1   N2    S    
C14   H4    S    
C42   H20   S    
C48   H39   S    
Cu2   O6    S    
C10   C44   S    
C24   C25   A    
C36   N2    A    
C3    C8    A    
C17   C49   A    
C19   N1    A    
C18   H8    S    
C39   C43   S    
C45   C52   A    
C43   H26   S    
C47   H33   S    
C20   H10   S    
C5    C9    A    
C37   C38   S    
Cu1   O7    S    
C31   C32   A    
C38   H11   S    
C50   C51   A    
C39   H15   S    
C35   H7    S    
C16   C49   S    
C2    C52   A    
C16   O5    A    
C46   H30   S    
C40   C41   S    
C12   C28   S    
C44   H27   S    
C22   C27   A    
C26   C27   A    
C8    H23   S    
C47   H36   S    
Cu2   N1    S    
C2    C5    A    
C12   C34   S    
C35   N2    A    
C1    O1    A    
C40   H18   S    
C18   C22   A    
Cu2   O2    S    
C38   H14   S    
C36   H6    S    
C6    C7    A    
Cu2   O8    S    
C42   H22   S    
C13   C17   A    
C2    C3    A    
C25   C26   A    
C19   H9    S    
C27   H5    S    
C6    C13   A    
C11   C13   A    
C1    C45   S    
C5    C6    A    
C20   N1    A    
C28   O8    A    
C23   C39   S    
C4    O4    A    
C33   C35   A    
C9    H3    S    
C15   C49   A    
C37   C41   S    
C10   C11   A    
C34   H19   S    
Cu1   O5    S    
C20   C21   A    
C48   H38   S    
C21   C24   A    
C33   C48   S    
C14   C15   A    
C1    O2    A    
C46   H32   S    
