data_mof_unit_41110.cif
_audit_creation_date              2012-12-11T17:33:19-0500
_audit_creation_method            fapswitch 2.2
_symmetry_space_group_name_H-M    P1
_symmetry_Int_Tables_number       1
_space_group_crystal_system       triclinic
_cell_length_a                    6.930676
_cell_length_b                    21.884312
_cell_length_c                    22.130382
_cell_angle_alpha                 107.604546
_cell_angle_beta                  90.051913
_cell_angle_gamma                 89.647857
_cell_volume                      3199.32113385

loop_
_atom_site_label
_atom_site_type_symbol
_atom_type_description
_atom_site_fract_x
_atom_site_fract_y
_atom_site_fract_z
_atom_type_partial_charge
O1    O     O_R   0.505730 0.449200 0.552060 -0.524804
O2    O     O_R   0.171560 0.427840 0.423150 -0.512035
O3    O     O_R   0.005630 0.550800 0.447940 -0.532491
C1    C     C_R   0.341608 0.409199 0.399287 0.742188
O4    O     O_R   0.175730 0.441570 0.550050 -0.533717
O5    O     O_R   0.009820 0.564620 0.575740 -0.517458
C2    C     C_R   0.345348 0.428279 0.568776 0.739376
O6    O     O_R   0.501530 0.435380 0.424260 -0.550745
O7    O     O_3   0.340640 0.540360 0.508280 -0.360134
V1    V     V_3+5 0.064080 0.492510 0.498460 1.552672
O8    O     O_R   0.680360 0.572160 0.576850 -0.546696
C3    C     C_R   0.848610 0.592335 0.599535 0.750501
O9    O     O_R   0.676190 0.558430 0.449950 -0.551895
C4    C     C_R   0.844420 0.571713 0.431347 0.718394
V2    V     V_3+5 0.564610 0.507490 0.501540 1.497737
O10   O     O_3   0.837920 0.459640 0.491720 -0.352890
C5    C     C_R   0.059987 0.797548 0.148647 -0.198343
H1    H     H_    0.166755 0.760770 0.147599 0.111851
C6    C     C_R   0.083036 0.836789 0.109124 -0.008489
C7    C     C_R   0.942203 0.884930 0.109927 -0.099524
C8    C     C_R   0.783771 0.891715 0.151528 -0.131548
H2    H     H_    0.674145 0.927857 0.153890 0.150225
C9    C     C_R   0.765003 0.852892 0.191276 -0.129281
H3    H     H_    0.642358 0.859826 0.223010 0.119532
C10   C     C_R   0.903267 0.805751 0.190195 0.111773
C11   C     C_1   0.887061 0.766125 0.232105 -0.043405
C12   C     C_1   0.877210 0.732806 0.267004 -0.053888
C13   C     C_R   0.038799 0.670805 0.329659 -0.132164
H4    H     H_    0.177883 0.683759 0.315050 0.107397
C14   C     C_R   0.031212 0.631805 0.369600 -0.136950
H5    H     H_    0.165430 0.615588 0.384812 0.123634
C15   C     C_R   0.852719 0.613920 0.389454 -0.043291
C16   C     C_R   0.682239 0.636245 0.368112 -0.141562
H6    H     H_    0.542236 0.623408 0.382058 0.118731
C17   C     C_R   0.690263 0.675237 0.328142 -0.120715
H7    H     H_    0.557172 0.691636 0.312332 0.105974
C18   C     C_R   0.868509 0.692730 0.308653 0.125187
C19   C     C_R   0.852775 0.649179 0.657483 -0.103245
C20   C     C_R   0.949022 0.857841 0.837357 -0.061464
C21   C     C_R   0.123236 0.801801 0.739746 -0.030617
C22   C     C_R   0.102263 0.853875 0.794973 -0.230402
C23   C     C_R   0.814947 0.808084 0.824323 -0.229157
C24   C     C_R   0.831842 0.755359 0.769012 0.126204
C25   C     C_R   0.978728 0.753260 0.723495 0.044385
C26   C     C_R   0.972883 0.703505 0.663833 -0.033425
C27   C     C_R   0.717353 0.651613 0.705351 -0.145718
C28   C     C_R   0.703371 0.704433 0.759214 -0.106096
H8    H     H_    0.614943 0.613431 0.700207 0.108223
H9    H     H_    0.592125 0.705064 0.793803 0.114564
H10   H     H_    0.212398 0.890614 0.806656 0.115181
H11   H     H_    0.701307 0.809329 0.858342 0.121111
C29   C     C_R   0.357662 0.356670 0.337705 -0.202820
C30   C     C_R   0.436877 0.141781 0.162484 -0.070706
C31   C     C_R   0.312149 0.176973 0.270308 -0.137754
C32   C     C_R   0.349040 0.128297 0.213834 -0.146729
C33   C     C_R   0.484396 0.205517 0.168128 -0.189164
C34   C     C_R   0.440716 0.255963 0.224291 0.026640
C35   C     C_R   0.357616 0.241626 0.276938 0.021384
C36   C     C_R   0.317657 0.291877 0.334034 -0.051405
C37   C     C_R   0.437537 0.370634 0.284288 -0.148398
C38   C     C_R   0.474177 0.320415 0.227501 0.416751
H12   H     H_    0.242056 0.163277 0.307821 0.107968
H13   H     H_    0.306813 0.079663 0.209969 0.109042
H14   H     H_    0.547974 0.215754 0.127564 0.140314
C39   C     C_R   0.588121 0.171983 0.823785 -0.131175
H15   H     H_    0.718113 0.188928 0.807091 0.122152
C40   C     C_R   0.603314 0.135050 0.865618 -0.171582
H16   H     H_    0.745388 0.124085 0.880049 0.117725
C41   C     C_R   0.436752 0.112286 0.888086 -0.051484
C42   C     C_R   0.255030 0.127818 0.867717 -0.173861
H17   H     H_    0.123393 0.111283 0.883781 0.121274
C43   C     C_R   0.240326 0.164702 0.826034 -0.125977
H18   H     H_    0.098904 0.175969 0.811231 0.124191
C44   C     C_R   0.406546 0.186785 0.803651 0.109446
C45   C     C_1   0.389976 0.225549 0.761101 -0.019823
C46   C     C_1   0.376213 0.259150 0.726633 0.117055
C47   C     C_R   0.523620 0.341255 0.686112 0.330377
C48   C     C_R   0.522061 0.381120 0.646460 0.343570
C49   C     C_R   0.355467 0.385436 0.610529 -0.216072
C50   C     C_R   0.195687 0.347236 0.613887 -0.276553
H19   H     H_    0.068304 0.349142 0.586038 0.197015
C51   C     C_R   0.199052 0.304492 0.650360 -0.060252
C52   C     C_R   0.364069 0.301918 0.687464 -0.084721
O11   O     O_R   0.294110 0.064720 0.075690 -0.534781
O12   O     O_R   0.619980 0.058360 0.949870 -0.545619
O13   O     O_R   0.785810 0.935300 0.924300 -0.539058
C53   C     C_R   0.450342 0.071358 0.931097 0.672576
O14   O     O_R   0.624080 0.072230 0.076800 -0.538410
O15   O     O_R   0.789930 0.949270 0.052130 -0.527629
C54   C     C_R   0.454094 0.090145 0.101143 0.693878
O16   O     O_R   0.289980 0.050750 0.947860 -0.544595
O17   O     O_3   0.454970 0.959660 0.991750 -0.341668
V3    V     V_3+5 0.731560 0.007480 0.001530 1.437936
O18   O     O_R   0.119360 0.941610 0.050140 -0.508610
C55   C     C_R   0.951377 0.927422 0.067954 0.708454
O19   O     O_R   0.115260 0.927740 0.923220 -0.542602
C56   C     C_R   0.947965 0.910260 0.898416 0.695223
V4    V     V_3+5 0.231020 0.992470 0.998490 1.472636
O20   O     O_3   0.957740 0.040330 0.008250 -0.375368
C57   C     C_2   0.311077 0.797225 0.706395 0.317563
H20   H     H_    0.389430 0.840575 0.708301 0.055110
O21   O     O_2   0.385957 0.745416 0.679943 -0.523603
C58   C     C_2   0.248075 0.275795 0.391023 0.346583
H21   H     H_    0.308974 0.235063 0.402811 0.044144
O22   O     O_2   0.119597 0.306711 0.424437 -0.522627
C59   C     C_2   0.482032 0.438378 0.288006 0.431974
H22   H     H_    0.413834 0.477845 0.323739 -0.003110
O23   O     O_2   0.597429 0.451160 0.252019 -0.505093
O24   O     O_3   0.547807 0.334254 0.175002 -0.531590
C60   C     C_3   0.392071 0.344094 0.137653 0.132804
H23   H     H_    0.305371 0.386901 0.163891 0.137876
H24   H     H_    0.295961 0.301482 0.123199 0.097396
C61   C     C_3   0.470975 0.355358 0.077843 -0.681038
H25   H     H_    0.555792 0.312904 0.050136 0.210241
H26   H     H_    0.349920 0.363363 0.048150 0.169463
H27   H     H_    0.565379 0.398194 0.090497 0.239928
C62   C     C_2   0.252267 0.823004 0.066507 0.349665
H28   H     H_    0.274641 0.774818 0.034894 0.029841
O25   O     O_2   0.375580 0.863428 0.069881 -0.517764
O26   O     O_3   0.694085 0.334096 0.716073 -0.536662
C63   C     C_3   0.684510 0.368837 0.781208 0.107939
H29   H     H_    0.553843 0.357218 0.804626 0.096973
H30   H     H_    0.685199 0.421142 0.788167 0.110434
C64   C     C_3   0.861189 0.352393 0.814211 -0.677924
H31   H     H_    0.994675 0.364972 0.792984 0.215895
H32   H     H_    0.857178 0.379675 0.865438 0.162658
H33   H     H_    0.863658 0.300294 0.808981 0.230502
O27   O     O_3   0.691232 0.411659 0.639976 -0.536664
C65   C     C_3   0.692024 0.474125 0.683297 0.138344
H34   H     H_    0.599383 0.480313 0.725925 0.056961
H35   H     H_    0.638351 0.507950 0.658880 0.116700
C66   C     C_3   0.897975 0.492020 0.705156 -0.728432
H36   H     H_    0.990388 0.491151 0.663999 0.218971
H37   H     H_    0.900637 0.540931 0.739528 0.166262
H38   H     H_    0.957066 0.457486 0.728358 0.228847
C67   C     C_2   0.028792 0.262308 0.645842 0.498981
H39   H     H_    0.911405 0.264455 0.613999 0.073719
O28   O     O_2   0.015576 0.224987 0.676924 -0.535025
C68   C     C_2   0.053510 0.716568 0.606374 0.431238
H40   H     H_    0.077090 0.765726 0.607034 0.038992
O29   O     O_2   0.092956 0.674033 0.557895 -0.527947

loop_
_geom_bond_atom_site_label_1
_geom_bond_atom_site_label_2
_ccdc_geom_bond_type
C53   O16   A    
C6    C7    A    
C1    O6    A    
C47   O26   S    
C48   O27   S    
O27   C65   S    
O17   V4    S    
C28   H9    S    
C47   C48   A    
O26   C63   S    
C11   C12   T    
C1    C29   S    
C2    C49   S    
C13   H4    S    
C29   C36   A    
C65   H34   S    
C62   O25   D    
O5    C3    A    
C14   H5    S    
C20   C56   S    
C59   H22   S    
C47   C52   A    
V2    O10   S    
C26   C68   S    
C33   C34   A    
O13   C56   A    
C60   H23   S    
O17   V3    S    
C63   C64   S    
O11   V4    S    
C29   C37   A    
C5    C6    A    
C8    H2    S    
C27   C28   A    
O12   V3    S    
C17   H7    S    
C66   H36   S    
C39   C40   A    
O19   V4    S    
C9    H3    S    
C33   H14   S    
C42   H17   S    
O1    V2    S    
O7    V1    S    
V3    O20   S    
C41   C53   S    
C23   H11   S    
C65   C66   S    
O12   C53   A    
C38   O24   S    
O9    C4    A    
C3    C19   S    
C41   C42   A    
O11   C54   A    
C46   C52   S    
C5    H1    S    
C20   C23   A    
C30   C32   A    
C27   H8    S    
C19   C27   A    
C44   C45   S    
C40   H16   S    
C43   C44   A    
O4    C2    A    
O14   V3    S    
C48   C49   A    
C43   H18   S    
C31   H12   S    
C10   C11   S    
C39   C44   A    
C32   H13   S    
C37   C38   A    
C40   C41   A    
O15   C55   A    
O2    C1    A    
C45   C46   T    
C21   C57   S    
O13   V3    S    
C51   C67   S    
C68   H40   S    
O19   C56   A    
C57   O21   D    
C16   H6    S    
C58   O22   D    
C60   C61   S    
C6    C62   S    
C63   H29   S    
O3    C4    A    
C64   H33   S    
C67   O28   D    
C21   C22   A    
C7    C55   S    
O14   C54   A    
V4    O20   S    
O6    V2    S    
O8    V2    S    
C8    C9    A    
C24   C25   A    
C19   C26   A    
C23   C24   A    
O2    V1    S    
C22   H10   S    
C58   H21   S    
C37   C59   S    
C25   C26   A    
C64   H32   S    
C61   H25   S    
C31   C35   A    
C30   C33   A    
C31   C32   A    
C17   C18   A    
O1    C2    A    
C4    C15   S    
C50   H19   S    
O5    V1    S    
O8    C3    A    
C34   C38   A    
C5    C10   A    
C15   C16   A    
C61   H27   S    
O9    V2    S    
C35   C36   A    
C36   C58   S    
O4    V1    S    
C39   H15   S    
O3    V1    S    
V1    O10   S    
C62   H28   S    
C14   C15   A    
C68   O29   D    
C34   C35   A    
C59   O23   D    
C13   C18   A    
C12   C18   S    
C66   H38   S    
C13   C14   A    
C57   H20   S    
C16   C17   A    
C50   C51   A    
C9    C10   A    
O16   V4    S    
O15   V3    S    
O18   C55   A    
C60   H24   S    
C63   H30   S    
C49   C50   A    
C21   C25   A    
C7    C8    A    
C20   C22   A    
C66   H37   S    
C51   C52   A    
C30   C54   S    
O18   V4    S    
C67   H39   S    
C42   C43   A    
C61   H26   S    
O24   C60   S    
C24   C28   A    
O7    V2    S    
C64   H31   S    
C65   H35   S    
