data_mof_unit_17298.cif
_audit_creation_date              2012-12-10T17:47:15-0500
_audit_creation_method            fapswitch 2.2
_symmetry_space_group_name_H-M    P1
_symmetry_Int_Tables_number       1
_space_group_crystal_system       triclinic
_cell_length_a                    11.699439
_cell_length_b                    14.672666
_cell_length_c                    14.638906
_cell_angle_alpha                 64.803228
_cell_angle_beta                  103.154079
_cell_angle_gamma                 102.643271
_cell_volume                      2192.85105746

loop_
_atom_site_label
_atom_site_type_symbol
_atom_type_description
_atom_site_fract_x
_atom_site_fract_y
_atom_site_fract_z
_atom_type_partial_charge
C1    C     C_R   0.481719 0.119958 0.311967 0.861192
C2    C     C_R   0.523149 0.880033 0.688251 0.860724
C3    C     C_R   0.402997 0.327020 0.001528 0.023386
C4    C     C_R   0.532680 0.678539 0.004719 0.109936
C5    C     C_R   0.501556 0.466637 0.053204 0.025526
C6    C     C_R   0.489027 0.536039 0.951076 0.029506
C7    C     C_R   0.432905 0.500039 0.874566 -0.202492
C8    C     C_R   0.528957 0.504043 0.130832 -0.240581
C9    C     C_R   0.393731 0.396387 0.897310 0.127037
C10   C     C_R   0.550219 0.608718 0.108844 0.175357
C11   C     C_R   0.703089 0.287426 0.664144 -0.127384
C12   C     C_R   0.278135 0.703244 0.354170 -0.078290
C13   C     C_R   0.664018 0.202277 0.639490 0.112601
C14   C     C_R   0.319033 0.788471 0.378412 0.087296
C15   C     C_R   0.518920 0.287080 0.506316 0.017844
C16   C     C_R   0.492942 0.720208 0.478605 0.000252
C17   C     C_R   0.554837 0.377655 0.524433 -0.022500
C18   C     C_R   0.462163 0.634293 0.452096 -0.046764
C19   C     C_R   0.655918 0.379936 0.599600 -0.035370
C20   C     C_R   0.354892 0.628840 0.383669 0.061727
C21   C     C_R   0.492700 0.464581 0.471778 0.088393
C22   C     C_R   0.532479 0.552684 0.494282 0.033824
C23   C     C_R   0.284141 0.000332 0.500017 0.810653
C24   C     C_R   0.715855 0.999663 0.499975 0.886982
C25   C     C_R   0.642992 0.557583 0.556344 -0.207511
C26   C     C_R   0.393211 0.466834 0.396091 -0.307606
C27   C     C_R   0.706448 0.474628 0.606058 -0.021438
C28   C     C_R   0.328748 0.548876 0.348469 -0.028058
C29   C     C_1   0.162608 0.000760 0.500131 -0.154057
C30   C     C_1   0.837359 0.999216 0.499823 -0.115250
C31   C     C_1   0.059992 0.000365 0.500046 0.029188
C32   C     C_1   0.939957 0.999586 0.499884 0.038372
C33   C     C_R   0.463926 0.188244 0.203438 -0.100224
C34   C     C_R   0.536551 0.812531 0.797708 -0.046246
C35   C     C_R   0.340729 0.226389 0.036436 -0.024468
C36   C     C_R   0.521776 0.783295 0.972014 -0.009149
C37   C     C_R   0.371930 0.158855 0.137439 -0.192558
C38   C     C_R   0.521832 0.847836 0.868755 -0.275106
C39   C     C_R   0.524760 0.288041 0.169186 -0.062975
C40   C     C_R   0.551495 0.710195 0.830628 -0.067352
C41   C     C_R   0.477271 0.360989 0.075588 -0.012338
C42   C     C_R   0.524174 0.641119 0.927979 -0.033639
Cu1   Cu    Cu3+1 0.469550 0.918260 0.475690 0.982812
Cu2   Cu    Cu3+1 0.530450 0.081740 0.524310 0.974265
H1    H     H_    0.685395 0.627718 0.563306 0.193191
H2    H     H_    0.366511 0.407449 0.367796 0.123331
H3    H     H_    0.506304 0.925839 0.842879 0.159745
H4    H     H_    0.320635 0.084060 0.166545 0.199847
H5    H     H_    0.415487 0.553398 0.796113 0.146898
H6    H     H_    0.530419 0.451288 0.209794 0.146098
H7    H     H_    0.570360 0.728891 0.531609 0.169766
H8    H     H_    0.446311 0.279478 0.448971 0.128693
H9    H     H_    0.263908 0.847616 0.353315 0.171702
H10   H     H_    0.701486 0.132286 0.684788 0.170549
N1    N     N_R   0.576230 0.204580 0.560790 -0.202652
N2    N     N_R   0.423770 0.795420 0.439210 -0.203626
O1    O     O_R   0.459870 0.022090 0.338120 -0.588412
O2    O     O_R   0.540130 0.977910 0.661880 -0.603576
O3    O     O_R   0.511290 0.160150 0.379180 -0.559633
O4    O     O_R   0.488710 0.839850 0.620820 -0.557000
O5    O     O_R   0.311490 0.930960 0.479480 -0.587644
O6    O     O_R   0.688510 0.069040 0.520520 -0.559453
O7    O     O_R   0.362910 0.069020 0.520540 -0.584198
O8    O     O_R   0.637090 0.930980 0.479460 -0.564745
C43   C     C_3   0.355901 0.363058 0.808251 -0.433467
C44   C     C_3   0.449676 0.401152 0.737652 -0.788812
H11   H     H_    0.457598 0.484870 0.695230 0.242787
H12   H     H_    0.537167 0.379695 0.782214 0.255444
H13   H     H_    0.423416 0.365972 0.680847 0.249605
H14   H     H_    0.343229 0.279373 0.834373 0.216245
H15   H     H_    0.271392 0.391591 0.763536 0.209508
C45   C     C_3   0.603062 0.641492 0.197295 -0.344641
C46   C     C_3   0.709541 0.588235 0.264855 -0.833278
H16   H     H_    0.681567 0.506749 0.310563 0.244388
H17   H     H_    0.775199 0.594976 0.217370 0.269376
H18   H     H_    0.752996 0.624429 0.319323 0.261206
H19   H     H_    0.637099 0.723677 0.169371 0.216002
H20   H     H_    0.534181 0.625471 0.245172 0.248560
C47   C     C_2   0.618421 0.678698 0.775399 0.355450
H21   H     H_    0.623518 0.599213 0.796622 0.095684
O9    O     O_2   0.677468 0.741446 0.711088 -0.538063
C48   C     C_2   0.647719 0.312532 0.218917 0.353875
H22   H     H_    0.694315 0.389355 0.191535 0.088118
O10   O     O_2   0.702499 0.246366 0.285899 -0.537558
C49   C     C_2   0.228584 0.196238 0.977942 0.363441
H23   H     H_    0.179235 0.253771 0.917265 0.085409
O11   O     O_2   0.188970 0.106777 0.997886 -0.487874
C50   C     C_2   0.488269 0.826520 0.035542 0.357739
H24   H     H_    0.514912 0.906639 0.020628 0.085487
O12   O     O_2   0.424738 0.775326 0.100405 -0.484115
C51   C     C_2   0.831371 0.493618 0.652961 0.333243
H25   H     H_    0.895812 0.447137 0.659795 0.081834
O13   O     O_2   0.864289 0.562466 0.682968 -0.516154
C52   C     C_2   0.243847 0.550496 0.255490 0.342058
H26   H     H_    0.197998 0.479527 0.250585 0.068033
O14   O     O_2   0.229911 0.629874 0.181226 -0.456861
C53   C     C_2   0.780294 0.272856 0.763776 0.308163
H27   H     H_    0.781275 0.321816 0.802430 0.095051
O15   O     O_2   0.841766 0.204432 0.805076 -0.520152
C54   C     C_2   0.150443 0.687880 0.312510 0.451040
H28   H     H_    0.103996 0.611898 0.325526 0.053602
O16   O     O_2   0.094788 0.759855 0.265103 -0.514767

loop_
_geom_bond_atom_site_label_1
_geom_bond_atom_site_label_2
_ccdc_geom_bond_type
C44   H12   S    
C21   C26   A    
C4    C36   A    
C8    H6    S    
C35   C49   S    
C46   H16   S    
C14   N2    A    
C16   H7    S    
C53   H27   S    
C1    C33   S    
C39   C41   A    
C49   H23   S    
C36   C50   S    
C11   C19   A    
C33   C39   A    
C34   C40   A    
C23   C29   S    
C35   C37   A    
C1    O3    A    
C5    C6    A    
C2    O4    A    
C44   H13   S    
Cu2   O3    S    
C43   H14   S    
C28   C52   S    
C45   H20   S    
Cu2   O2    S    
C22   C25   A    
C27   C51   S    
C19   C27   A    
C2    C34   S    
C23   O7    A    
C44   H11   S    
C24   O8    A    
C34   C38   A    
C21   C22   A    
C46   H17   S    
C53   O15   D    
Cu1   O8    S    
C24   C30   S    
C49   O11   D    
Cu2   O7    S    
C7    H5    S    
C51   H25   S    
C47   O9    D    
Cu1   O1    S    
C20   C28   A    
Cu2   O6    S    
C43   H15   S    
C33   C37   A    
C15   N1    A    
Cu1   Cu2   S    
C16   N2    A    
C45   H19   S    
C3    C9    A    
C1    O1    A    
C51   O13   D    
C31   C32   S    
C3    C35   A    
C12   C20   A    
C54   O16   D    
C40   C47   S    
C15   H8    S    
C37   H4    S    
C52   O14   D    
C38   H3    S    
Cu1   O4    S    
C16   C18   A    
C50   O12   D    
C48   H22   S    
C48   O10   D    
C46   H18   S    
C4    C10   A    
C25   H1    S    
Cu1   O5    S    
C13   H10   S    
C15   C17   A    
C5    C41   A    
C3    C41   A    
C24   O6    A    
C18   C22   A    
C39   C48   S    
C12   C14   A    
C45   C46   S    
C5    C8    A    
C2    O2    A    
C6    C7    A    
C25   C27   A    
C26   C28   A    
C11   C53   S    
C36   C38   A    
C29   C31   T    
C30   C32   T    
C11   C13   A    
Cu2   N1    S    
C4    C42   A    
C40   C42   A    
C54   H28   S    
C17   C19   A    
C18   C20   A    
C52   H26   S    
C9    C43   S    
C12   C54   S    
C26   H2    S    
C47   H21   S    
C7    C9    A    
Cu1   N2    S    
C23   O5    A    
C14   H9    S    
C50   H24   S    
C8    C10   A    
C43   C44   S    
C6    C42   A    
C10   C45   S    
C13   N1    A    
C17   C21   A    
