data_mof_unit_11820.cif
_audit_creation_date              2012-12-10T19:00:46-0500
_audit_creation_method            fapswitch 2.2
_symmetry_space_group_name_H-M    P1
_symmetry_Int_Tables_number       1
_space_group_crystal_system       triclinic
_cell_length_a                    15.084241
_cell_length_b                    10.868
_cell_length_c                    9.536214
_cell_angle_alpha                 90.567043
_cell_angle_beta                  90.005416
_cell_angle_gamma                 90.306509
_cell_volume                      1563.225362

loop_
_atom_site_label
_atom_site_type_symbol
_atom_type_description
_atom_site_fract_x
_atom_site_fract_y
_atom_site_fract_z
_atom_type_partial_charge
C1    C     C_R   0.502486 0.262407 0.498946 0.808017
C2    C     C_R   0.907118 0.496504 0.371502 0.109687
C3    C     C_R   0.953798 0.495971 0.755540 -0.210690
C4    C     C_R   0.046229 0.496647 0.755561 -0.207595
C5    C     C_R   0.092910 0.497369 0.628440 0.108820
C6    C     C_R   0.046487 0.497204 0.499961 0.061107
C7    C     C_R   0.092897 0.497738 0.371493 0.108850
C8    C     C_R   0.046203 0.497398 0.244356 -0.206956
C9    C     C_R   0.953771 0.496740 0.244360 -0.210044
C10   C     C_R   0.185279 0.498288 0.627546 -0.242412
C11   C     C_R   0.231672 0.498979 0.499985 -0.072382
C12   C     C_R   0.328576 0.499722 0.500001 0.821826
C13   C     C_R   0.185267 0.498641 0.372410 -0.240273
C14   C     C_R   0.473735 0.065859 0.614841 -0.016068
C15   C     C_R   0.501280 0.128904 0.495420 -0.191134
C16   C     C_R   0.519926 0.060620 0.371043 0.390691
C17   C     C_R   0.513637 0.932853 0.372807 -0.188336
C18   C     C_R   0.496225 0.870724 0.498255 -0.217297
C19   C     C_R   0.472368 0.938772 0.616797 0.047653
C20   C     C_3   0.509416 0.936843 0.762517 0.250955
C21   C     C_3   0.508245 0.076566 0.761440 -0.448098
C22   C     C_R   0.575578 0.527273 0.074106 0.255139
C23   C     C_R   0.499728 0.737609 0.500323 0.831424
C24   C     C_R   0.428249 0.460022 0.073872 -0.044435
C25   C     C_R   0.428212 0.460125 0.925124 -0.059054
C26   C     C_R   0.575749 0.526585 0.926637 0.255333
C27   C     C_3   0.627746 0.643280 0.922133 -0.493685
C28   C     C_3   0.627121 0.644464 0.081138 -0.482236
C29   C     C_R   0.671432 0.499164 0.499986 0.797053
C30   C     C_R   0.814760 0.496472 0.372443 -0.249726
C31   C     C_R   0.768347 0.497284 0.499964 -0.069059
C32   C     C_R   0.814774 0.496064 0.627454 -0.250169
C33   C     C_R   0.907131 0.496112 0.628397 0.109293
C34   C     C_R   0.953549 0.496619 0.499953 0.062935
Cu1   Cu    Cu3+1 0.500000 0.499980 0.640670 0.958161
Cu2   Cu    Cu3+1 0.500000 0.500020 0.359330 0.957223
H1    H     H_    0.779209 0.495714 0.273740 0.147699
H2    H     H_    0.529643 0.882486 0.277724 0.187696
H3    H     H_    0.577404 0.898616 0.767506 0.119201
H4    H     H_    0.458949 0.118659 0.833865 0.213805
H5    H     H_    0.575620 0.118453 0.766571 0.175672
H6    H     H_    0.369708 0.428915 0.128638 0.135228
H7    H     H_    0.369642 0.429115 0.869652 0.132178
H8    H     H_    0.694937 0.630238 0.877044 0.180054
H9    H     H_    0.589175 0.719023 0.876283 0.244094
H10   H     H_    0.694024 0.632054 0.127257 0.183496
H11   H     H_    0.779234 0.494954 0.726125 0.147914
H12   H     H_    0.588377 0.721711 0.126670 0.226245
H13   H     H_    0.918825 0.495588 0.854813 0.135476
H14   H     H_    0.081188 0.496697 0.854855 0.136068
H15   H     H_    0.220888 0.498468 0.726321 0.149499
H16   H     H_    0.220868 0.499099 0.273645 0.149122
H17   H     H_    0.081151 0.497738 0.145068 0.136051
H18   H     H_    0.918788 0.496660 0.145081 0.135447
N1    N     N_R   0.500570 0.500930 0.147930 -0.184050
N2    N     N_R   0.500570 0.500890 0.852020 -0.179345
O1    O     O_R   0.500000 0.319640 0.618810 -0.577352
O2    O     O_R   0.500010 0.319680 0.381230 -0.564060
O3    O     O_R   0.370250 0.499950 0.618800 -0.591292
O4    O     O_R   0.370260 0.499990 0.381220 -0.592486
O5    O     O_R   0.499990 0.680320 0.618770 -0.559732
O6    O     O_R   0.500000 0.680360 0.381190 -0.584475
O7    O     O_R   0.629740 0.500010 0.618780 -0.592913
O8    O     O_R   0.629750 0.500050 0.381200 -0.594440
O9    O     O_3   0.450998 0.884955 0.861080 -0.699843
H19   H     H_    0.390574 0.917718 0.844438 0.336716
O10   O     O_3   0.549968 0.113607 0.249190 -0.710982
H20   H     H_    0.595544 0.175623 0.275560 0.324794

loop_
_geom_bond_atom_site_label_1
_geom_bond_atom_site_label_2
_ccdc_geom_bond_type
C8    H17   S    
Cu1   N2    S    
C11   C12   S    
C29   O7    A    
C6    C7    A    
C1    C15   S    
C1    O1    A    
C13   H16   S    
C24   H6    S    
C31   C32   A    
C19   C20   S    
C25   N2    A    
C2    C30   A    
C30   C31   A    
Cu1   O1    S    
C32   C33   A    
C27   H9    S    
C17   C18   A    
C3    H13   S    
C29   O8    A    
C5    C10   A    
Cu1   O5    S    
C16   O10   S    
C22   C28   S    
C1    O2    A    
C20   C21   S    
C24   N1    A    
C4    C5    A    
C11   C13   A    
C28   H10   S    
C26   C27   S    
C22   N1    A    
C21   H4    S    
O10   H20   S    
Cu2   O6    S    
C10   H15   S    
C14   C19   A    
C14   C21   S    
Cu1   O3    S    
C25   H7    S    
C33   C34   A    
Cu2   O2    S    
C17   H2    S    
C5    C6    A    
C32   H11   S    
C21   H5    S    
C7    C8    A    
C10   C11   A    
C3    C33   A    
C15   C16   A    
C12   O4    A    
C6    C34   A    
C20   O9    S    
C7    C13   A    
C2    C9    A    
C24   C25   A    
C30   H1    S    
C29   C31   S    
O9    H19   S    
C22   C26   A    
C23   O5    A    
C27   C28   S    
Cu2   N1    S    
C20   H3    S    
C14   C15   A    
C18   C19   A    
Cu1   O7    S    
C9    H18   S    
C2    C34   A    
Cu2   O8    S    
C12   O3    A    
C27   H8    S    
C23   O6    A    
C28   H12   S    
C3    C4    A    
C18   C23   S    
C16   C17   A    
C4    H14   S    
C8    C9    A    
Cu2   O4    S    
Cu1   Cu2   S    
C26   N2    A    
