data_mof_unit_33718.cif
_audit_creation_date              2012-12-11T16:23:56-0500
_audit_creation_method            fapswitch 2.2
_symmetry_space_group_name_H-M    P1
_symmetry_Int_Tables_number       1
_space_group_crystal_system       triclinic
_cell_length_a                    14.755855
_cell_length_b                    14.772183
_cell_length_c                    33.272329
_cell_angle_alpha                 96.077361
_cell_angle_beta                  96.233605
_cell_angle_gamma                 61.174778
_cell_volume                      6304.4360593

loop_
_atom_site_label
_atom_site_type_symbol
_atom_type_description
_atom_site_fract_x
_atom_site_fract_y
_atom_site_fract_z
_atom_type_partial_charge
C1    C     C_R   0.390964 0.699536 0.446101 0.544074
C2    C     C_R   0.329742 0.347570 0.308772 0.041495
C3    C     C_R   0.411543 0.264883 0.328453 -0.107985
C4    C     C_R   0.431540 0.274034 0.370194 -0.123889
C5    C     C_R   0.393857 0.252696 0.165905 -0.108144
C6    C     C_R   0.384895 0.234371 0.124064 -0.124627
C7    C     C_R   0.209523 0.377580 0.121827 -0.125408
C8    C     C_R   0.218690 0.395597 0.163706 -0.107842
C9    C     C_R   0.309669 0.331128 0.185830 0.041524
C10   C     C_1   0.314188 0.339708 0.229133 -0.015137
C11   C     C_1   0.319541 0.343922 0.265477 -0.015182
C12   C     C_R   0.405824 0.386363 0.434002 0.543038
C13   C     C_R   0.291215 0.294226 0.101822 0.019517
C14   C     C_R   0.756377 0.373192 0.410152 0.022212
C15   C     C_R   0.789719 0.434824 0.393637 -0.128218
C16   C     C_R   0.818995 0.414096 0.353940 -0.118264
C17   C     C_R   0.815716 0.331232 0.330116 0.035353
C18   C     C_R   0.791885 0.263831 0.347855 -0.120251
C19   C     C_R   0.762349 0.284700 0.387602 -0.130602
C20   C     C_R   0.834918 0.311886 0.204767 0.347065
C21   C     C_R   0.827173 0.321701 0.286249 0.347396
C22   C     C_R   0.835731 0.390308 0.142279 -0.119483
C23   C     C_R   0.700713 0.409991 0.447522 0.546480
C24   C     C_R   0.865726 0.379115 0.103071 -0.130059
C25   C     C_R   0.909179 0.198042 0.099143 -0.131136
C26   C     C_R   0.879068 0.209285 0.138453 -0.119984
C27   C     C_R   0.846818 0.304359 0.161001 0.034290
C28   C     C_R   0.907409 0.281754 0.081915 0.021653
C29   C     C_R   0.370872 0.754396 0.409055 0.022082
C30   C     C_R   0.276872 0.783842 0.385759 -0.129294
C31   C     C_R   0.266730 0.811814 0.346225 -0.119242
C32   C     C_R   0.350282 0.811113 0.329348 0.034856
C33   C     C_R   0.440744 0.791205 0.353896 -0.119347
C34   C     C_R   0.393470 0.701299 0.561260 0.541100
C35   C     C_R   0.450994 0.762997 0.393475 -0.129656
C36   C     C_R   0.343542 0.828518 0.204333 0.347975
C37   C     C_R   0.346192 0.821605 0.285594 0.348293
C38   C     C_R   0.258562 0.831861 0.135207 -0.119448
C39   C     C_R   0.238844 0.862456 0.095665 -0.130382
C40   C     C_R   0.381655 0.901736 0.104910 -0.131600
C41   C     C_R   0.401448 0.871007 0.144514 -0.120698
C42   C     C_R   0.336808 0.840627 0.160587 0.035292
C43   C     C_R   0.296955 0.902474 0.080856 0.021786
C44   C     C_R   0.370405 0.367972 0.585024 -0.007830
C45   C     C_R   0.407009 0.388888 0.549061 0.543800
C46   C     C_R   0.282427 0.444289 0.604899 -0.027869
C47   C     C_R   0.267233 0.429795 0.643895 -0.137129
C48   C     C_R   0.337455 0.340429 0.663675 0.007235
C49   C     C_R   0.417562 0.259071 0.641997 -0.015952
C50   C     C_R   0.433300 0.273538 0.603103 -0.145056
C51   C     C_R   0.320102 0.346057 0.788712 0.342279
C52   C     C_R   0.330317 0.338658 0.707453 0.345949
C53   C     C_R   0.217707 0.400317 0.849905 -0.121332
C54   C     C_R   0.206163 0.381412 0.888663 -0.131392
C55   C     C_R   0.387342 0.252066 0.894036 -0.130660
C56   C     C_R   0.701258 0.413658 0.562701 0.543144
C57   C     C_R   0.399027 0.271375 0.855391 -0.119922
C58   C     C_R   0.313022 0.341873 0.832206 0.034594
C59   C     C_R   0.289639 0.303348 0.910164 0.022227
C60   C     C_R   0.753875 0.380677 0.602972 0.018946
C61   C     C_R   0.778163 0.447686 0.629574 -0.124162
C62   C     C_R   0.806266 0.427287 0.670378 -0.108839
C63   C     C_R   0.810863 0.339664 0.684964 0.039749
C64   C     C_R   0.793041 0.269331 0.658306 -0.107916
C65   C     C_R   0.765000 0.289458 0.617492 -0.123734
C66   C     C_R   0.885887 0.212910 0.822806 -0.108600
C67   C     C_R   0.370002 0.366435 0.392563 0.020182
C68   C     C_R   0.913638 0.201513 0.864188 -0.126985
C69   C     C_R   0.871495 0.382361 0.873491 -0.126200
C70   C     C_R   0.843619 0.393547 0.832170 -0.110635
C71   C     C_R   0.853706 0.308172 0.806634 0.042148
C72   C     C_1   0.838299 0.316976 0.763626 -0.017936
C73   C     C_1   0.826652 0.326009 0.727661 -0.018291
C74   C     C_R   0.910158 0.285325 0.889705 0.019411
C75   C     C_R   0.376235 0.754862 0.601984 0.016577
C76   C     C_R   0.281059 0.789544 0.619142 -0.119419
C77   C     C_R   0.271572 0.818788 0.660372 -0.109400
C78   C     C_R   0.283380 0.446237 0.372860 -0.124743
C79   C     C_R   0.356768 0.814101 0.684861 0.040153
C80   C     C_R   0.449833 0.785936 0.667673 -0.103751
C81   C     C_R   0.459527 0.756790 0.626381 -0.123088
C82   C     C_R   0.397076 0.884037 0.832788 -0.110108
C83   C     C_R   0.377229 0.911479 0.873607 -0.125922
C84   C     C_R   0.227866 0.882285 0.862694 -0.126492
C85   C     C_R   0.247999 0.854767 0.821925 -0.111282
C86   C     C_R   0.330852 0.858375 0.806735 0.039976
C87   C     C_1   0.343218 0.842542 0.763987 -0.020199
C88   C     C_1   0.350478 0.830456 0.727942 -0.018955
C89   C     C_R   0.263693 0.436892 0.331087 -0.108272
C90   C     C_R   0.290370 0.914131 0.888691 0.019368
C91   C     C_R   0.963493 0.264236 0.045530 0.545955
C92   C     C_R   0.272720 0.259437 0.060040 0.544062
C93   C     C_R   0.259254 0.959639 0.043770 0.545733
C94   C     C_R   0.962621 0.267622 0.930722 0.542477
C95   C     C_R   0.270910 0.264146 0.945460 0.545539
C96   C     C_R   0.256097 0.965086 0.928940 0.543072
Cr1   Cr    Cr6+3 0.576280 0.580550 0.506370 1.018959
Cr2   Cr    Cr6+3 0.346780 0.572400 0.496520 1.046879
Cr3   Cr    Cr6+3 0.576960 0.347070 0.497150 1.016334
Cr4   Cr    Cr6+3 0.087320 0.083240 0.984860 1.013546
Cr5   Cr    Cr6+3 0.087720 0.316210 0.996740 1.013173
Cr6   Cr    Cr6+3 0.317350 0.090340 0.995890 1.013436
H1    H     H_    0.449160 0.169720 0.109555 0.129578
H2    H     H_    0.737792 0.235303 0.399657 0.130378
H3    H     H_    0.862109 0.445361 0.090316 0.130547
H4    H     H_    0.839149 0.466193 0.341333 0.136025
H5    H     H_    0.789878 0.198628 0.330358 0.134788
H6    H     H_    0.808970 0.465182 0.158613 0.137262
H7    H     H_    0.940479 0.122130 0.083425 0.131557
H8    H     H_    0.887247 0.141957 0.151952 0.137003
H9    H     H_    0.213306 0.779105 0.397109 0.132437
H10   H     H_    0.524155 0.741469 0.410849 0.131419
H11   H     H_    0.173910 0.860829 0.077625 0.130265
H12   H     H_    0.464730 0.202725 0.182916 0.118070
H13   H     H_    0.195175 0.828911 0.328289 0.137147
H14   H     H_    0.505977 0.791354 0.341869 0.136455
H15   H     H_    0.208787 0.806634 0.146490 0.135249
H16   H     H_    0.428309 0.931511 0.094188 0.129985
H17   H     H_    0.463226 0.877274 0.163208 0.134876
H18   H     H_    0.498519 0.212208 0.587738 0.139801
H19   H     H_    0.130011 0.422724 0.900471 0.131472
H20   H     H_    0.203365 0.491602 0.659762 0.139875
H21   H     H_    0.462814 0.195313 0.311290 0.118086
H22   H     H_    0.150441 0.456494 0.833026 0.133527
H23   H     H_    0.453330 0.192398 0.910199 0.129645
H24   H     H_    0.473981 0.226287 0.842837 0.137075
H25   H     H_    0.943667 0.125650 0.875660 0.128554
H26   H     H_    0.893740 0.146433 0.803210 0.115024
H27   H     H_    0.796690 0.201153 0.669356 0.121018
H28   H     H_    0.746660 0.236371 0.597854 0.131584
H29   H     H_    0.769966 0.518699 0.619428 0.131846
H30   H     H_    0.818419 0.467695 0.819881 0.112063
H31   H     H_    0.867927 0.448334 0.892304 0.127449
H32   H     H_    0.498700 0.211236 0.384471 0.130421
H33   H     H_    0.820221 0.482038 0.690858 0.116521
H34   H     H_    0.426674 0.935891 0.892769 0.129334
H35   H     H_    0.461562 0.886780 0.821254 0.116253
H36   H     H_    0.516152 0.782241 0.686456 0.119633
H37   H     H_    0.533991 0.730009 0.614160 0.131932
H38   H     H_    0.215533 0.788948 0.601208 0.151162
H39   H     H_    0.196500 0.834672 0.801924 0.114238
H40   H     H_    0.160328 0.883705 0.873301 0.128122
H41   H     H_    0.199119 0.840788 0.673462 0.117056
H42   H     H_    0.234587 0.518401 0.389212 0.130546
H43   H     H_    0.153299 0.456707 0.178997 0.118167
H44   H     H_    0.136334 0.424956 0.105578 0.130129
H45   H     H_    0.200026 0.501131 0.315989 0.117452
H46   H     H_    0.787132 0.502855 0.410455 0.133026
N1    N     N_R   0.828821 0.395624 0.227959 -0.229383
N2    N     N_R   0.238795 0.397481 0.724768 -0.234526
N3    N     N_R   0.416821 0.285305 0.731648 -0.202638
N4    N     N_R   0.411728 0.288264 0.771426 -0.229136
N5    N     N_R   0.824692 0.400580 0.267850 -0.228834
N6    N     N_R   0.833014 0.237868 0.263090 -0.229983
N7    N     N_R   0.837566 0.232723 0.223120 -0.229989
N8    N     N_R   0.267114 0.821923 0.220943 -0.229716
N9    N     N_R   0.268603 0.818172 0.260731 -0.229393
N10   N     N_R   0.422976 0.827849 0.269024 -0.229956
N11   N     N_R   0.421302 0.831951 0.229169 -0.230069
N12   N     N_R   0.233675 0.400559 0.764590 -0.234696
O1    O     O_R   0.679450 0.499830 0.463150 -0.517439
O2    O     O_R   0.356040 0.477400 0.534170 -0.480675
O3    O     O_R   0.495910 0.323070 0.537100 -0.521107
O4    O     O_R   0.663920 0.359620 0.542290 -0.501697
O5    O     O_3   0.500010 0.500010 0.500010 -0.243055
O6    O     O_R   0.170070 0.978950 0.027680 -0.519415
O7    O     O_R   0.001760 0.175230 0.026640 -0.501280
O8    O     O_R   0.984760 0.333570 0.037150 -0.519535
O9    O     O_R   0.183410 0.309240 0.041890 -0.501488
O10   O     O_R   0.340240 0.172500 0.045430 -0.519698
O11   O     O_R   0.309670 0.000990 0.032050 -0.502004
O12   O     O_R   0.480650 0.664000 0.464630 -0.501924
O13   O     O_R   0.168330 0.982130 0.939200 -0.520231
O14   O     O_R   0.000140 0.178170 0.944610 -0.501900
O15   O     O_R   0.983010 0.336750 0.948660 -0.520056
O16   O     O_R   0.181800 0.312190 0.959860 -0.502579
O17   O     O_R   0.338500 0.175680 0.956950 -0.519038
O18   O     O_R   0.308050 0.003930 0.950020 -0.501415
O19   O     O_3   0.164130 0.163270 0.992500 -0.236543
O20   O     O_R   0.323930 0.675950 0.455370 -0.518460
O21   O     O_R   0.354700 0.475360 0.451930 -0.500964
O22   O     O_R   0.494470 0.320860 0.448390 -0.519325
O23   O     O_R   0.662580 0.357570 0.460050 -0.502139
O24   O     O_R   0.680900 0.502040 0.551870 -0.517667
O25   O     O_R   0.481990 0.666040 0.546870 -0.504159
O26   O     O_R   0.325370 0.678160 0.544080 -0.499765
C97   C     C_1   0.208742 0.540509 0.587412 0.221122
N13   N     N_1   0.149515 0.617669 0.573522 -0.298397
C98   C     C_1   0.485732 0.160421 0.658879 0.218704
N14   N     N_1   0.540362 0.081303 0.672323 -0.286044

loop_
_geom_bond_atom_site_label_1
_geom_bond_atom_site_label_2
_ccdc_geom_bond_type
Cr6   O10   S    
C7    C13   A    
C66   C68   A    
C87   C88   T    
C20   N7    A    
C55   C59   A    
C5    H12   S    
C2    C89   A    
C41   C42   A    
C74   C94   S    
C36   C42   S    
C8    H43   S    
C45   O2    A    
C65   H28   S    
C57   C58   A    
C7    C8    A    
C85   C86   A    
C25   C28   A    
Cr1   O25   S    
C26   C27   A    
C29   C30   A    
Cr1   O12   S    
C59   C95   S    
Cr4   O7    S    
C50   H18   S    
C5    C6    A    
C91   O7    A    
N8    N9    A    
C40   H16   S    
C38   C42   A    
C82   H35   S    
C69   C70   A    
C15   H46   S    
C80   C81   A    
C1    O20   A    
C22   H6    S    
C49   C98   S    
C68   C74   A    
C15   C16   A    
C51   N12   A    
C20   N1    A    
Cr4   O6    S    
C18   C19   A    
C37   N9    A    
C34   O26   A    
N1    N5    A    
C18   H5    S    
Cr3   O22   S    
C36   N11   A    
C43   C93   S    
C38   H15   S    
C95   O17   A    
C40   C43   A    
C12   O22   A    
C47   C48   A    
C53   C54   A    
C92   O10   A    
C16   C17   A    
C39   H11   S    
N3    N4    A    
C23   O1    A    
Cr5   O9    S    
C70   C71   A    
C46   C97   S    
C9    C10   S    
C26   H8    S    
Cr3   O23   S    
C25   H7    S    
C34   C75   S    
C7    H44   S    
C76   H38   S    
C95   O16   A    
Cr6   O19   S    
C98   N14   T    
C67   C78   A    
C84   C90   A    
C2    C11   S    
C31   H13   S    
C79   C88   S    
Cr2   O2    S    
C14   C23   S    
C3    H21   S    
C89   H45   S    
C54   C59   A    
C77   C79   A    
C78   C89   A    
C12   C67   S    
C32   C37   S    
C96   O13   A    
C55   H23   S    
C91   O8    A    
C84   C85   A    
C85   H39   S    
C57   H24   S    
C86   C87   S    
C8    C9    A    
C47   H20   S    
C39   C43   A    
C63   C73   S    
C25   C26   A    
C82   C86   A    
C17   C21   S    
C56   C60   S    
C32   C33   A    
C60   C61   A    
C41   H17   S    
C62   H33   S    
Cr5   O8    S    
C75   C76   A    
C77   H41   S    
C66   C71   A    
C5    C9    A    
C62   C63   A    
Cr5   O19   S    
C78   H42   S    
C19   H2    S    
C12   O21   A    
C84   H40   S    
C92   O9    A    
C21   N6    A    
C70   H30   S    
C17   C18   A    
C83   H34   S    
C69   C74   A    
C51   C58   S    
C6    H1    S    
C76   C77   A    
C34   O25   A    
C68   H25   S    
N6    N7    A    
C23   O23   A    
N2    N12   A    
C94   O14   A    
Cr3   O3    S    
C48   C49   A    
C54   H19   S    
C60   C65   A    
C49   C50   A    
Cr1   O1    S    
C22   C27   A    
C55   C57   A    
C13   C92   S    
Cr4   O14   S    
N10   N11   A    
Cr6   O18   S    
C22   C24   A    
C79   C80   A    
Cr5   O15   S    
Cr2   O20   S    
C3    C4    A    
C44   C45   S    
C36   N8    A    
Cr1   O24   S    
C4    H32   S    
C44   C50   A    
Cr6   O11   S    
C81   H37   S    
C83   C90   A    
C29   C35   A    
C46   C47   A    
C40   C41   A    
C33   H14   S    
C69   H31   S    
C14   C19   A    
C31   C32   A    
C75   C81   A    
C24   C28   A    
C72   C73   T    
C53   H22   S    
C93   O6    A    
C4    C67   A    
C53   C58   A    
C90   C96   S    
C20   C27   S    
C16   H4    S    
C56   O24   A    
C51   N4    A    
C94   O15   A    
C1    O12   A    
C80   H36   S    
C30   H9    S    
C64   C65   A    
Cr2   O21   S    
C2    C3    A    
C45   O3    A    
C97   N13   T    
Cr2   O26   S    
C56   O4    A    
C6    C13   A    
C30   C31   A    
C1    C29   S    
C38   C39   A    
C52   N3    A    
Cr1   O5    S    
Cr3   O4    S    
C33   C35   A    
C66   H26   S    
C28   C91   S    
C61   C62   A    
Cr2   O5    S    
C10   C11   T    
C61   H29   S    
C63   C64   A    
C48   C52   S    
C71   C72   S    
C64   H27   S    
C52   N2    A    
C82   C83   A    
Cr4   O13   S    
Cr6   O17   S    
C21   N5    A    
C14   C15   A    
Cr5   O16   S    
C24   H3    S    
C96   O18   A    
Cr4   O19   S    
C44   C46   A    
C35   H10   S    
Cr3   O5    S    
C37   N10   A    
C93   O11   A    
