data_mof_unit_24189.cif
_audit_creation_date              2012-12-10T20:34:48-0500
_audit_creation_method            fapswitch 2.2
_symmetry_space_group_name_H-M    P1
_symmetry_Int_Tables_number       1
_space_group_crystal_system       triclinic
_cell_length_a                    10.655639
_cell_length_b                    10.629646
_cell_length_c                    9.922494
_cell_angle_alpha                 89.873136
_cell_angle_beta                  89.959827
_cell_angle_gamma                 90.875493
_cell_volume                      1123.74367531

loop_
_atom_site_label
_atom_site_type_symbol
_atom_type_description
_atom_site_fract_x
_atom_site_fract_y
_atom_site_fract_z
_atom_type_partial_charge
C1    C     C_R   0.507269 0.260266 0.500120 0.868474
C2    C     C_3   0.878365 0.494490 0.500438 0.006088
C3    C     C_3   0.929919 0.629529 0.467560 0.332021
C4    C     C_3   0.926278 0.400465 0.393012 -0.347261
C5    C     C_R   0.542389 0.064376 0.621780 0.161632
C6    C     C_R   0.535201 0.129792 0.500487 -0.086330
C7    C     C_R   0.557498 0.066510 0.379092 -0.251977
C8    C     C_R   0.554339 0.936219 0.378429 -0.249816
C9    C     C_R   0.531600 0.871663 0.499803 -0.111685
C10   C     C_R   0.540407 0.936064 0.621498 0.122677
C11   C     C_3   0.460711 0.928418 0.745392 -0.480286
C12   C     C_R   0.257669 0.496633 0.500031 0.869549
C13   C     C_3   0.463842 0.071049 0.746007 -0.507973
C14   C     C_R   0.391116 0.509038 0.070475 0.193271
C15   C     C_R   0.609448 0.503802 0.071712 -0.149963
C16   C     C_R   0.609347 0.504357 0.928177 -0.157572
C17   C     C_R   0.391187 0.512229 0.929144 0.185484
C18   C     C_3   0.274786 0.433584 0.920232 -0.509673
C19   C     C_3   0.275373 0.427266 0.073608 -0.095778
C20   C     C_R   0.505743 0.740073 0.499805 0.886679
C21   C     C_R   0.741928 0.496328 0.500128 0.893875
C22   C     C_3   0.070130 0.468406 0.643596 -0.473200
C23   C     C_3   0.927402 0.451578 0.641747 0.351527
C24   C     C_3   0.073929 0.624592 0.452828 -0.460680
C25   C     C_3   0.069355 0.390870 0.404357 -0.433055
C26   C     C_3   0.120810 0.494782 0.499943 0.069436
H1    H     H_    0.093556 0.550724 0.708243 0.132127
H2    H     H_    0.901343 0.433154 0.289902 0.194116
H3    H     H_    0.101980 0.640789 0.345943 0.211063
H4    H     H_    0.567027 0.116387 0.284382 0.174764
H5    H     H_    0.560414 0.887492 0.282918 0.178341
H6    H     H_    0.365694 0.887735 0.725683 0.201698
H7    H     H_    0.511394 0.886365 0.831991 0.206079
H8    H     H_    0.370539 0.113391 0.727656 0.198384
H9    H     H_    0.518203 0.111276 0.831626 0.210171
H10   H     H_    0.697970 0.505087 0.124832 0.169634
H11   H     H_    0.114531 0.383037 0.686377 0.206402
H12   H     H_    0.697584 0.508418 0.874967 0.144606
H13   H     H_    0.195167 0.489647 0.884589 0.161444
H14   H     H_    0.288508 0.344515 0.864685 0.217155
H15   H     H_    0.195776 0.480218 0.116562 0.124255
H16   H     H_    0.887716 0.513722 0.721487 0.059237
H17   H     H_    0.117798 0.701280 0.513836 0.122525
H18   H     H_    0.906514 0.690246 0.555815 0.035572
H19   H     H_    0.109468 0.401263 0.302474 0.167299
H20   H     H_    0.095030 0.296287 0.442975 0.182536
H21   H     H_    0.882082 0.305733 0.406694 0.189062
N1    N     N_R   0.499150 0.499140 0.142800 -0.106527
N2    N     N_R   0.499150 0.499180 0.857150 -0.097422
O1    O     O_R   0.500020 0.316790 0.614690 -0.608959
O2    O     O_R   0.500000 0.316760 0.385350 -0.632644
O3    O     O_R   0.314800 0.500000 0.614670 -0.622876
O4    O     O_R   0.314790 0.499960 0.385330 -0.642490
O5    O     O_R   0.500000 0.683240 0.614650 -0.618078
O6    O     O_R   0.499980 0.683210 0.385310 -0.610407
O7    O     O_R   0.685210 0.500040 0.614670 -0.642498
O8    O     O_R   0.685200 0.500000 0.385330 -0.594931
Zn1   Zn    Zn3+2 0.500010 0.500020 0.653130 0.938333
Zn2   Zn    Zn3+2 0.499990 0.499980 0.346870 0.942977
O9    O     O_3   0.875999 0.675051 0.346260 -0.590469
C27   C     C_3   0.871715 0.807656 0.347558 -0.319739
H22   H     H_    0.967053 0.850229 0.359531 0.157806
H23   H     H_    0.808246 0.841200 0.428417 0.167517
H24   H     H_    0.833411 0.840195 0.249810 0.188120
C28   C     C_3   0.286008 0.294088 0.135694 -0.320586
C29   C     C_3   0.384706 0.208692 0.074039 -0.844078
H25   H     H_    0.393157 0.123087 0.137360 0.234849
H26   H     H_    0.354204 0.176683 0.973201 0.243647
H27   H     H_    0.477846 0.256283 0.067688 0.265659
H28   H     H_    0.305073 0.302828 0.244761 0.237675
H29   H     H_    0.193114 0.245985 0.126231 0.178860
O10   O     O_3   0.894228 0.322946 0.663353 -0.585791
C30   C     C_3   0.886040 0.294409 0.802169 -0.336518
H30   H     H_    0.791962 0.318641 0.840807 0.176436
H31   H     H_    0.960541 0.341825 0.863181 0.143077
H32   H     H_    0.896958 0.191513 0.815222 0.187122

loop_
_geom_bond_atom_site_label_1
_geom_bond_atom_site_label_2
_ccdc_geom_bond_type
C29   H26   S    
O6    Zn2   S    
C30   H30   S    
C4    C25   S    
O4    Zn2   S    
C7    C8    A    
C23   H16   S    
C24   C26   S    
C13   H9    S    
O5    Zn1   S    
C5    C6    A    
O8    Zn2   S    
C29   H27   S    
C28   H28   S    
C18   C19   S    
C27   H23   S    
C18   H14   S    
C24   H3    S    
C12   O3    A    
C8    C9    A    
C1    O1    A    
C5    C13   S    
C12   O4    A    
C3    O9    S    
C29   H25   S    
C7    H4    S    
C30   H31   S    
C14   C17   A    
C3    C24   S    
C15   N1    A    
C20   O6    A    
C14   C19   S    
C4    H2    S    
C3    H18   S    
C15   C16   A    
C1    C6    S    
O1    Zn1   S    
C11   H7    S    
C16   N2    A    
C20   O5    A    
C17   N2    A    
C14   N1    A    
C25   C26   S    
C28   H29   S    
C22   H11   S    
N2    Zn1   S    
C12   C26   S    
O9    C27   S    
C27   H24   S    
C2    C4    S    
C18   H13   S    
C21   O8    A    
C9    C20   S    
C2    C21   S    
C17   C18   S    
C1    O2    A    
O3    Zn1   S    
C11   H6    S    
C22   H1    S    
C30   H32   S    
O2    Zn2   S    
C25   H19   S    
C15   H10   S    
N1    Zn2   S    
C9    C10   A    
C8    H5    S    
C23   O10   S    
O10   C30   S    
C21   O7    A    
C6    C7    A    
C2    C3    S    
C13   H8    S    
C11   C13   S    
O7    Zn1   S    
C19   C28   S    
C27   H22   S    
C10   C11   S    
C5    C10   A    
C28   C29   S    
C22   C26   S    
C2    C23   S    
C24   H17   S    
C22   C23   S    
C25   H20   S    
C19   H15   S    
C16   H12   S    
C4    H21   S    
