data_mof_unit_21369.cif
_audit_creation_date              2012-12-10T18:50:02-0500
_audit_creation_method            fapswitch 2.2
_symmetry_space_group_name_H-M    P1
_symmetry_Int_Tables_number       1
_space_group_crystal_system       triclinic
_cell_length_a                    10.721748
_cell_length_b                    9.842813
_cell_length_c                    10.693821
_cell_angle_alpha                 89.925152
_cell_angle_beta                  89.803211
_cell_angle_gamma                 88.214118
_cell_volume                      1127.98640299

loop_
_atom_site_label
_atom_site_type_symbol
_atom_type_description
_atom_site_fract_x
_atom_site_fract_y
_atom_site_fract_z
_atom_type_partial_charge
C1    C     C_R   0.259461 0.502115 0.513322 1.029260
C2    C     C_3   0.611452 0.435750 0.928405 -0.505847
C3    C     C_R   0.062885 0.380821 0.541929 0.234078
C4    C     C_R   0.054634 0.626541 0.496841 0.341848
C5    C     C_R   0.941206 0.372604 0.500023 0.314627
C6    C     C_R   0.933767 0.614888 0.454034 0.309042
C7    C     C_R   0.873524 0.492636 0.471490 -0.359274
C8    C     C_R   0.124315 0.505763 0.527289 -0.360259
C9    C     C_R   0.570499 0.069405 0.584296 0.433148
C10   C     C_R   0.571332 0.925505 0.583638 0.434590
C11   C     C_R   0.434601 0.930617 0.412372 -0.082180
C12   C     C_R   0.434714 0.074286 0.412145 -0.083965
C13   C     C_R   0.496777 0.500512 0.257974 0.947904
C14   C     C_R   0.739641 0.497634 0.485846 0.979318
C15   C     C_R   0.494670 0.501190 0.742461 0.963838
C16   C     C_3   0.467288 0.652032 0.074083 0.209803
C17   C     C_3   0.388245 0.406644 0.072723 0.228807
C18   C     C_3   0.484490 0.655691 0.931527 0.264609
C19   C     C_3   0.375576 0.424961 0.929090 0.227784
C20   C     C_3   0.618555 0.449773 0.071104 -0.565049
C21   C     C_3   0.490540 0.502861 0.122199 -0.149785
C22   C     C_3   0.488970 0.505621 0.879217 -0.203899
H1    H     H_    0.539189 0.718904 0.113791 0.119577
H2    H     H_    0.422616 0.300134 0.089293 0.115991
H3    H     H_    0.383595 0.878299 0.341468 0.235283
H4    H     H_    0.382526 0.130562 0.341690 0.186420
H5    H     H_    0.577617 0.698591 0.912664 0.143723
H6    H     H_    0.378728 0.321555 0.887196 0.154352
H7    H     H_    0.692788 0.521509 0.096125 0.239028
H8    H     H_    0.645408 0.349260 0.112608 0.249463
H9    H     H_    0.694853 0.481688 0.885042 0.246206
H10   H     H_    0.614106 0.325977 0.903783 0.268700
N1    N     N_R   0.499970 0.857200 0.499970 -0.155500
N2    N     N_R   0.499970 0.142800 0.499970 -0.140649
O1    O     O_R   0.316750 0.614620 0.499990 -0.554840
O2    O     O_R   0.316750 0.385380 0.499990 -0.590113
O3    O     O_R   0.499970 0.614670 0.314790 -0.618306
O4    O     O_R   0.499970 0.385330 0.314790 -0.637008
O5    O     O_R   0.683220 0.614710 0.500010 -0.556121
O6    O     O_R   0.683220 0.385290 0.500010 -0.555237
O7    O     O_R   0.500010 0.614660 0.685200 -0.557227
O8    O     O_R   0.500010 0.385340 0.685200 -0.588197
Zn1   Zn    Zn3+2 0.499980 0.653120 0.500000 1.104790
Zn2   Zn    Zn3+2 0.499980 0.346880 0.500000 1.081294
Cl1   Cl    Cl    0.319302 0.723792 0.127963 -0.378919
Cl2   Cl    Cl    0.242610 0.415299 0.157805 -0.463941
Cl3   Cl    Cl    0.378124 0.777207 0.858611 -0.385613
Cl4   Cl    Cl    0.228576 0.501996 0.881814 -0.343068
S1    S     S_3+6 0.129614 0.234157 0.618775 0.158221
O9    O     O_2   0.238203 0.267952 0.699777 -0.262005
O10   O     O_2   0.032231 0.171221 0.699935 -0.115304
O11   O     O_3   0.176915 0.119838 0.510799 -0.483553
H11   H     H_    0.163190 0.164609 0.428815 0.369564
S2    S     S_3+6 0.106403 0.794311 0.523291 0.179558
O12   O     O_2   0.159685 0.846757 0.403215 -0.240187
O13   O     O_2   0.997964 0.885447 0.562075 -0.108904
O14   O     O_3   0.213217 0.798559 0.637350 -0.450200
H12   H     H_    0.246180 0.891347 0.633648 0.411846
Cl5   Cl    Cl    0.881939 0.210234 0.465153 -0.384722
Cl6   Cl    Cl    0.862460 0.748416 0.364381 -0.413540
Cl7   Cl    Cl    0.665479 0.152969 0.691455 -0.444842
Cl8   Cl    Cl    0.671261 0.835242 0.686607 -0.444418

loop_
_geom_bond_atom_site_label_1
_geom_bond_atom_site_label_2
_ccdc_geom_bond_type
C16   Cl1   S    
O3    Zn1   S    
C11   C12   A    
O4    Zn2   S    
C6    C7    A    
C10   N1    A    
C1    C8    S    
O1    Zn1   S    
C9    C10   A    
C15   O8    A    
C13   O3    A    
O6    Zn2   S    
C4    C8    A    
S1    O11   S    
C18   Cl3   S    
C20   C21   S    
S1    O10   D    
C18   C22   S    
C3    S1    S    
C13   C21   S    
C20   H8    S    
C2    C22   S    
C17   Cl2   S    
C19   H6    S    
O7    Zn1   S    
C15   O7    A    
C13   O4    A    
C16   C21   S    
O8    Zn2   S    
C9    Cl7   S    
C16   C18   S    
C17   C19   S    
C14   O6    A    
C3    C8    A    
C16   H1    S    
O14   H12   S    
C20   H7    S    
C7    C14   S    
C9    N2    A    
S2    O13   D    
C10   Cl8   S    
C17   H2    S    
O2    Zn2   S    
C5    Cl5   S    
C12   N2    A    
N1    Zn1   S    
C6    Cl6   S    
C11   N1    A    
C19   C22   S    
N2    Zn2   S    
O11   H11   S    
C1    O1    A    
C2    H10   S    
S1    O9    D    
C5    C7    A    
C11   H3    S    
S2    O12   D    
O5    Zn1   S    
C4    S2    S    
C14   O5    A    
C19   Cl4   S    
C4    C6    A    
C2    C20   S    
C15   C22   S    
C17   C21   S    
C18   H5    S    
C1    O2    A    
C12   H4    S    
C2    H9    S    
C3    C5    A    
S2    O14   S    
