data_mof_unit_49367.cif
_audit_creation_date              2013-03-05T15:58:45-0500
_audit_creation_method            fapswitch 2.2
_symmetry_space_group_name_H-M    P1
_symmetry_Int_Tables_number       1
_space_group_crystal_system       triclinic
_cell_length_a                    12.607017
_cell_length_b                    13.155666
_cell_length_c                    13.612887
_cell_angle_alpha                 92.903544
_cell_angle_beta                  95.596614
_cell_angle_gamma                 96.966835
_cell_volume                      2225.92896771

loop_
_atom_site_label
_atom_site_type_symbol
_atom_site_description
_atom_site_fract_x
_atom_site_fract_y
_atom_site_fract_z
_atom_type_partial_charge
O1    O     O_R   0.631100 0.627590 0.523760 -0.566090
O2    O     O_R   0.455900 0.662370 0.491970 -0.591134
C1    C     C_R   0.560292 0.691521 0.511328 0.854493
O3    O     O_R   0.600200 0.480080 0.377830 -0.594625
O4    O     O_R   0.425000 0.514870 0.346040 -0.617372
C2    C     C_R   0.517429 0.495869 0.318203 0.876896
Zn1   Zn    Zn3+2 0.616980 0.476780 0.521230 1.059606
Zn2   Zn    Zn3+2 0.383020 0.523220 0.478770 1.005078
O5    O     O_R   0.544100 0.337630 0.508030 -0.578770
O6    O     O_R   0.368900 0.372410 0.476240 -0.623451
O7    O     O_R   0.575000 0.485130 0.653960 -0.569981
O8    O     O_R   0.399800 0.519920 0.622170 -0.593288
C3    C     C_R   0.440204 0.309163 0.490672 0.855622
C4    C     C_R   0.483210 0.505516 0.681959 0.882202
C5    C     C_1   0.477110 0.522752 0.783791 -0.052242
C6    C     C_2   0.479161 0.555513 0.974305 0.297197
C7    C     C_2   0.541434 0.498575 0.027589 -0.254067
C8    C     C_1   0.538124 0.494753 0.130781 0.158656
C9    C     C_1   0.475392 0.539492 0.870203 0.022633
C10   C     C_1   0.529806 0.494116 0.216886 -0.055487
H1    H     H_    0.588786 0.446510 0.991860 0.189413
C11   C     C_R   0.303171 0.073774 0.586446 -0.136382
H2    H     H_    0.261813 0.225982 0.571179 0.173067
H3    H     H_    0.309760 0.891008 0.660483 0.203292
H4    H     H_    0.236509 0.051696 0.628761 0.176567
C12   C     C_R   0.403634 0.201946 0.499812 -0.050554
C13   C     C_R   0.697484 0.834960 0.474029 0.331236
C14   C     C_R   0.719268 0.937023 0.452053 -0.150848
C15   C     C_R   0.645174 0.004850 0.465635 -0.187283
C16   C     C_R   0.548504 0.973219 0.506701 0.101250
C17   C     C_R   0.532400 0.873439 0.540148 0.015375
C18   C     C_R   0.468046 0.037914 0.517347 0.120535
C19   C     C_R   0.380479 0.007629 0.572215 0.112154
C20   C     C_R   0.373561 0.913564 0.615088 -0.150248
C21   C     C_R   0.449036 0.847561 0.599785 -0.093043
C22   C     C_R   0.472970 0.132804 0.475944 -0.168600
C23   C     C_R   0.315913 0.171905 0.551884 -0.158574
C24   C     C_R   0.600237 0.801338 0.513631 -0.223166
H5    H     H_    0.534131 0.158153 0.429347 0.144526
H6    H     H_    0.668170 0.082418 0.446766 0.176026
H7    H     H_    0.793655 0.963758 0.422433 0.195123
H8    H     H_    0.443469 0.776588 0.636722 0.200347
C25   C     C_R   0.903765 0.369816 0.651807 0.167835
H9    H     H_    0.106933 0.424819 0.723534 0.230052
N1    N     N_R   0.773270 0.445590 0.549770 -0.192002
C26   C     C_R   0.209892 0.588541 0.359074 -0.068745
C27   C     C_R   0.107011 0.577783 0.308736 0.164171
C28   C     C_R   0.019978 0.532649 0.355899 0.238144
C29   C     C_R   0.037729 0.509360 0.456932 -0.124136
C30   C     C_R   0.144427 0.524274 0.503774 0.091242
C31   C     C_R   0.955417 0.470761 0.514153 -0.003474
C32   C     C_R   0.983709 0.422968 0.602373 -0.058949
C33   C     C_R   0.088838 0.443702 0.647703 -0.209001
C34   C     C_R   0.162665 0.510733 0.605409 0.303169
C35   C     C_R   0.847925 0.486664 0.493706 0.034654
C36   C     C_R   0.796714 0.382118 0.623053 0.332389
N2    N     N_R   0.227520 0.553880 0.450750 -0.132126
H10   H     H_    0.822849 0.536790 0.438190 0.216187
H11   H     H_    0.277673 0.616515 0.320882 0.210547
N3    N     N_R   0.712235 0.326917 0.669028 0.249768
O9    O     O_R   0.678199 0.232459 0.637745 -0.376454
O10   O     O_R   0.689973 0.360029 0.755371 -0.326688
N4    N     N_R   0.931111 0.304503 0.729583 0.231930
O11   O     O_R   0.890262 0.311233 0.813430 -0.260072
O12   O     O_R   0.000780 0.240672 0.718046 -0.359506
N5    N     N_R   0.917991 0.503514 0.298860 0.215581
O13   O     O_R   0.875812 0.407776 0.289531 -0.359025
O14   O     O_R   0.868741 0.571867 0.253410 -0.284108
N6    N     N_R   0.094626 0.603439 0.207127 0.249569
O15   O     O_R   0.155916 0.680622 0.178116 -0.297851
O16   O     O_R   0.035213 0.541195 0.140702 -0.252318
N7    N     N_R   0.230491 0.587576 0.669230 0.234735
O17   O     O_R   0.261004 0.676312 0.636230 -0.397222
O18   O     O_R   0.245035 0.577088 0.763949 -0.344797
N8    N     N_R   0.415111 0.627133 0.016502 0.242116
O19   O     O_R   0.337595 0.659602 0.961289 -0.255102
O20   O     O_R   0.441557 0.670037 0.105183 -0.350719
N9    N     N_R   0.774834 0.767065 0.455176 0.205302
O21   O     O_R   0.809265 0.761328 0.368278 -0.336595
O22   O     O_R   0.829327 0.732188 0.529457 -0.364588

loop_
_geom_bond_atom_site_label_1
_geom_bond_atom_site_label_2
_geom_bond_distance
_ccdc_geom_bond_type
N5    O14   1.301460 A    
N4    O12   1.301445 A    
C26   H11   1.079674 S    
C6    N8    1.445657 S    
C13   N9    1.432313 S    
C25   N4    1.439071 S    
C33   C34   1.390056 A    
C5    C9    1.188513 T    
C30   C34   1.404144 A    
Zn1   N1    2.065082 S    
C14   C15   1.386400 A    
O4    C2    1.308091 A    
O7    C4    1.306624 A    
N9    O22   1.301131 A    
C25   C32   1.402343 A    
C13   C24   1.418044 A    
C14   H7    1.083442 S    
N3    O10   1.300840 A    
C20   C21   1.386908 A    
N6    O16   1.301266 A    
C21   H8    1.080786 S    
O5    C3    1.312770 A    
C27   N6    1.438574 S    
H9    C33   1.083125 S    
N1    C36   1.366219 A    
C6    C7    1.337990 D    
C29   C31   1.418224 A    
C11   H4    1.083794 S    
C8    C10   1.187330 T    
N5    O13   1.301302 A    
O3    Zn1   1.946162 S    
C19   C20   1.391575 A    
C31   C32   1.418488 A    
C1    C24   1.468885 S    
N7    O18   1.301249 A    
N9    O21   1.300960 A    
H2    C23   1.083519 S    
C11   C23   1.392758 A    
C7    H1    1.088187 S    
C36   N3    1.428899 S    
N3    O9    1.300406 A    
O1    C1    1.303839 A    
Zn1   O7    1.933220 S    
N8    O19   1.301114 A    
C15   C16   1.415766 A    
Zn2   N2    2.052530 S    
C27   C28   1.409475 A    
Zn2   O8    1.946164 S    
C7    C8    1.412668 S    
N8    O20   1.301510 A    
O3    C2    1.302045 A    
C28   C29   1.426469 A    
O8    C4    1.304272 A    
C26   N2    1.357532 A    
C17   C21   1.409649 A    
C3    C12   1.445271 S    
C18   C22   1.392542 A    
C32   C33   1.395527 A    
C12   C22   1.383970 A    
Zn1   O5    1.937540 S    
C11   C19   1.403614 A    
C26   C27   1.394324 A    
O1    Zn1   1.968594 S    
C30   N2    1.359067 A    
C22   H5    1.078214 S    
O2    Zn2   1.937540 S    
N7    O17   1.300175 A    
O6    C3    1.304824 A    
O4    Zn2   1.933220 S    
C12   C23   1.398898 A    
C2    C10   1.402402 S    
C17   C24   1.408458 A    
C18   C19   1.421140 A    
O2    C1    1.322206 A    
C16   C18   1.414166 A    
C16   C17   1.409095 A    
C6    C9    1.417433 S    
C15   H6    1.077348 S    
C31   C35   1.399567 A    
N6    O15   1.301477 A    
H3    C20   1.083759 S    
N4    O11   1.300507 A    
C25   C36   1.398998 A    
C34   N7    1.436788 S    
N1    C35   1.348621 A    
Zn2   O6    1.968592 S    
C29   C30   1.417933 A    
C35   H10   1.077221 S    
C13   C14   1.391049 A    
C4    C5    1.404333 S    
C28   N5    1.434766 S    
