data_mof_unit_12735.cif
_audit_creation_date              2013-03-05T15:43:54-0500
_audit_creation_method            fapswitch 2.2
_symmetry_space_group_name_H-M    P1
_symmetry_Int_Tables_number       1
_space_group_crystal_system       triclinic
_cell_length_a                    8.26047
_cell_length_b                    15.055648
_cell_length_c                    18.743602
_cell_angle_alpha                 99.787786
_cell_angle_beta                  91.894246
_cell_angle_gamma                 99.249152
_cell_volume                      2262.91098092

loop_
_atom_site_label
_atom_site_type_symbol
_atom_site_description
_atom_site_fract_x
_atom_site_fract_y
_atom_site_fract_z
_atom_type_partial_charge
P1    P     P_3+3 0.038110 0.412300 0.335300 0.481103
O1    O     O_2   0.871030 0.438240 0.324420 -0.365202
O2    O     O_3   0.120590 0.445310 0.413740 -0.411201
O3    O     O_3   0.663040 0.605930 0.370050 -0.398297
O4    O     O_2   0.780270 0.550296 0.244587 -0.413109
O5    O     O_3   0.993235 0.292592 0.317494 -0.544036
O6    O     O_3   0.696627 0.712456 0.261518 -0.539632
H1    H     H_    0.774308 0.766708 0.369137 0.148469
C1    C     C_3   0.725031 0.872840 0.312308 -0.831136
H2    H     H_    0.858505 0.894941 0.309351 0.263300
H3    H     H_    0.663752 0.879375 0.260372 0.299285
P2    P     P_3+3 0.679950 0.711710 0.558590 0.477168
P3    P     P_3+3 0.134259 0.773816 0.411798 0.484982
O7    O     O_2   0.855660 0.723510 0.537160 -0.349249
O8    O     O_3   0.086340 0.654970 0.406630 -0.394284
O9    O     O_2   0.015829 0.815372 0.464365 -0.369988
O10   O     O_3   0.738089 0.735069 0.651873 -0.566763
O11   O     O_3   0.075038 0.809513 0.331554 -0.558990
C2    C     C_3   0.137645 0.763964 0.269264 0.763543
H4    H     H_    0.113715 0.688642 0.267670 -0.011178
C3    C     C_3   0.051653 0.787294 0.201837 -0.448059
H5    H     H_    0.918769 0.780224 0.207785 0.218639
H6    H     H_    0.091557 0.860915 0.199517 0.225184
C4    C     C_3   0.198271 0.747922 0.622299 0.435093
H7    H     H_    0.322088 0.755076 0.601921 -0.013288
H8    H     H_    0.114216 0.708375 0.577372 0.165217
C5    C     C_3   0.153992 0.842936 0.642168 -0.861507
H9    H     H_    0.246281 0.886855 0.682999 0.243694
H10   H     H_    0.151043 0.874864 0.593349 0.253144
H11   H     H_    0.031320 0.838708 0.664953 0.281181
Ba1   Ba    Ba6+2 0.854120 0.540280 0.465540 1.587261
C6    C     C_3   0.948894 0.259817 0.380845 0.396138
H12   H     H_    0.838474 0.286155 0.400749 0.097607
H13   H     H_    0.049578 0.280707 0.423804 0.136690
C7    C     C_3   0.912878 0.155803 0.363565 -0.885145
H14   H     H_    0.804109 0.132509 0.324536 0.265561
H15   H     H_    0.888000 0.127475 0.413641 0.231096
H16   H     H_    0.020574 0.129179 0.339581 0.270742
C8    C     C_3   0.606524 0.747623 0.695624 0.831344
H17   H     H_    0.491598 0.706902 0.669066 0.030628
C9    C     C_3   0.590474 0.849368 0.712655 -1.043956
H18   H     H_    0.709003 0.892010 0.736398 0.293932
H19   H     H_    0.494309 0.858941 0.752138 0.262540
H20   H     H_    0.554815 0.873804 0.662627 0.213856
P4    P     P_3+3 0.151600 0.587780 0.664700 0.502829
O12   O     O_2   0.318670 0.561790 0.675630 -0.354090
O13   O     O_3   0.069120 0.554770 0.586270 -0.405564
O14   O     O_3   0.526680 0.394150 0.629950 -0.387829
O15   O     O_3   0.196082 0.707958 0.684877 -0.573405
P5    P     P_3+3 0.061016 0.228081 0.595335 0.471509
O16   O     O_3   0.607620 0.388570 0.462320 -0.374603
O17   O     O_3   0.103380 0.345110 0.593380 -0.377320
O18   O     O_2   0.167709 0.183904 0.538190 -0.297055
O19   O     O_3   0.141905 0.205623 0.676826 -0.569881
Ba2   Ba    Ba6+2 0.335710 0.459790 0.534460 1.618367
P6    P     P_3+3 0.643182 0.600355 0.277274 0.451042
C10   C     C_3   0.686140 0.774584 0.325830 0.511862
H21   H     H_    0.560442 0.763010 0.344909 0.077802
H22   H     H_    0.682922 0.919908 0.357395 0.227100
O20   O     O_3   0.582100 0.611510 0.537680 -0.371804
C11   C     C_3   0.419670 0.281183 0.307798 0.204265
H23   H     H_    0.312547 0.301932 0.336284 0.106555
H24   H     H_    0.500646 0.342961 0.296367 0.098314
C12   C     C_3   0.356401 0.216914 0.236750 -0.105311
H25   H     H_    0.271217 0.157184 0.249246 0.149147
H26   H     H_    0.460912 0.190969 0.209048 0.149005
P7    P     P_3+3 0.515713 0.273899 0.440871 0.461934
O21   O     O_2   0.334040 0.276520 0.462890 -0.364261
O22   O     O_3   0.511579 0.233355 0.347458 -0.588853
C13   C     C_3   0.046258 0.230500 0.735549 0.700886
H27   H     H_    0.974910 0.284977 0.726407 -0.049011
C14   C     C_3   0.927329 0.145667 0.748146 -0.254920
H28   H     H_    0.827213 0.127215 0.705103 0.061596
H29   H     H_    0.993737 0.086521 0.744975 0.166934
P8    P     P_3+3 0.546850 0.399925 0.723107 0.537182
C15   C     C_3   0.535584 0.225929 0.687091 0.518995
H30   H     H_    0.671209 0.240531 0.684988 -0.028542
O23   O     O_2   0.415373 0.454452 0.755679 -0.311940
O24   O     O_3   0.484128 0.289705 0.741587 -0.474561
H31   H     H_    0.475575 0.227543 0.633503 0.127218
H32   H     H_    0.535346 0.079578 0.663094 0.190783
C16   C     C_3   0.485704 0.129626 0.703257 -0.774631
H33   H     H_    0.350263 0.109954 0.700014 0.286046
H34   H     H_    0.533089 0.125411 0.758346 0.284752
C17   C     C_R   0.992015 0.458384 0.047822 0.025087
C18   C     C_R   0.889503 0.415112 0.094798 0.077132
C19   C     C_R   0.726636 0.376486 0.071044 -0.144623
C20   C     C_R   0.665329 0.381158 0.001615 -0.098059
C21   C     C_R   0.766872 0.423039 0.953960 0.101558
C22   C     C_R   0.930815 0.461961 0.976949 0.024660
C23   C     C_R   0.707577 0.424348 0.883271 -0.115491
C24   C     C_R   0.811039 0.461351 0.833348 -0.032597
C25   C     C_R   0.974357 0.504010 0.856994 0.052408
C26   C     C_R   0.033382 0.503972 0.929136 0.034359
C27   C     C_R   0.757080 0.455217 0.760073 0.209209
C28   C     C_R   0.865015 0.491233 0.711736 -0.380729
C29   C     C_R   0.024616 0.537093 0.734287 0.264686
C30   C     C_R   0.079878 0.545065 0.808524 -0.029050
C31   C     C_R   0.155552 0.497238 0.071408 -0.017603
C32   C     C_R   0.214595 0.497202 0.143549 0.012229
C33   C     C_R   0.108731 0.456647 0.192092 0.008102
C34   C     C_R   0.949708 0.411798 0.165073 -0.038975
H35   H     H_    0.646473 0.342884 0.106429 0.180542
H36   H     H_    0.538807 0.350952 0.984873 0.180188
H37   H     H_    0.822299 0.485638 0.655703 0.171733
H38   H     H_    0.581209 0.393815 0.867360 0.196207
H39   H     H_    0.869418 0.374862 0.198320 0.162124
C35   C     C_R   0.238156 0.590880 0.835823 -0.099003
C36   C     C_R   0.298819 0.587194 0.906045 0.094134
C37   C     C_R   0.196750 0.543174 0.952813 0.032897
C38   C     C_R   0.258125 0.539285 0.023617 0.019061
C39   C     C_R   0.461669 0.625897 0.929983 -0.145466
C40   C     C_R   0.522996 0.620996 0.999329 -0.202599
C41   C     C_R   0.421814 0.578602 0.046769 0.109578
C42   C     C_R   0.378823 0.538639 0.166933 0.033685
C43   C     C_R   0.481521 0.576778 0.117280 -0.152394
C44   C     C_R   0.434438 0.542561 0.239755 0.257222
C45   C     C_R   0.326751 0.506077 0.287937 -0.511819
C46   C     C_R   0.165497 0.462614 0.265824 0.261885
H40   H     H_    0.317619 0.628142 0.802544 0.176312
H41   H     H_    0.542417 0.659538 0.894939 0.205339
H42   H     H_    0.649439 0.651304 0.016133 0.141298
H43   H     H_    0.607998 0.607179 0.133162 0.165361
H44   H     H_    0.370190 0.510387 0.343713 0.178768
C47   C     C_R   0.754889 0.239014 0.536307 -0.511436
C48   C     C_R   0.846465 0.181309 0.564352 0.185055
C49   C     C_R   0.784342 0.087519 0.556489 -0.265042
C50   C     C_R   0.634517 0.049423 0.515217 0.099351
C51   C     C_R   0.560482 0.108198 0.478323 -0.184604
C52   C     C_R   0.613451 0.202133 0.492241 0.266321
C53   C     C_R   0.395442 0.916134 0.476165 0.246606
C54   C     C_R   0.342006 0.821490 0.453561 0.146483
C55   C     C_R   0.585708 0.791948 0.513869 0.252275
C56   C     C_R   0.652500 0.884766 0.525348 -0.308064
C57   C     C_R   0.560641 0.949204 0.505288 -0.070522
C58   C     C_R   0.437702 0.760203 0.473010 -0.558695
H45   H     H_    0.857349 0.046251 0.581007 0.156349
H46   H     H_    0.773190 0.904835 0.552393 0.179608
H47   H     H_    0.465478 0.082029 0.435809 0.184092
H48   H     H_    0.390307 0.687598 0.461504 0.187236
H49   H     H_    0.802009 0.311431 0.542572 0.168468
N1    N     N_R   0.637512 0.713443 0.762671 0.208636
O25   O     O_R   0.724261 0.766709 0.817743 -0.402074
O26   O     O_R   0.625024 0.625160 0.758478 -0.444941
N2    N     N_R   0.271819 0.262937 0.188364 0.241304
O27   O     O_R   0.116773 0.234521 0.169420 -0.349855
O28   O     O_R   0.356326 0.321710 0.154729 -0.449162
C59   C     C_3   0.077480 0.726230 0.129728 -0.332665
C60   C     C_3   0.188239 0.778026 0.081226 -0.706587
H50   H     H_    0.134186 0.836900 0.068397 0.253951
H51   H     H_    0.312699 0.803486 0.108129 0.293606
H52   H     H_    0.200004 0.731793 0.029553 0.225531
H53   H     H_    0.130143 0.666214 0.139933 0.208305
H54   H     H_    0.956506 0.699600 0.099368 0.196738
N3    N     N_R   0.157215 0.265095 0.800258 0.273020
O29   O     O_R   0.171162 0.349897 0.832171 -0.395409
O30   O     O_R   0.242665 0.211372 0.826701 -0.331171
N4    N     N_R   0.856834 0.161999 0.818692 0.273270
O31   O     O_R   0.874955 0.109355 0.865656 -0.298541
O32   O     O_R   0.777288 0.229741 0.835411 -0.393467
N5    N     N_R   0.312500 0.797189 0.268176 0.186578
O33   O     O_R   0.367593 0.883831 0.290608 -0.423776
O34   O     O_R   0.397604 0.749709 0.224066 -0.480028
N6    N     N_R   0.274992 0.975410 0.482809 0.233129
O35   O     O_R   0.185207 0.983324 0.426589 -0.346936
O36   O     O_R   0.255573 0.022112 0.546038 -0.413213

loop_
_geom_bond_atom_site_label_1
_geom_bond_atom_site_label_2
_geom_bond_distance
_ccdc_geom_bond_type
C20   H36   1.083791 S    
O14   Ba2   2.753996 S    
O5    C6    1.399118 S    
C28   H37   1.081903 S    
C9    H18   1.113941 S    
C48   C49   1.403674 A    
C43   H43   1.081212 S    
C12   N2    1.455404 S    
N3    O30   1.301835 A    
P6    C44   1.858615 S    
C35   H40   1.078108 S    
O4    P6    1.545629 D    
C27   C28   1.405289 A    
O14   P8    1.734545 S    
C4    C5    1.521477 S    
O7    Ba1   2.853220 S    
C58   H48   1.082311 S    
C50   C51   1.410423 A    
N5    O33   1.302117 A    
P8    C27   1.857010 S    
C8    C9    1.538784 S    
P4    O12   1.510581 D    
P5    O19   1.753445 S    
P3    O11   1.760983 S    
C3    H5    1.096915 S    
N6    O35   1.301577 A    
C2    C3    1.548222 S    
C4    H8    1.097130 S    
O11   C2    1.408060 S    
C53   C57   1.431079 A    
C60   H51   1.109737 S    
N2    O27   1.300608 A    
C5    H10   1.104881 S    
C42   C43   1.411677 A    
C29   C30   1.429198 A    
P1    Ba1   3.401362 S    
C14   N4    1.460959 S    
C35   C36   1.405984 A    
P1    O1    1.510196 D    
C2    N5    1.452603 S    
C11   H24   1.111595 S    
O10   C8    1.400557 S    
C37   C38   1.418876 A    
C32   C33   1.426623 A    
N2    O28   1.299218 A    
C45   C46   1.401923 A    
O2    Ba2   2.786953 S    
C47   C52   1.388266 A    
C40   H42   1.083765 S    
C2    H4    1.114453 S    
C47   H49   1.082150 S    
C42   C44   1.414231 A    
C51   H47   1.076400 S    
O12   Ba2   2.844671 S    
C55   C58   1.391225 A    
P5    O17   1.747240 S    
C15   O24   1.404425 S    
C13   H27   1.116206 S    
P5    C48   1.834634 S    
C21   C23   1.401761 A    
C1    H2    1.105351 S    
O16   Ba2   2.916350 S    
O17   Ba2   2.758103 S    
C47   C48   1.394122 A    
Ba1   O13   2.786482 S    
Ba2   O20   2.795418 S    
O3    P6    1.727721 S    
C5    H11   1.109232 S    
N4    O32   1.300210 A    
C9    H19   1.113052 S    
C23   H38   1.080947 S    
C32   C42   1.420331 A    
C59   H54   1.113191 S    
O6    P6    1.751907 S    
C39   C40   1.397378 A    
N5    O34   1.299158 A    
C22   C26   1.411279 A    
P4    O13   1.564865 S    
P5    O18   1.541116 D    
C13   N3    1.463124 S    
C33   C46   1.428047 A    
C33   C34   1.411599 A    
C7    H16   1.110853 S    
C15   H30   1.109826 S    
C14   H29   1.112909 S    
C50   C57   1.511540 S    
C15   C16   1.526239 S    
C8    H17   1.096730 S    
Ba2   O21   2.853287 S    
C18   C19   1.402599 A    
C45   H44   1.081929 S    
C17   C18   1.408466 A    
C26   C37   1.407744 A    
C24   C27   1.413047 A    
H32   C16   1.108821 S    
P7    O21   1.574312 D    
O1    Ba1   2.843938 S    
P1    O2    1.565029 S    
C7    H14   1.110609 S    
C6    H13   1.106577 S    
Ba1   O20   2.917180 S    
P2    O10   1.758572 S    
C11   C12   1.528448 S    
C3    C59   1.541803 S    
P1    C46   1.883255 S    
C17   C31   1.407516 A    
H1    C10   1.106709 S    
C31   C32   1.422320 A    
O19   C13   1.410124 S    
C8    N1    1.466488 S    
P4    O15   1.759626 S    
C54   C58   1.392457 A    
C31   C38   1.411249 A    
C28   C29   1.401731 A    
C34   H39   1.078908 S    
C25   C26   1.422300 A    
O16   P7    1.743884 S    
C4    H7    1.099078 S    
O2    Ba1   2.917749 S    
C1    H3    1.108843 S    
C19   H35   1.081540 S    
C60   H52   1.109407 S    
P2    O7    1.509807 D    
C16   H34   1.107682 S    
P2    C55   1.836165 S    
C3    H6    1.113116 S    
P2    Ba1   3.406223 S    
N4    O31   1.300809 A    
C9    H20   1.111429 S    
N1    O26   1.305129 A    
C36   C39   1.403462 A    
P7    C52   1.824583 S    
C59   H53   1.105397 S    
C49   C50   1.420134 A    
C18   C34   1.404226 A    
C23   C24   1.411889 A    
O13   Ba2   2.918720 S    
C40   C41   1.402583 A    
C11   O22   1.402839 S    
C4    O15   1.405692 S    
P1    O5    1.752022 S    
C7    H15   1.107158 S    
C30   C35   1.411697 A    
C6    C7    1.522220 S    
C15   H31   1.111060 S    
Ba1   O16   2.795855 S    
C14   H28   1.103557 S    
C56   H46   1.076973 S    
C41   C43   1.401542 A    
C17   C22   1.418388 A    
O8    Ba1   2.757538 S    
C56   C57   1.414260 A    
Ba1   Ba2   4.550305 S    
C12   H25   1.112555 S    
P3    O8    1.754569 S    
C51   C52   1.388426 A    
C39   H41   1.079982 S    
P4    C29   1.885576 S    
C60   H50   1.111514 S    
C6    H12   1.103113 S    
C10   H21   1.106318 S    
C55   C56   1.394849 A    
P8    O24   1.753016 S    
C53   N6    1.434487 S    
N6    O36   1.300065 A    
C24   C25   1.419197 A    
P3    C54   1.843122 S    
C38   C41   1.408402 A    
C1    C10   1.528360 S    
C59   C60   1.529160 S    
C11   H23   1.108639 S    
P8    O23   1.544744 D    
O3    Ba1   2.754636 S    
P2    O20   1.571242 S    
C20   C21   1.403574 A    
P4    Ba2   3.401996 S    
C19   C20   1.397832 A    
C16   H33   1.107256 S    
P3    O9    1.539549 D    
C36   C37   1.409014 A    
N3    O29   1.299873 A    
N1    O25   1.306552 A    
C13   C14   1.538403 S    
C49   H45   1.077101 S    
P7    O22   1.750824 S    
C21   C22   1.408369 A    
C44   C45   1.404746 A    
C1    H22   1.110144 S    
C25   C30   1.427342 A    
O6    C10   1.408949 S    
C53   C54   1.408892 A    
C12   H26   1.112011 S    
C5    H9    1.109715 S    
