data_mof_unit_66860.cif
_audit_creation_date              2013-03-05T15:57:21-0500
_audit_creation_method            fapswitch 2.2
_symmetry_space_group_name_H-M    P1
_symmetry_Int_Tables_number       1
_space_group_crystal_system       triclinic
_cell_length_a                    17.105927
_cell_length_b                    18.373413
_cell_length_c                    8.377817
_cell_angle_alpha                 89.99999
_cell_angle_beta                  101.546553
_cell_angle_gamma                 90.053601
_cell_volume                      2579.81099506

loop_
_atom_site_label
_atom_site_type_symbol
_atom_site_description
_atom_site_fract_x
_atom_site_fract_y
_atom_site_fract_z
_atom_type_partial_charge
P1    P     P_3+3 0.834140 0.419320 0.003900 0.973269
P2    P     P_3+3 0.834140 0.580680 0.503900 0.987808
P3    P     P_3+3 0.334140 0.919320 0.003900 0.975603
P4    P     P_3+3 0.334140 0.080680 0.503900 1.008072
O1    O     O_2   0.841960 0.394640 0.833410 -0.470985
O2    O     O_2   0.841960 0.605360 0.333410 -0.487053
O3    O     O_2   0.341960 0.894640 0.833410 -0.482335
O4    O     O_2   0.341960 0.105360 0.333410 -0.487544
O5    O     O_3   0.907950 0.463080 0.102990 -0.498958
O6    O     O_3   0.907950 0.536920 0.602990 -0.491224
O7    O     O_3   0.407950 0.963080 0.102990 -0.492540
O8    O     O_3   0.407950 0.036920 0.602990 -0.501968
O9    O     O_3   0.972780 0.329600 0.629720 -0.482303
O10   O     O_3   0.972780 0.670400 0.129720 -0.482204
O11   O     O_3   0.472780 0.829600 0.629720 -0.484941
O12   O     O_3   0.472780 0.170400 0.129720 -0.480747
O13   O     O_2   0.838696 0.273604 0.690740 -0.494170
O14   O     O_2   0.845416 0.734889 0.201322 -0.498378
O15   O     O_2   0.344163 0.766171 0.695861 -0.500151
O16   O     O_2   0.344908 0.234512 0.200099 -0.501402
O17   O     O_3   0.749865 0.475265 0.966822 -0.615281
O18   O     O_3   0.751130 0.522879 0.470280 -0.604715
O19   O     O_3   0.251079 0.976860 0.969110 -0.613998
O20   O     O_3   0.251466 0.022411 0.468512 -0.560628
O21   O     O_3   0.943358 0.179601 0.640971 -0.621673
O22   O     O_3   0.949438 0.823935 0.115561 -0.627040
O23   O     O_3   0.449970 0.676647 0.620592 -0.601359
O24   O     O_3   0.448870 0.324059 0.116879 -0.624438
H1    H     H_    0.060154 0.214201 0.665052 0.051577
H2    H     H_    0.061828 0.797626 0.242356 0.039608
H3    H     H_    0.561896 0.690424 0.761262 0.025270
H4    H     H_    0.561349 0.295580 0.239736 0.035794
C1    C     C_3   0.050223 0.099273 0.619145 0.401705
C2    C     C_3   0.069446 0.887083 0.077492 0.415339
C3    C     C_3   0.568658 0.617104 0.562283 0.447385
C4    C     C_3   0.568726 0.388460 0.084167 0.409551
H5    H     H_    0.632773 0.612554 0.619225 -0.101543
H6    H     H_    0.634433 0.381538 0.107912 -0.026620
H7    H     H_    0.053518 0.084028 0.748234 0.037214
H8    H     H_    0.135293 0.881147 0.106903 -0.011599
P5    P     P_3+3 0.165830 0.418670 0.685610 0.967465
P6    P     P_3+3 0.165830 0.581330 0.185610 0.974842
P7    P     P_3+3 0.665830 0.918670 0.685610 0.966328
P8    P     P_3+3 0.665830 0.081330 0.185610 0.978156
P9    P     P_3+3 0.098443 0.260973 0.110472 0.957856
P10   P     P_3+3 0.097571 0.739556 0.610768 0.954185
P11   P     P_3+3 0.597985 0.760688 0.111291 0.973029
P12   P     P_3+3 0.597428 0.239643 0.610981 0.951589
O25   O     O_2   0.157990 0.394030 0.856030 -0.471717
O26   O     O_2   0.157990 0.605970 0.356030 -0.478824
O27   O     O_2   0.657990 0.894030 0.856030 -0.473330
O28   O     O_2   0.657990 0.105970 0.356030 -0.480040
O29   O     O_3   0.027110 0.329490 0.059550 -0.485224
O30   O     O_3   0.027110 0.670510 0.559550 -0.489797
O31   O     O_3   0.527110 0.829490 0.059550 -0.494768
O32   O     O_3   0.527110 0.170510 0.559550 -0.491011
O33   O     O_2   0.157312 0.268277 0.993421 -0.494934
O34   O     O_2   0.154482 0.734669 0.489080 -0.499615
O35   O     O_2   0.655335 0.766531 0.990795 -0.511722
O36   O     O_2   0.654143 0.235269 0.488805 -0.498964
O37   O     O_3   0.249760 0.475241 0.722658 -0.637145
O38   O     O_3   0.249126 0.524075 0.220589 -0.629614
O39   O     O_3   0.749373 0.975767 0.722714 -0.637699
O40   O     O_3   0.749354 0.024355 0.219989 -0.620440
O41   O     O_3   0.051031 0.177535 0.058021 -0.587224
O42   O     O_3   0.046310 0.821740 0.565485 -0.595685
O43   O     O_3   0.549526 0.676915 0.065828 -0.557191
O44   O     O_3   0.545653 0.321629 0.567035 -0.597979
C5    C     C_3   0.970599 0.184084 0.070741 0.337123
C6    C     C_3   0.969916 0.812864 0.601685 0.341621
C7    C     C_3   0.469797 0.684469 0.083414 0.393799
C8    C     C_3   0.469063 0.311561 0.601438 0.327601
H9    H     H_    0.936298 0.211539 0.960661 0.090317
H10   H     H_    0.934184 0.773691 0.515429 0.057744
H11   H     H_    0.435763 0.716115 0.979322 0.044667
H12   H     H_    0.434098 0.272707 0.513173 0.060563
H13   H     H_    0.963529 0.214829 0.181155 -0.045079
H14   H     H_    0.973817 0.794029 0.729239 0.013963
H15   H     H_    0.465851 0.711856 0.199911 -0.001469
H16   H     H_    0.472674 0.291894 0.728272 0.003465
C9    C     C_3   0.936140 0.108870 0.083773 -0.324035
C10   C     C_3   0.925627 0.884639 0.581033 -0.293484
C11   C     C_3   0.431285 0.609778 0.083954 -0.255502
C12   C     C_3   0.423866 0.382756 0.582523 -0.277666
H17   H     H_    0.365715 0.615628 0.068177 0.016994
H18   H     H_    0.360549 0.373438 0.587827 0.033759
H19   H     H_    0.871021 0.112325 0.079498 0.065654
H20   H     H_    0.863577 0.877044 0.597784 0.051639
H21   H     H_    0.948134 0.073460 0.984213 0.132990
H22   H     H_    0.924884 0.905636 0.457242 0.114362
H23   H     H_    0.446006 0.575504 0.985078 0.128375
H24   H     H_    0.427652 0.407134 0.463893 0.140165
C13   C     C_3   0.232568 0.458982 0.293933 0.292727
C14   C     C_3   0.231051 0.543192 0.780354 0.266955
C15   C     C_3   0.733724 0.959830 0.296433 0.306428
C16   C     C_3   0.730271 0.043555 0.780666 0.265275
H25   H     H_    0.252085 0.464983 0.427149 0.055007
H26   H     H_    0.239526 0.540390 0.914415 0.035634
H27   H     H_    0.755476 0.966430 0.428999 0.064179
H28   H     H_    0.737312 0.040172 0.914352 0.034841
H29   H     H_    0.168665 0.443222 0.264455 0.019632
H30   H     H_    0.169563 0.561698 0.727571 0.042211
H31   H     H_    0.669660 0.944697 0.271842 0.009674
H32   H     H_    0.669159 0.062315 0.725566 0.043431
C17   C     C_3   0.280763 0.398541 0.236192 -0.350166
C18   C     C_3   0.288237 0.599044 0.734951 -0.322526
C19   C     C_3   0.780052 0.898561 0.236285 -0.356088
C20   C     C_3   0.788495 0.099531 0.739384 -0.316781
H33   H     H_    0.340851 0.418391 0.226394 0.150530
H34   H     H_    0.349719 0.577089 0.756179 0.158915
H35   H     H_    0.838754 0.918254 0.216854 0.155038
H36   H     H_    0.849538 0.076629 0.759320 0.159513
H37   H     H_    0.286603 0.351841 0.321148 0.064671
H38   H     H_    0.287259 0.649316 0.807303 0.068985
H39   H     H_    0.789194 0.853317 0.325292 0.064085
H40   H     H_    0.788634 0.148918 0.815235 0.060583
H41   H     H_    0.250554 0.379551 0.114902 0.144925
H42   H     H_    0.270377 0.612425 0.604498 0.140909
H43   H     H_    0.746550 0.877417 0.119448 0.140879
H44   H     H_    0.770969 0.114862 0.609826 0.145304
Ba1   Ba    Ba6+2 0.000000 0.447380 0.844850 1.641949
Ba2   Ba    Ba6+2 0.000000 0.552620 0.344850 1.644367
Ba3   Ba    Ba6+2 0.500000 0.947380 0.844850 1.646539
Ba4   Ba    Ba6+2 0.500000 0.052620 0.344850 1.648968
C21   C     C_3   0.769481 0.544979 0.920987 0.275985
C22   C     C_3   0.768961 0.456940 0.402113 0.316027
C23   C     C_3   0.269620 0.043313 0.904075 0.293387
C24   C     C_3   0.270605 0.955852 0.404861 0.330261
H45   H     H_    0.772139 0.544288 0.790287 0.014158
H46   H     H_    0.755140 0.462501 0.268162 0.047316
H47   H     H_    0.257956 0.038096 0.770163 0.088867
H48   H     H_    0.259868 0.960668 0.270934 0.044967
H49   H     H_    0.826524 0.565663 0.994441 0.046402
H50   H     H_    0.831974 0.439808 0.443161 0.013969
H51   H     H_    0.332253 0.060772 0.949223 0.012264
H52   H     H_    0.333059 0.938501 0.452262 0.004919
C25   C     C_3   0.704010 0.596434 0.947439 -0.278728
C26   C     C_3   0.716233 0.397855 0.451417 -0.337001
C27   C     C_3   0.215443 0.101805 0.950706 -0.273715
C28   C     C_3   0.215938 0.897339 0.450028 -0.311442
H53   H     H_    0.644557 0.573764 0.893271 0.127540
H54   H     H_    0.655335 0.418497 0.450268 0.130106
H55   H     H_    0.156656 0.078595 0.959817 0.190573
H56   H     H_    0.154741 0.918440 0.443772 0.150581
H57   H     H_    0.711382 0.649844 0.891292 0.054309
H58   H     H_    0.712693 0.350801 0.367803 0.048490
H59   H     H_    0.206639 0.146203 0.859289 0.107408
H60   H     H_    0.213219 0.850278 0.366673 0.039398
H61   H     H_    0.706843 0.603546 0.079508 0.157268
H62   H     H_    0.741322 0.379416 0.576209 0.145946
H63   H     H_    0.242627 0.125177 0.070439 0.114340
H64   H     H_    0.239021 0.878526 0.575625 0.131795
O45   O     O_3   0.092100 0.536880 0.086720 -0.487402
O46   O     O_3   0.092100 0.463120 0.586720 -0.492864
O47   O     O_3   0.592100 0.036880 0.086720 -0.488010
O48   O     O_3   0.592100 0.963120 0.586720 -0.492107
P13   P     P_3+3 0.901743 0.739223 0.078380 0.950902
P14   P     P_3+3 0.899233 0.262976 0.578579 0.948408
P15   P     P_3+3 0.401631 0.239232 0.077963 0.951752
P16   P     P_3+3 0.402230 0.760704 0.576606 0.958508
C29   C     C_3   0.016873 0.176123 0.590889 0.354446
C30   C     C_3   0.031721 0.815550 0.118974 0.234942
C31   C     C_3   0.533188 0.684003 0.631436 0.280880
C32   C     C_3   0.530951 0.315953 0.118589 0.239788
H65   H     H_    0.010759 0.189687 0.459501 -0.064995
H66   H     H_    0.043452 0.775002 0.028452 0.007032
H67   H     H_    0.549998 0.731361 0.563876 0.018678
H68   H     H_    0.542048 0.277377 0.023573 0.003367
H69   H     H_    0.452418 0.581832 0.201470 0.216334
H70   H     H_    0.448755 0.420863 0.681380 0.213793
H71   H     H_    0.964771 0.084651 0.201264 0.165494
H72   H     H_    0.954709 0.925027 0.671370 0.197451
C33   C     C_R   0.138273 0.676705 0.920974 -0.302610
C34   C     C_R   0.135657 0.321248 0.424061 -0.293131
C35   C     C_R   0.637983 0.176832 0.921234 -0.301130
C36   C     C_R   0.637634 0.822621 0.422610 -0.304096
C37   C     C_R   0.863441 0.322296 0.264829 -0.289361
C38   C     C_R   0.860693 0.675692 0.769083 -0.308882
C39   C     C_R   0.362926 0.822820 0.265604 -0.301945
C40   C     C_R   0.361744 0.176673 0.767095 -0.323108
C41   C     C_R   0.792171 0.211720 0.298628 -0.070977
C42   C     C_R   0.790224 0.786817 0.802260 -0.077901
C43   C     C_R   0.292027 0.711982 0.298857 -0.073297
C44   C     C_R   0.289786 0.286598 0.801822 -0.081324
C45   C     C_R   0.848460 0.264719 0.362336 0.000309
C46   C     C_R   0.845964 0.733473 0.866289 0.008486
C47   C     C_R   0.348146 0.765120 0.362898 0.012256
C48   C     C_R   0.346252 0.233798 0.865266 0.008011
C49   C     C_R   0.817218 0.332817 0.109128 0.048037
C50   C     C_R   0.816180 0.666395 0.611335 0.049577
C51   C     C_R   0.316807 0.833182 0.109745 0.045385
C52   C     C_R   0.315860 0.166314 0.610923 0.065499
C53   C     C_R   0.756394 0.280904 0.045402 -0.078861
C54   C     C_R   0.756198 0.718885 0.546859 -0.081733
C55   C     C_R   0.256216 0.781109 0.045691 -0.080786
C56   C     C_R   0.254728 0.217903 0.547511 -0.017668
C57   C     C_R   0.244174 0.719074 0.141518 -0.077441
C58   C     C_R   0.242212 0.279629 0.643979 -0.073902
C59   C     C_R   0.744351 0.218848 0.141237 -0.078445
C60   C     C_R   0.743298 0.780315 0.643723 -0.078427
C61   C     C_R   0.183618 0.666955 0.077828 0.050598
C62   C     C_R   0.181966 0.331884 0.579858 0.051144
C63   C     C_R   0.683492 0.166970 0.077890 0.048633
C64   C     C_R   0.683201 0.832661 0.579191 0.044663
C65   C     C_R   0.152347 0.734948 0.824165 0.013354
C66   C     C_R   0.150800 0.263837 0.326027 -0.014938
C67   C     C_R   0.652172 0.234996 0.824337 0.010960
C68   C     C_R   0.652907 0.765381 0.324627 0.043070
C69   C     C_R   0.208235 0.788296 0.888368 -0.043554
C70   C     C_R   0.207259 0.210947 0.389549 0.000836
C71   C     C_R   0.708067 0.288329 0.888495 -0.047223
C72   C     C_R   0.709763 0.712785 0.387906 0.006420
H73   H     H_    0.286384 0.665745 0.373984 0.109579
H74   H     H_    0.284075 0.332631 0.877889 0.109128
H75   H     H_    0.785955 0.165898 0.374576 0.119160
H76   H     H_    0.784516 0.832871 0.878438 0.107815
H77   H     H_    0.713264 0.334876 0.813578 0.112303
H78   H     H_    0.716504 0.667375 0.311324 0.118882
H79   H     H_    0.213530 0.834783 0.813430 0.111378
H80   H     H_    0.213710 0.165223 0.313137 0.113532
H81   H     H_    0.092969 0.637202 0.871283 0.063652
H82   H     H_    0.089895 0.360318 0.374774 0.066961
H83   H     H_    0.592585 0.137394 0.871637 0.063259
H84   H     H_    0.591291 0.861243 0.373871 0.065050
H85   H     H_    0.909047 0.361530 0.314481 0.064106
H86   H     H_    0.905492 0.635929 0.819497 0.064662
H87   H     H_    0.408758 0.861897 0.314971 0.065283
H88   H     H_    0.408194 0.138131 0.815750 0.066387
F1    F     F_    0.564689 0.625979 0.397747 -0.715791
F2    F     F_    0.544599 0.406631 0.922394 -0.735670
F3    F     F_    0.125956 0.097675 0.585223 -0.764419
F4    F     F_    0.048019 0.900625 0.912927 -0.740185
C73   C     C_2   0.000013 0.043701 0.515149 0.472546
H89   H     H_    0.028380 0.994580 0.482920 0.049397
O49   O     O_2   0.927791 0.051008 0.472778 -0.628675
C74   C     C_2   0.046105 0.951128 0.167833 0.502756
H90   H     H_    0.988056 0.953215 0.201373 -0.005564
O50   O     O_2   0.091138 0.003129 0.197824 -0.579942
C75   C     C_2   0.527144 0.547979 0.589326 0.554462
H91   H     H_    0.558118 0.506475 0.669982 0.007677
O51   O     O_2   0.458151 0.538174 0.519820 -0.590414
C76   C     C_2   0.549036 0.449909 0.186624 0.534361
H92   H     H_    0.502105 0.444891 0.255858 -0.002592
O52   O     O_2   0.585435 0.507220 0.190210 -0.524454

loop_
_geom_bond_atom_site_label_1
_geom_bond_atom_site_label_2
_geom_bond_distance
_ccdc_geom_bond_type
C43   H73   1.072998 S    
P10   C65   1.846865 S    
C59   C63   1.432105 A    
P14   C45   1.845956 S    
P1    O17   1.747804 S    
P9    C66   1.848924 S    
O10   Ba2   2.795368 S    
C13   H25   1.104527 S    
C6    H14   1.112502 S    
O27   Ba3   2.859561 S    
C5    H13   1.110996 S    
C20   H44   1.103285 S    
P3    O19   1.748833 S    
C75   H91   1.084555 S    
C34   H82   1.081775 S    
P5    O37   1.748357 S    
C8    H12   1.111900 S    
O6    Ba1   2.831819 S    
C2    C74   1.496256 S    
C28   H60   1.106526 S    
C7    H15   1.112092 S    
P7    O39   1.748947 S    
Ba3   Ba4   4.613657 S    
Ba3   O47   2.830083 S    
C26   H62   1.101206 S    
P9    O33   1.545564 D    
C43   C57   1.411677 A    
O11   Ba3   2.794694 S    
P11   C68   1.847190 S    
C18   H38   1.106768 S    
C29   H65   1.112943 S    
P1    O1    1.529790 D    
O15   P16   1.546735 D    
O32   Ba4   2.793987 S    
C25   H57   1.106194 S    
C3    H5    1.108214 S    
C23   H51   1.109506 S    
C55   C69   1.412579 A    
P3    O3    1.529790 D    
C14   C18   1.517154 S    
C24   H52   1.109712 S    
P4    O20   1.750251 S    
C54   C72   1.411831 A    
O41   C5    1.406362 S    
O18   C22   1.399061 S    
C39   C47   1.390774 A    
C14   H26   1.104508 S    
C15   H27   1.105027 S    
C21   H49   1.110929 S    
O1    Ba1   2.854476 S    
C34   C62   1.398261 A    
C37   C45   1.391194 A    
C74   H90   1.085458 S    
P4    Ba4   3.406929 S    
O22   P13   1.755290 S    
C33   C61   1.397425 A    
C42   C46   1.398024 A    
P5    Ba1   3.409187 S    
P4    C52   1.868266 S    
C25   H53   1.108233 S    
C40   C48   1.391434 A    
C13   C17   1.519302 S    
P7    O27   1.529033 D    
C30   H66   1.109801 S    
C27   H55   1.108539 S    
C54   C60   1.432938 A    
C36   C68   1.390877 A    
O7    Ba4   2.830108 S    
O21   C29   1.404605 S    
C15   H31   1.108923 S    
O16   P15   1.547032 D    
O26   Ba2   2.857825 S    
C6    H10   1.111839 S    
P8    C63   1.868119 S    
C76   O52   1.220108 D    
C57   C61   1.432342 A    
C35   C67   1.392254 A    
P4    O8    1.584941 S    
C73   H89   1.084508 S    
C28   H64   1.102951 S    
C49   C53   1.432870 A    
P4    O4    1.529717 D    
P6    O38   1.748824 S    
O28   Ba4   2.857825 S    
C16   C20   1.518334 S    
C9    H21   1.108985 S    
P8    O28   1.529108 D    
C37   H85   1.081813 S    
C28   H56   1.108028 S    
O30   Ba2   2.793987 S    
C33   H81   1.081894 S    
C36   C64   1.397435 A    
P10   O34   1.546811 D    
O12   P15   1.749376 S    
C67   C71   1.398522 A    
Ba2   O46   2.831796 S    
C17   H41   1.100352 S    
P2    O2    1.529717 D    
C23   C27   1.520942 S    
Ba1   O45   2.830083 S    
C24   H48   1.103632 S    
C22   H50   1.109702 S    
P5    O25   1.529033 D    
C68   C72   1.398633 A    
P3    Ba3   3.406126 S    
P12   O36   1.546953 D    
C7    C11   1.522113 S    
Ba3   O48   2.933506 S    
P2    Ba2   3.406929 S    
C71   H77   1.074920 S    
H3    C31   1.106413 S    
C7    H11   1.111264 S    
C37   C49   1.396957 A    
Ba1   O46   2.933506 S    
O10   P13   1.747639 S    
C69   H79   1.074482 S    
C42   C60   1.412703 A    
H1    C29   1.112901 S    
C32   H68   1.110315 S    
P6    O45   1.588657 S    
P1    O5    1.583742 S    
P13   C46   1.843887 S    
C56   C58   1.433519 A    
C40   C52   1.397407 A    
C70   H80   1.075288 S    
C13   H29   1.109550 S    
C22   H46   1.104332 S    
C41   C45   1.397413 A    
O37   C14   1.399097 S    
O4    Ba4   2.856192 S    
C34   C66   1.392844 A    
C51   C55   1.432870 A    
C21   C25   1.516079 S    
O23   P16   1.752082 S    
C53   C59   1.432788 A    
P11   O35   1.545718 D    
C56   C70   1.413021 A    
O22   C30   1.410659 S    
O24   P15   1.755151 S    
P8    O40   1.748764 S    
C20   H36   1.107390 S    
C3    F1    1.376185 S    
C75   O51   1.220203 D    
C3    C31   1.535171 S    
P15   C48   1.845727 S    
C11   H69   1.105207 S    
C1    C29   1.524035 S    
C4    C32   1.532460 S    
P2    O18   1.749439 S    
C21   H45   1.105062 S    
C60   C64   1.432992 A    
C27   H63   1.104417 S    
O9    Ba1   2.794694 S    
C66   C70   1.398664 A    
C44   H74   1.075206 S    
C52   C56   1.433054 A    
C65   C69   1.398720 A    
C31   H67   1.106737 S    
O44   C8    1.408709 S    
C10   H72   1.104324 S    
O25   Ba1   2.859561 S    
P10   O30   1.742516 S    
C76   H92   1.084296 S    
C3    C75   1.493798 S    
P11   O43   1.752858 S    
C1    H7    1.107640 S    
P12   O44   1.749578 S    
C5    H9    1.110482 S    
O13   P14   1.543826 D    
C73   O49   1.222727 D    
C19   H39   1.106831 S    
Ba1   Ba2   4.613657 S    
C8    C12   1.512223 S    
C15   C19   1.520131 S    
P6    O26   1.529108 D    
C5    C9    1.514390 S    
C58   C62   1.432704 A    
C27   H59   1.108484 S    
C25   H61   1.105518 S    
C44   C58   1.412928 A    
Ba4   O48   2.831796 S    
C26   H54   1.107178 S    
Ba2   O45   2.933797 S    
C2    H8    1.109267 S    
O38   C13   1.399001 S    
O2    Ba2   2.856192 S    
O5    Ba2   2.830108 S    
P7    O48   1.589870 S    
P2    O6    1.584941 S    
O31   Ba3   2.794660 S    
P7    Ba3   3.409187 S    
O9    P14   1.745317 S    
P7    C64   1.867454 S    
C1    C73   1.496024 S    
P6    Ba2   3.408366 S    
P11   O31   1.745941 S    
P5    O46   1.589870 S    
C18   H34   1.107406 S    
C17   H37   1.106567 S    
P12   O32   1.742304 S    
O24   C32   1.409303 S    
C17   H33   1.108744 S    
C22   C26   1.519853 S    
O39   C16   1.399296 S    
C36   H84   1.081757 S    
C11   H17   1.108129 S    
P8    O47   1.588657 S    
C19   H35   1.109289 S    
C38   C50   1.397305 A    
C2    F4    1.376567 S    
P2    C50   1.869862 S    
O40   C15   1.398256 S    
O3    Ba3   2.854476 S    
C2    C30   1.533881 S    
C10   H22   1.104216 S    
C42   H76   1.076085 S    
P10   O42   1.749916 S    
H2    C30   1.108771 S    
C11   H23   1.109030 S    
C16   H28   1.103986 S    
O19   C23   1.398807 S    
C12   H70   1.102582 S    
C19   H43   1.101121 S    
C4    C76   1.497131 S    
C20   H40   1.107521 S    
C23   H47   1.103618 S    
C16   H32   1.110034 S    
O12   Ba4   2.795368 S    
C35   C63   1.397350 A    
O11   P16   1.743265 S    
C8    H16   1.112320 S    
O14   P13   1.546843 D    
O29   Ba1   2.794660 S    
P9    O41   1.748173 S    
C9    H19   1.109183 S    
C40   H88   1.081829 S    
C72   H78   1.072768 S    
O42   C6    1.408736 S    
O8    Ba3   2.831819 S    
O23   C31   1.414486 S    
C26   H58   1.106677 S    
C10   H20   1.106870 S    
H4    C32   1.108927 S    
P12   C67   1.846425 S    
C4    H6    1.108967 S    
C74   O50   1.220877 D    
C24   C28   1.520936 S    
O43   C7    1.407765 S    
C9    H71   1.101891 S    
C39   H87   1.081838 S    
P3    C51   1.866388 S    
C6    C10   1.514060 S    
P1    Ba1   3.406126 S    
C38   H86   1.082081 S    
C53   C71   1.412503 A    
P3    O7    1.583742 S    
C50   C54   1.433388 A    
P9    O29   1.746488 S    
C38   C46   1.391535 A    
C44   C48   1.397436 A    
C41   H75   1.073259 S    
C39   C51   1.396962 A    
C14   H30   1.109932 S    
C4    F2    1.376590 S    
Ba4   O47   2.933797 S    
P8    Ba4   3.408366 S    
O21   P14   1.741783 S    
O20   C24   1.399193 S    
C35   H83   1.081915 S    
C12   H18   1.106033 S    
P6    C61   1.868720 S    
C33   C65   1.392330 A    
C12   H24   1.103761 S    
P16   C47   1.845282 S    
P5    C62   1.871490 S    
C1    F3    1.381069 S    
O17   C21   1.396962 S    
C18   H42   1.102139 S    
C43   C47   1.398094 A    
P1    C49   1.867704 S    
C55   C57   1.432419 A    
C41   C59   1.411869 A    
