data_mof_unit_29938.cif
_audit_creation_date              2012-12-10T20:53:54-0500
_audit_creation_method            fapswitch 2.2
_symmetry_space_group_name_H-M    P1
_symmetry_Int_Tables_number       1
_space_group_crystal_system       triclinic
_cell_length_a                    10.40341
_cell_length_b                    15.867148
_cell_length_c                    15.06858
_cell_angle_alpha                 88.833615
_cell_angle_beta                  102.67417
_cell_angle_gamma                 90.119471
_cell_volume                      2426.28802208

loop_
_atom_site_label
_atom_site_type_symbol
_atom_type_description
_atom_site_fract_x
_atom_site_fract_y
_atom_site_fract_z
_atom_type_partial_charge
C1    C     C_R   0.501650 0.338777 0.500955 0.961353
C2    C     C_1   0.501063 0.497809 0.193216 0.197519
C3    C     C_R   0.255341 0.499065 0.463253 0.869591
C4    C     C_R   0.744598 0.499174 0.536630 0.858436
C5    C     C_2   0.112084 0.485681 0.445836 0.223078
C6    C     C_2   0.887894 0.485973 0.553641 0.226205
C7    C     C_2   0.070085 0.425851 0.498076 0.398467
C8    C     C_2   0.928982 0.426625 0.502815 0.385608
C9    C     C_R   0.376881 0.955773 0.489639 0.368598
C10   C     C_R   0.618375 0.042366 0.507687 0.355076
C11   C     C_R   0.495663 0.912617 0.494639 -0.237514
C12   C     C_R   0.497651 0.660998 0.498790 0.877320
C13   C     C_R   0.500843 0.086189 0.505955 -0.238045
C14   C     C_R   0.616798 0.954701 0.504665 0.333757
C15   C     C_R   0.380253 0.043304 0.501124 0.361655
C16   C     C_1   0.493717 0.823760 0.494480 0.119908
C17   C     C_1   0.503732 0.175380 0.504259 0.094870
C18   C     C_1   0.503901 0.250298 0.502763 -0.199958
C19   C     C_1   0.494206 0.749086 0.496099 -0.218446
C20   C     C_3   0.867234 0.342814 0.376292 -0.302552
C21   C     C_3   0.117011 0.327644 0.618037 -0.302949
C22   C     C_3   0.926258 0.598251 0.655144 -0.270619
C23   C     C_R   0.409338 0.447690 0.939955 0.419862
C24   C     C_3   0.071596 0.586565 0.327338 -0.303090
C25   C     C_3   0.267836 0.127241 0.585803 0.079358
C26   C     C_3   0.333211 0.078062 0.674073 -0.417343
C27   C     C_3   0.330515 0.129489 0.757893 -0.969387
C28   C     C_3   0.752224 0.874157 0.436901 0.085912
C29   C     C_3   0.809489 0.785360 0.458523 -0.335066
C30   C     C_3   0.807335 0.736087 0.372439 -0.916609
C31   C     C_3   0.185670 0.902659 0.527040 0.126060
C32   C     C_3   0.250370 0.840043 0.602777 -0.410342
C33   C     C_3   0.165527 0.826594 0.672601 -0.923788
C34   C     C_R   0.594391 0.542980 0.061173 0.398776
C35   C     C_3   0.761618 0.101397 0.429599 0.101328
C36   C     C_3   0.910088 0.110713 0.438369 -0.288735
C37   C     C_3   0.945577 0.116064 0.345364 -0.947688
C38   C     C_3   0.363110 0.334990 0.134645 0.105389
C39   C     C_3   0.491405 0.287189 0.131723 -0.413593
C40   C     C_3   0.527275 0.224347 0.211468 -0.961976
C41   C     C_3   0.798826 0.537650 0.926437 0.113875
C42   C     C_3   0.909519 0.539779 0.012280 -0.378282
C43   C     C_3   0.034495 0.497436 0.997530 -0.863495
C44   C     C_3   0.337873 0.328023 0.865144 -0.274883
C45   C     C_R   0.503090 0.495656 0.905832 -0.316061
C46   C     C_3   0.637029 0.673809 0.117865 -0.262520
C47   C     C_R   0.502734 0.493522 0.095911 -0.318853
C48   C     C_R   0.599502 0.540207 0.967939 0.333600
C49   C     C_R   0.412789 0.442344 0.034764 0.355686
C50   C     C_1   0.500966 0.498487 0.807336 0.229935
H1    H     H_    0.960220 0.305969 0.386403 0.176374
H2    H     H_    0.111654 0.544467 0.281750 0.178667
H3    H     H_    0.146753 0.632233 0.361434 0.168472
H4    H     H_    0.990645 0.623536 0.283622 0.207658
H5    H     H_    0.164163 0.139800 0.589285 0.160156
H6    H     H_    0.313482 0.190102 0.584232 0.181098
H7    H     H_    0.280881 0.018113 0.679757 0.222178
H8    H     H_    0.437860 0.063444 0.675169 0.223626
H9    H     H_    0.388435 0.188092 0.756389 0.259401
H10   H     H_    0.375219 0.092394 0.820270 0.272831
H11   H     H_    0.227518 0.145670 0.760297 0.260266
H12   H     H_    0.870511 0.399008 0.331437 0.200540
H13   H     H_    0.823660 0.912631 0.408562 0.140601
H14   H     H_    0.659734 0.870580 0.382970 0.123051
H15   H     H_    0.912211 0.789321 0.498390 0.212312
H16   H     H_    0.752357 0.750081 0.500922 0.220260
H17   H     H_    0.704624 0.729643 0.332536 0.262867
H18   H     H_    0.847842 0.672003 0.391501 0.309725
H19   H     H_    0.868085 0.768395 0.330006 0.250686
H20   H     H_    0.088699 0.876736 0.493277 0.161383
H21   H     H_    0.162497 0.963174 0.554811 0.167826
H22   H     H_    0.264519 0.778456 0.572416 0.244441
H23   H     H_    0.786057 0.302141 0.340879 0.186024
H24   H     H_    0.348027 0.864078 0.638485 0.216429
H25   H     H_    0.149518 0.887245 0.704115 0.264483
H26   H     H_    0.216017 0.782138 0.726927 0.270740
H27   H     H_    0.068750 0.799381 0.640052 0.263352
H28   H     H_    0.712046 0.161234 0.401538 0.151000
H29   H     H_    0.725415 0.050447 0.380352 0.104783
H30   H     H_    0.944609 0.168471 0.476858 0.226272
H31   H     H_    0.961609 0.055494 0.476820 0.239053
H32   H     H_    0.921675 0.055755 0.309283 0.260442
H33   H     H_    0.052767 0.128051 0.354185 0.303185
H34   H     H_    0.031126 0.285718 0.594455 0.175063
H35   H     H_    0.890523 0.168040 0.303263 0.242111
H36   H     H_    0.284746 0.286862 0.132077 0.166040
H37   H     H_    0.369866 0.365555 0.200862 0.152509
H38   H     H_    0.478851 0.252342 0.067374 0.213251
H39   H     H_    0.575198 0.331382 0.135939 0.213753
H40   H     H_    0.541184 0.257595 0.277070 0.274749
H41   H     H_    0.620601 0.191605 0.208903 0.255518
H42   H     H_    0.448408 0.176459 0.208083 0.267334
H43   H     H_    0.836632 0.564498 0.868484 0.156148
H44   H     H_    0.770832 0.471056 0.908849 0.103942
H45   H     H_    0.094675 0.375904 0.665096 0.207682
H46   H     H_    0.932088 0.606293 0.031683 0.247275
H47   H     H_    0.877203 0.506490 0.069150 0.241585
H48   H     H_    0.015122 0.430285 0.979839 0.278650
H49   H     H_    0.112058 0.500334 0.061076 0.279809
H50   H     H_    0.070982 0.530313 0.942105 0.273532
H51   H     H_    0.352125 0.289290 0.928623 0.175099
H52   H     H_    0.426503 0.324777 0.835267 0.139259
H53   H     H_    0.254052 0.300081 0.816565 0.178396
H54   H     H_    0.544766 0.675869 0.143720 0.147035
H55   H     H_    0.620509 0.702815 0.048399 0.188522
H56   H     H_    0.198352 0.288293 0.657189 0.173766
H57   H     H_    0.711627 0.712600 0.163155 0.177142
H58   H     H_    0.878956 0.567297 0.706551 0.169856
H59   H     H_    0.856098 0.640230 0.608112 0.142685
H60   H     H_    0.006623 0.638563 0.692455 0.195985
N1    N     N_1   0.499960 0.500020 0.270540 -0.103273
N2    N     N_1   0.500040 0.499980 0.729460 -0.094512
O1    O     O_R   0.500000 0.378020 0.573650 -0.598040
O2    O     O_3   0.159096 0.365058 0.543662 -0.642701
O3    O     O_3   0.981812 0.537855 0.607302 -0.633399
O4    O     O_3   0.019351 0.539564 0.391510 -0.652084
O5    O     O_3   0.263614 0.085097 0.502486 -0.637687
O6    O     O_3   0.735372 0.911029 0.518570 -0.598899
O7    O     O_3   0.259000 0.913094 0.458834 -0.613499
O8    O     O_3   0.736774 0.084797 0.516915 -0.594901
O9    O     O_3   0.316297 0.392792 0.061171 -0.624464
O10   O     O_3   0.691818 0.588754 0.936775 -0.615187
O11   O     O_3   0.305167 0.411852 0.879598 -0.559426
O12   O     O_R   0.500000 0.621980 0.426350 -0.607658
O13   O     O_3   0.685601 0.590771 0.119832 -0.588712
O14   O     O_R   0.500060 0.378020 0.426320 -0.606723
O15   O     O_R   0.499940 0.621980 0.573680 -0.605875
O16   O     O_R   0.317790 0.500010 0.546150 -0.555554
O17   O     O_R   0.682210 0.499990 0.453850 -0.561095
O18   O     O_R   0.317850 0.500010 0.398830 -0.642054
O19   O     O_R   0.682150 0.499990 0.601170 -0.635391
O20   O     O_3   0.840460 0.365780 0.460323 -0.640932
Zn1   Zn    Zn3+2 0.499960 0.500000 0.598370 0.998130
Zn2   Zn    Zn3+2 0.500040 0.500000 0.401630 0.977626

loop_
_geom_bond_atom_site_label_1
_geom_bond_atom_site_label_2
_ccdc_geom_bond_type
C24   H2    S    
C23   C45   A    
C3    O18   A    
C41   C42   S    
C46   O13   S    
C35   C36   S    
C43   H48   S    
N2    Zn1   S    
C7    C8    S    
C32   H22   S    
C12   O15   A    
C1    C18   S    
C43   H50   S    
C38   H36   S    
C42   H46   S    
C7    O2    S    
C37   H35   S    
C36   C37   S    
C43   H49   S    
C20   H1    S    
C27   H10   S    
C34   O13   S    
C32   H24   S    
C38   C39   S    
C11   C14   A    
C23   C49   A    
C24   H4    S    
C46   H55   S    
C29   H16   S    
C27   H11   S    
C33   H25   S    
C31   H20   S    
C41   H43   S    
C31   C32   S    
C22   H60   S    
C8    O20   S    
C25   H6    S    
C30   H17   S    
C31   H21   S    
O1    Zn1   S    
C35   O8    S    
O18   Zn2   S    
C1    O1    A    
C39   H38   S    
C20   O20   S    
C25   C26   S    
C44   H53   S    
C4    O19   A    
C2    N1    T    
O15   Zn1   S    
C1    O14   A    
C4    C6    S    
C36   H30   S    
C42   H47   S    
C39   C40   S    
C5    C7    D    
C44   H52   S    
C3    O16   A    
C6    C8    D    
C21   H45   S    
C14   O6    S    
C24   H3    S    
C46   H54   S    
C15   O5    S    
C41   O10   S    
C29   C30   S    
C26   H8    S    
C11   C16   S    
C33   H26   S    
C41   H44   S    
C12   O12   A    
C21   H34   S    
C36   H31   S    
C22   H59   S    
C49   O9    S    
C46   H57   S    
C50   N2    T    
C17   C18   T    
C26   C27   S    
C40   H42   S    
C9    C11   A    
C31   O7    S    
C29   H15   S    
C28   H14   S    
C22   O3    S    
C24   O4    S    
C13   C15   A    
C5    O4    S    
C10   C14   A    
C9    O7    S    
C37   H32   S    
C34   C48   A    
C42   C43   S    
C3    C5    S    
C30   H19   S    
C45   C48   A    
C28   C29   S    
C35   H28   S    
C21   H56   S    
C21   O2    S    
O19   Zn1   S    
C10   C13   A    
C25   O5    S    
C23   O11   S    
C44   H51   S    
N1    Zn2   S    
C4    O17   A    
O12   Zn2   S    
C2    C47   S    
C47   C49   A    
C44   O11   S    
C13   C17   S    
C38   H37   S    
C32   C33   S    
C9    C15   A    
C27   H9    S    
O16   Zn1   S    
C48   O10   S    
C33   H27   S    
C45   C50   S    
C16   C19   T    
C22   H58   S    
C12   C19   S    
C35   H29   S    
C25   H5    S    
C20   H23   S    
C40   H41   S    
C20   H12   S    
C26   H7    S    
C6    O3    S    
C38   O9    S    
C10   O8    S    
O17   Zn2   S    
C28   H13   S    
O14   Zn2   S    
C37   H33   S    
C28   O6    S    
C34   C47   A    
C40   H40   S    
C39   H39   S    
C30   H18   S    
