data_mof_unit_62745.cif
_audit_creation_date              2012-12-10T19:09:02-0500
_audit_creation_method            fapswitch 2.2
_symmetry_space_group_name_H-M    P1
_symmetry_Int_Tables_number       1
_space_group_crystal_system       triclinic
_cell_length_a                    30.309539
_cell_length_b                    30.30952
_cell_length_c                    18.232711
_cell_angle_alpha                 89.999597
_cell_angle_beta                  90.000312
_cell_angle_gamma                 90.000666
_cell_volume                      16749.8004623

loop_
_atom_site_label
_atom_site_type_symbol
_atom_type_description
_atom_site_fract_x
_atom_site_fract_y
_atom_site_fract_z
_atom_type_partial_charge
C1    C     C_R   0.226342 1.000000 0.500003 0.063409
C2    C     C_R   0.003455 0.203309 0.432495 0.009126
C3    C     C_R   0.039983 0.657327 0.505831 -0.231934
C4    C     C_R   0.657327 0.039973 0.494015 -0.231939
C5    C     C_R   0.039988 0.342671 0.494334 -0.231935
C6    C     C_R   0.342670 0.960007 0.494418 -0.231934
C7    C     C_R   0.960023 0.657329 0.494163 -0.231946
C8    C     C_R   0.842670 0.539985 0.005692 -0.231947
C9    C     C_R   0.460014 0.842671 0.005729 -0.231945
C10   C     C_R   0.157327 0.460031 0.006002 -0.231951
C11   C     C_R   0.539978 0.157326 0.005923 -0.231940
C12   C     C_R   0.157326 0.539973 0.994001 -0.231942
C13   C     C_R   0.796689 0.003251 0.432466 0.009109
C14   C     C_R   0.539985 0.842672 0.994270 -0.231945
C15   C     C_R   0.842672 0.460010 0.994311 -0.231936
C16   C     C_R   0.460028 0.157328 0.994072 -0.231952
C17   C     C_R   0.365742 1.000000 0.500002 -0.224921
C18   C     C_R   0.999999 0.365742 0.499999 -0.224914
C19   C     C_R   0.634256 0.000001 0.499999 -0.224884
C20   C     C_R   0.000002 0.634257 0.499998 -0.224899
C21   C     C_R   0.865742 0.499999 0.000001 -0.224911
C22   C     C_R   0.499999 0.865742 1.000000 -0.224910
C23   C     C_R   0.134256 0.500001 0.000001 -0.224884
C24   C     C_R   0.996663 0.796690 0.432486 0.009170
C25   C     C_R   0.500002 0.134257 0.999998 -0.224891
C26   C     C_R   0.274219 1.000000 0.500004 -0.138219
C27   C     C_R   0.999999 0.274219 0.499999 -0.138250
C28   C     C_R   0.725778 0.000001 0.499997 -0.138251
C29   C     C_R   0.000006 0.725780 0.499999 -0.138251
C30   C     C_R   0.774219 0.499996 0.000000 -0.138248
C31   C     C_R   0.499999 0.774220 0.999999 -0.138281
C32   C     C_R   0.225778 0.500004 0.999999 -0.138276
C33   C     C_R   0.500005 0.225779 0.999999 -0.138267
C34   C     C_2   0.225602 0.993359 0.359610 0.961308
C35   C     C_R   0.796689 0.996752 0.567530 0.009108
C36   C     C_2   0.006531 0.225603 0.359591 0.961303
C37   C     C_2   0.774395 0.006102 0.359537 0.961288
C38   C     C_2   0.993710 0.774395 0.359572 0.961223
C39   C     C_2   0.774395 0.993904 0.640459 0.961284
C40   C     C_2   0.993464 0.225602 0.640404 0.961290
C41   C     C_2   0.225602 0.006642 0.640396 0.961312
C42   C     C_2   0.006292 0.774397 0.640445 0.961341
C43   C     C_2   0.725602 0.493486 0.859589 0.961320
C44   C     C_2   0.506478 0.725604 0.859589 0.961288
C45   C     C_2   0.274395 0.506074 0.859530 0.961317
C46   C     C_R   0.996542 0.203308 0.567501 0.009140
C47   C     C_2   0.493824 0.274394 0.859559 0.961219
C48   C     C_2   0.274393 0.493925 0.140454 0.961224
C49   C     C_2   0.493517 0.725603 0.140408 0.961279
C50   C     C_2   0.725605 0.506507 0.140404 0.961260
C51   C     C_2   0.506180 0.274395 0.140456 0.961320
C52   C     C_R   0.203308 0.003507 0.567499 0.009123
C53   C     C_R   0.003344 0.796690 0.567524 0.009067
C54   C     C_R   0.703308 0.496551 0.932494 0.009119
C55   C     C_R   0.503431 0.703309 0.932493 0.009163
C56   C     C_R   0.296689 0.503240 0.932462 0.009087
C57   C     C_R   0.999999 0.226343 0.499998 0.063417
C58   C     C_R   0.496717 0.296690 0.932478 0.009174
C59   C     C_R   0.296689 0.496764 0.067527 0.009163
C60   C     C_R   0.496566 0.703308 0.067504 0.009171
C61   C     C_R   0.703309 0.503442 0.067503 0.009164
C62   C     C_R   0.503291 0.296690 0.067530 0.009086
C63   C     C_R   0.157383 0.996201 0.433837 -0.204048
C64   C     C_R   0.003750 0.157384 0.433826 -0.204020
C65   C     C_R   0.842614 0.003551 0.433795 -0.204000
C66   C     C_R   0.996361 0.842615 0.433812 -0.204024
C67   C     C_R   0.842614 0.996451 0.566202 -0.204014
C68   C     C_R   0.773655 0.000002 0.499998 0.063426
C69   C     C_R   0.996249 0.157384 0.566171 -0.204050
C70   C     C_R   0.157382 0.003799 0.566168 -0.204032
C71   C     C_R   0.003638 0.842616 0.566193 -0.204018
C72   C     C_R   0.657383 0.496259 0.933825 -0.204052
C73   C     C_R   0.503728 0.657384 0.933822 -0.204034
C74   C     C_R   0.342615 0.503539 0.933792 -0.204013
C75   C     C_R   0.496413 0.342615 0.933804 -0.204024
C76   C     C_R   0.342614 0.496460 0.066202 -0.204009
C77   C     C_R   0.496270 0.657383 0.066175 -0.204057
C78   C     C_R   0.657384 0.503739 0.066175 -0.204027
C79   C     C_R   0.000007 0.773656 0.500004 0.063422
C80   C     C_R   0.503588 0.342615 0.066201 -0.204017
C81   C     C_R   0.134490 1.000000 0.500002 -0.088535
C82   C     C_R   1.000000 0.134491 0.499999 -0.088551
C83   C     C_R   0.865508 0.000001 0.499999 -0.088599
C84   C     C_R   1.000000 0.865509 0.500002 -0.088575
C85   C     C_R   0.634490 0.500000 0.000000 -0.088542
C86   C     C_R   0.499999 0.634490 0.999999 -0.088542
C87   C     C_R   0.365508 0.499999 0.999998 -0.088594
C88   C     C_R   0.500000 0.365509 0.000002 -0.088579
C89   C     C_R   0.413716 1.000000 0.500000 0.941018
C90   C     C_R   0.726343 0.499995 0.999999 0.063408
C91   C     C_R   1.000000 0.413717 0.500000 0.941013
C92   C     C_R   0.586283 0.000000 0.500000 0.940986
C93   C     C_R   0.000000 0.586283 0.499999 0.940998
C94   C     C_R   0.913716 0.500000 0.000000 0.941009
C95   C     C_R   0.500000 0.913717 1.000000 0.941006
C96   C     C_R   0.086283 0.500000 0.000000 0.940983
C97   C     C_R   0.500000 0.086283 1.000000 0.940990
C98   C     C_R   0.500000 0.000000 0.358994 0.925630
C99   C     C_R   1.000000 0.500000 0.358994 0.925629
C100  C     C_R   0.500000 1.000000 0.641006 0.925630
C101  C     C_R   0.499999 0.726343 0.999999 0.063407
C102  C     C_R   1.000000 0.500000 0.641006 0.925634
C103  C     C_R   0.000000 0.500000 0.858994 0.925628
C104  C     C_R   0.500000 1.000000 0.858994 0.925622
C105  C     C_R   1.000000 0.500000 0.141006 0.925621
C106  C     C_R   0.500000 0.000000 0.141006 0.925628
C107  C     C_R   0.999999 0.913531 0.500000 0.905356
C108  C     C_R   0.086469 1.000000 0.500000 0.905354
C109  C     C_R   1.000000 0.086469 0.500000 0.905353
C110  C     C_R   0.913531 0.000000 0.500000 0.905355
C111  C     C_R   0.499999 0.413531 0.000000 0.905361
C112  C     C_R   0.273655 0.500005 0.999995 0.063426
C113  C     C_R   0.586469 0.500000 0.000000 0.905358
C114  C     C_R   0.500000 0.586469 1.000000 0.905360
C115  C     C_R   0.413531 0.499999 1.000000 0.905358
C116  C     C_1   0.500000 0.000000 0.282436 -0.148992
C117  C     C_1   1.000000 0.500000 0.282436 -0.148996
C118  C     C_1   0.500000 1.000000 0.717564 -0.148994
C119  C     C_1   0.000000 0.500000 0.717564 -0.148991
C120  C     C_1   0.000000 0.500000 0.782436 -0.148989
C121  C     C_1   0.500000 1.000000 0.782435 -0.148994
C122  C     C_1   1.000000 0.500000 0.217564 -0.148995
C123  C     C_R   0.500007 0.273656 0.000003 0.063420
C124  C     C_1   0.500000 0.000000 0.217564 -0.148992
C125  C     C_R   0.296947 0.040004 0.505686 0.663694
C126  C     C_R   0.959999 0.296946 0.505763 0.663678
C127  C     C_R   0.703051 0.960018 0.506083 0.663716
C128  C     C_R   0.039996 0.703051 0.505933 0.663843
C129  C     C_R   0.703051 0.039984 0.493911 0.663716
C130  C     C_R   0.040000 0.296947 0.494235 0.663706
C131  C     C_R   0.296946 0.959995 0.494321 0.663691
C132  C     C_R   0.960014 0.703053 0.494061 0.663577
C133  C     C_R   0.796946 0.539995 0.005792 0.663622
C134  C     C_R   0.203308 0.996493 0.432507 0.009124
C135  C     C_R   0.460002 0.796947 0.005829 0.663661
C136  C     C_R   0.203051 0.460021 0.006106 0.663609
C137  C     C_R   0.539991 0.203050 0.006027 0.663817
C138  C     C_R   0.203050 0.539986 0.993895 0.663809
C139  C     C_R   0.539996 0.796947 0.994170 0.663677
C140  C     C_R   0.796948 0.459998 0.994211 0.663749
C141  C     C_R   0.460018 0.203052 0.993968 0.663588
C142  C     C_R   0.342671 0.039993 0.505587 -0.231931
C143  C     C_R   0.960010 0.342670 0.505664 -0.231935
C144  C     C_R   0.657327 0.960028 0.505980 -0.231941
F1    F     F_    0.274779 0.078799 0.511041 -0.624280
F2    F     F_    0.421214 0.774778 0.011326 -0.624282
F3    F     F_    0.225221 0.421248 0.011874 -0.624287
F4    F     F_    0.578769 0.225217 0.011721 -0.624264
F5    F     F_    0.225218 0.578759 0.988125 -0.624267
F6    F     F_    0.578783 0.774779 0.988672 -0.624269
F7    F     F_    0.774780 0.421208 0.988752 -0.624280
F8    F     F_    0.421242 0.225222 0.988274 -0.624290
F9    F     F_    0.921208 0.274777 0.511197 -0.624285
F10   F     F_    0.725219 0.921244 0.511834 -0.624285
F11   F     F_    0.078779 0.725218 0.511536 -0.624263
F12   F     F_    0.725220 0.078759 0.488160 -0.624278
F13   F     F_    0.078790 0.274778 0.488801 -0.624272
F14   F     F_    0.274777 0.921200 0.488967 -0.624285
F15   F     F_    0.921232 0.725223 0.488459 -0.624294
F16   F     F_    0.774778 0.578784 0.011252 -0.624281
H1    H     H_    0.359908 0.071178 0.510038 0.205849
H2    H     H_    0.428834 0.859909 0.010297 0.205839
H3    H     H_    0.140089 0.428863 0.010790 0.205817
H4    H     H_    0.571148 0.140087 0.010650 0.205818
H5    H     H_    0.140087 0.571140 0.989214 0.205811
H6    H     H_    0.571164 0.859909 0.989701 0.205841
H7    H     H_    0.859909 0.428830 0.989774 0.205839
H8    H     H_    0.428856 0.140091 0.989345 0.205825
H9    H     H_    0.139253 0.993564 0.382805 0.207072
H10   H     H_    0.006349 0.139254 0.382790 0.207079
H11   H     H_    0.860743 0.005990 0.382736 0.207108
H12   H     H_    0.928828 0.359908 0.510181 0.205841
H13   H     H_    0.993850 0.860743 0.382761 0.207050
H14   H     H_    0.860743 0.994012 0.617262 0.207111
H15   H     H_    0.993649 0.139253 0.617207 0.207066
H16   H     H_    0.139252 0.006436 0.617199 0.207072
H17   H     H_    0.006146 0.860746 0.617241 0.207137
H18   H     H_    0.639252 0.493670 0.882786 0.207086
H19   H     H_    0.506310 0.639255 0.882782 0.207055
H20   H     H_    0.360744 0.505968 0.882732 0.207130
H21   H     H_    0.493942 0.360742 0.882746 0.207054
H22   H     H_    0.360741 0.494028 0.117265 0.207065
H23   H     H_    0.640088 0.928861 0.510753 0.205813
H24   H     H_    0.493688 0.639254 0.117216 0.207048
H25   H     H_    0.639256 0.506330 0.117215 0.207047
H26   H     H_    0.506055 0.360745 0.117257 0.207126
H27   H     H_    0.221135 0.975250 0.253264 0.365740
H28   H     H_    0.024559 0.221138 0.253207 0.365737
H29   H     H_    0.778861 0.023799 0.253000 0.365726
H30   H     H_    0.975816 0.778841 0.253123 0.365723
H31   H     H_    0.778861 0.976212 0.746999 0.365727
H32   H     H_    0.975424 0.221139 0.746783 0.365735
H33   H     H_    0.221136 0.024755 0.746740 0.365740
H34   H     H_    0.071157 0.640088 0.510483 0.205824
H35   H     H_    0.024087 0.778879 0.746936 0.365739
H36   H     H_    0.721132 0.475480 0.753195 0.365737
H37   H     H_    0.524496 0.721154 0.753199 0.365730
H38   H     H_    0.278870 0.523726 0.752972 0.365730
H39   H     H_    0.476011 0.278837 0.753072 0.365719
H40   H     H_    0.278839 0.476197 0.246978 0.365719
H41   H     H_    0.475493 0.721152 0.246795 0.365728
H42   H     H_    0.721157 0.524555 0.246779 0.365729
H43   H     H_    0.523910 0.278869 0.246977 0.365732
H44   H     H_    0.640088 0.071141 0.489243 0.205814
H45   H     H_    0.071171 0.359910 0.489818 0.205842
H46   H     H_    0.359907 0.928821 0.489966 0.205848
H47   H     H_    0.928847 0.640092 0.489511 0.205831
H48   H     H_    0.859907 0.571167 0.010229 0.205844
O1    O     O_R   0.434530 0.036970 0.500000 -0.620869
O2    O     O_R   0.463030 0.934530 0.000000 -0.620859
O3    O     O_R   0.065470 0.463030 0.000000 -0.620842
O4    O     O_R   0.536970 0.065470 0.000000 -0.620848
O5    O     O_R   0.065470 0.536970 0.000000 -0.620841
O6    O     O_R   0.536970 0.934530 0.000000 -0.620860
O7    O     O_R   0.934530 0.463030 0.000000 -0.620861
O8    O     O_R   0.463030 0.065470 0.000000 -0.620845
O9    O     O_R   0.500010 0.036970 0.392670 -0.610628
O10   O     O_R   0.963030 0.500010 0.392670 -0.610609
O11   O     O_R   0.499990 0.963030 0.392670 -0.610569
O12   O     O_R   0.963030 0.434530 0.500000 -0.620864
O13   O     O_R   0.036970 0.499990 0.392670 -0.610592
O14   O     O_R   0.499990 0.036970 0.607330 -0.610575
O15   O     O_R   0.036970 0.500010 0.607330 -0.610612
O16   O     O_R   0.500010 0.963030 0.607330 -0.610624
O17   O     O_R   0.963030 0.499990 0.607330 -0.610584
O18   O     O_R   0.000010 0.536970 0.892670 -0.610620
O19   O     O_R   0.463030 0.000010 0.892670 -0.610609
O20   O     O_R   0.999990 0.463030 0.892670 -0.610575
O21   O     O_R   0.536970 0.999990 0.892670 -0.610590
O22   O     O_R   0.999990 0.536970 0.107330 -0.610581
O23   O     O_R   0.565470 0.963030 0.500000 -0.620843
O24   O     O_R   0.536970 0.000010 0.107330 -0.610615
O25   O     O_R   0.000010 0.463030 0.107330 -0.610618
O26   O     O_R   0.463030 0.999990 0.107330 -0.610581
O27   O     O_R   0.999990 0.934550 0.439420 -0.618933
O28   O     O_R   0.065450 0.999990 0.439420 -0.618922
O29   O     O_R   0.000010 0.065450 0.439420 -0.618892
O30   O     O_R   0.934550 0.000010 0.439420 -0.618904
O31   O     O_R   0.000010 0.934550 0.560580 -0.618894
O32   O     O_R   0.934550 0.999990 0.560580 -0.618920
O33   O     O_R   0.999990 0.065450 0.560580 -0.618931
O34   O     O_R   0.036970 0.565470 0.500000 -0.620853
O35   O     O_R   0.065450 0.000010 0.560580 -0.618904
O36   O     O_R   0.499990 0.434550 0.939420 -0.618929
O37   O     O_R   0.565450 0.499990 0.939420 -0.618926
O38   O     O_R   0.500010 0.565450 0.939420 -0.618898
O39   O     O_R   0.434550 0.500010 0.939420 -0.618904
O40   O     O_R   0.500010 0.434550 0.060580 -0.618899
O41   O     O_R   0.434550 0.499990 0.060580 -0.618923
O42   O     O_R   0.499990 0.565450 0.060580 -0.618930
O43   O     O_R   0.565450 0.500010 0.060580 -0.618903
O44   O     O_2   0.263195 0.007027 0.350937 -0.613894
O45   O     O_R   0.565470 0.036970 0.500000 -0.620844
O46   O     O_R   0.202869 0.975407 0.299855 -0.779755
O47   O     O_2   0.992852 0.263193 0.350945 -0.613882
O48   O     O_R   0.024441 0.202873 0.299799 -0.779741
O49   O     O_2   0.736804 0.992396 0.351009 -0.613858
O50   O     O_R   0.797126 0.023826 0.299592 -0.779754
O51   O     O_2   0.007447 0.736821 0.350977 -0.613842
O52   O     O_R   0.975853 0.797106 0.299715 -0.779717
O53   O     O_2   0.736803 0.007607 0.648985 -0.613859
O54   O     O_R   0.797126 0.976184 0.700407 -0.779764
O55   O     O_2   0.007152 0.263190 0.649053 -0.613876
O56   O     O_R   0.036970 0.434530 0.500000 -0.620866
O57   O     O_R   0.975543 0.202875 0.700191 -0.779748
O58   O     O_2   0.263194 0.992974 0.649070 -0.613897
O59   O     O_R   0.202870 0.024597 0.700150 -0.779746
O60   O     O_2   0.992637 0.736790 0.649009 -0.613889
O61   O     O_R   0.024050 0.797145 0.700345 -0.779794
O62   O     O_2   0.763195 0.507158 0.850953 -0.613888
O63   O     O_R   0.702867 0.475594 0.799786 -0.779765
O64   O     O_2   0.492767 0.763183 0.850950 -0.613867
O65   O     O_R   0.524398 0.702888 0.799791 -0.779710
O66   O     O_2   0.236797 0.492386 0.851019 -0.613861
O67   O     O_R   0.434530 0.963030 0.500000 -0.620868
O68   O     O_R   0.297135 0.523763 0.799564 -0.779784
O69   O     O_2   0.507574 0.236823 0.850994 -0.613831
O70   O     O_R   0.476009 0.297103 0.799664 -0.779712
O71   O     O_2   0.236820 0.507676 0.148989 -0.613827
O72   O     O_R   0.297104 0.476160 0.200387 -0.779718
O73   O     O_2   0.507232 0.763181 0.149049 -0.613860
O74   O     O_R   0.475592 0.702887 0.200204 -0.779720
O75   O     O_2   0.763183 0.492794 0.149053 -0.613866
O76   O     O_R   0.702890 0.524445 0.200189 -0.779708
O77   O     O_2   0.492501 0.236796 0.148994 -0.613872
O78   O     O_R   0.963030 0.565470 0.500000 -0.620852
O79   O     O_R   0.523911 0.297135 0.200386 -0.779780
O80   O     O_R   0.934530 0.536970 0.000000 -0.620863
Zn1   Zn    Zn3+2 0.500000 0.049360 0.500000 1.031579
Zn2   Zn    Zn3+2 0.000000 0.000000 0.580910 1.033323
Zn3   Zn    Zn3+2 0.500000 0.500000 0.919090 1.033321
Zn4   Zn    Zn3+2 0.500000 0.500000 0.080910 1.033318
Zn5   Zn    Zn3+2 0.950640 0.500000 0.500000 1.031592
Zn6   Zn    Zn3+2 0.500000 0.950640 0.500000 1.031594
Zn7   Zn    Zn3+2 0.049360 0.500000 0.500000 1.031574
Zn8   Zn    Zn3+2 0.000000 0.549360 0.000000 1.031589
Zn9   Zn    Zn3+2 0.450640 0.000000 0.000000 1.031603
Zn10  Zn    Zn3+2 0.000000 0.450640 0.000000 1.031600
Zn11  Zn    Zn3+2 0.549360 0.000000 0.000000 1.031579
Zn12  Zn    Zn3+2 0.000000 0.000000 0.419090 1.033315

loop_
_geom_bond_atom_site_label_1
_geom_bond_atom_site_label_2
_ccdc_geom_bond_type
C20   C93   S    
C99   O13   A    
C52   C70   A    
C67   C83   A    
C111  O36   A    
C97   O4    A    
C7    C20   A    
C22   C95   S    
C49   O74   S    
C137  F4    S    
C103  C120  S    
C32   C112  S    
C117  C122  T    
C72   H18   S    
C30   C90   S    
O4    Zn11  S    
C38   O51   D    
C77   H24   S    
C142  H1    S    
C108  O28   A    
C72   C85   A    
C2    C57   A    
H42   O76   S    
O34   Zn7   S    
C102  C119  S    
C13   C65   A    
O37   Zn3   S    
C103  O18   A    
C40   C46   S    
C12   C23   A    
C7    C132  A    
C58   C123  A    
C19   C144  A    
C49   C60   S    
H29   O50   S    
C63   C81   A    
C130  F13   S    
C18   C91   S    
C31   C101  S    
C136  F3    S    
C51   O79   S    
C18   C143  A    
C28   C68   S    
C37   O49   D    
C143  H12   S    
C71   C84   A    
C93   O34   A    
O28   Zn12  S    
C42   C53   S    
C93   O78   A    
C40   O55   D    
C110  O32   A    
C9    C22   A    
C4    H44   S    
C29   C132  A    
H38   O68   S    
C21   C94   S    
C34   C134  S    
C67   H14   S    
H43   O79   S    
C45   O66   D    
C114  O42   A    
C126  C143  A    
C16   C25   A    
C84   C107  S    
O42   Zn4   S    
C23   C96   S    
H36   O63   S    
C28   C129  A    
C91   O12   A    
C8    H48   S    
C70   C81   A    
C46   C69   A    
O22   Zn8   S    
C69   C82   A    
O36   Zn3   S    
C128  F11   S    
O33   Zn2   S    
C4    C19   A    
O12   Zn5   S    
C45   C56   S    
C33   C137  A    
C111  O40   A    
C43   O62   D    
C97   O8    A    
O15   Zn7   S    
C89   O1    A    
C58   C75   A    
C24   C38   S    
C87   C115  S    
C34   O44   D    
C66   H13   S    
C19   C92   S    
O56   Zn7   S    
C109  O33   A    
C74   C87   A    
C14   H6    S    
C106  O26   A    
C61   C78   A    
C41   C52   S    
C13   C37   S    
C28   C127  A    
C24   C66   A    
O27   Zn12  S    
C40   O57   S    
C135  F2    S    
O35   Zn2   S    
C44   O65   S    
C81   C108  S    
C96   O3    A    
C98   O11   A    
O43   Zn4   S    
C88   C111  S    
C15   H7    S    
C41   O58   D    
C56   C112  A    
C51   C62   S    
O1    Zn1   S    
C76   H22   S    
C127  F10   S    
O9    Zn1   S    
C62   C123  A    
C66   C84   A    
C2    C64   A    
C102  O15   A    
C59   C112  A    
C115  O39   A    
C48   O72   S    
C138  F5    S    
C60   C77   A    
O38   Zn3   S    
C36   O47   D    
C30   C140  A    
O25   Zn10  S    
O40   Zn4   S    
H32   O57   S    
O20   Zn10  S    
C132  F15   S    
H31   O54   S    
H30   O52   S    
H28   O48   S    
C17   C89   S    
C37   O50   S    
O23   Zn6   S    
C7    H47   S    
C39   O53   D    
C12   H5    S    
C32   C136  A    
C3    C128  A    
C6    H46   S    
C94   O80   A    
C104  C121  S    
C92   O23   A    
H40   O72   S    
C103  O20   A    
O41   Zn4   S    
C107  O31   A    
C104  O19   A    
C25   C97   S    
C102  O17   A    
O18   Zn8   S    
C96   O5    A    
O78   Zn5   S    
C50   O76   S    
C17   C142  A    
C26   C125  A    
H33   O59   S    
C29   C128  A    
C131  F14   S    
C35   C39   S    
C43   O63   S    
C63   C134  A    
C32   C138  A    
C65   C83   A    
O67   Zn6   S    
C99   C117  S    
H37   O65   S    
O11   Zn6   S    
C98   C116  S    
O14   Zn1   S    
C99   O10   A    
C35   C67   A    
C125  C142  A    
C30   C133  A    
C110  O30   A    
C8    C21   A    
C94   O7    A    
C83   C110  S    
C74   H20   S    
C29   C79   S    
O17   Zn5   S    
C78   H25   S    
C36   O48   S    
H27   O46   S    
C140  F7    S    
C64   C82   A    
C82   C109  S    
O24   Zn11  S    
O19   Zn9   S    
C9    C135  A    
C78   C85   A    
C31   C135  A    
C5    C130  A    
C65   H11   S    
C77   C86   A    
C62   C80   A    
O39   Zn3   S    
C47   O69   D    
C46   C57   A    
C27   C57   S    
C1    C26   S    
C24   C79   A    
O26   Zn9   S    
C12   C138  A    
C41   O59   S    
C100  C118  S    
C34   O46   S    
C42   O60   D    
C60   C101  A    
H35   O61   S    
O3    Zn10  S    
C61   C90   A    
C48   C59   S    
C89   O67   A    
C15   C140  A    
C48   O71   D    
C2    C36   S    
C100  O14   A    
C27   C130  A    
C6    C17   A    
C107  O27   A    
C13   C68   A    
C80   H26   S    
O8    Zn9   S    
C116  C124  T    
C53   C79   A    
C8    C133  A    
C95   O2    A    
C105  O25   A    
C50   C61   S    
C51   O77   D    
C75   H21   S    
O45   Zn1   S    
C16   H8    S    
C73   H19   S    
C10   C136  A    
C6    C131  A    
C39   O54   S    
C38   O52   S    
H41   O74   S    
C129  F12   S    
C76   C87   A    
C119  C120  T    
O29   Zn12  S    
C11   C25   A    
C54   C90   A    
C4    C129  A    
C115  O41   A    
C109  O29   A    
C10   C23   A    
C45   O68   S    
O32   Zn2   S    
C55   C101  A    
C139  F6    S    
C31   C139  A    
C113  O43   A    
C44   O64   D    
C50   O75   D    
C86   C114  S    
C133  F16   S    
C33   C141  A    
C105  O22   A    
C71   H17   S    
C42   O61   S    
C85   C113  S    
C16   C141  A    
C11   C137  A    
O2    Zn9   S    
O10   Zn5   S    
C3    C20   A    
C92   O45   A    
C47   C58   S    
O7    Zn10  S    
C44   C55   S    
C14   C22   A    
C104  O21   A    
C114  O38   A    
O31   Zn2   S    
C35   C68   A    
C5    C18   A    
C113  O37   A    
C108  O35   A    
C49   O73   D    
C11   H4    S    
C27   C126  A    
C106  O24   A    
C105  C122  S    
O21   Zn11  S    
O16   Zn6   S    
C127  C144  A    
O80   Zn8   S    
C64   H10   S    
C9    H2    S    
C1    C52   A    
C43   C54   S    
C73   C86   A    
C144  H23   S    
C47   O70   S    
C63   H9    S    
C26   C131  A    
C5    H45   S    
O6    Zn11  S    
C55   C73   A    
C126  F9    S    
O5    Zn8   S    
C75   C88   A    
C15   C21   A    
C54   C72   A    
C14   C139  A    
O13   Zn7   S    
C80   C88   A    
C3    H34   S    
C98   O9    A    
C106  C124  S    
C33   C123  S    
C95   O6    A    
C100  O16   A    
C125  F1    S    
C69   H15   S    
C70   H16   S    
C59   C76   A    
C118  C121  T    
C56   C74   A    
C91   O56   A    
C1    C134  A    
C141  F8    S    
O30   Zn12  S    
H39   O70   S    
C10   H3    S    
C53   C71   A    
