data_mof_unit_67590.cif
_audit_creation_date              2012-12-10T17:22:39-0500
_audit_creation_method            fapswitch 2.2
_symmetry_space_group_name_H-M    P1
_symmetry_Int_Tables_number       1
_space_group_crystal_system       triclinic
_cell_length_a                    10.637647
_cell_length_b                    10.852234
_cell_length_c                    9.582755
_cell_angle_alpha                 90.800988
_cell_angle_beta                  89.638628
_cell_angle_gamma                 92.535299
_cell_volume                      1105.04588838

loop_
_atom_site_label
_atom_site_type_symbol
_atom_type_description
_atom_site_fract_x
_atom_site_fract_y
_atom_site_fract_z
_atom_type_partial_charge
C1    C     C_R   0.508798 0.262720 0.500108 0.790167
C2    C     C_3   0.965044 0.605251 0.457419 0.501758
C3    C     C_3   0.043131 0.518023 0.368467 -0.211327
C4    C     C_3   0.122408 0.497434 0.499470 -0.043094
C5    C     C_R   0.574409 0.124408 0.755138 -0.219518
C6    C     C_R   0.550356 0.073913 0.886156 0.458035
C7    C     C_R   0.485802 0.960367 0.893988 -0.311401
C8    C     C_R   0.448866 0.894291 0.772699 0.399096
C9    C     C_R   0.485469 0.940448 0.638400 -0.017738
C10   C     C_R   0.528146 0.065217 0.631823 -0.019902
C11   C     C_R   0.516710 0.128232 0.503467 -0.074283
C12   C     C_R   0.259347 0.498491 0.500082 0.805819
C13   C     C_R   0.492923 0.061243 0.380342 -0.208411
C14   C     C_R   0.480769 0.934174 0.382628 -0.230593
C15   C     C_R   0.479228 0.871605 0.509632 -0.080742
C16   C     C_R   0.667365 0.663631 0.145352 -0.095986
C17   C     C_R   0.749367 0.743136 0.073640 -0.216489
C18   C     C_R   0.746439 0.746025 0.930009 -0.248407
C19   C     C_R   0.664728 0.666054 0.857113 -0.070839
C20   C     C_R   0.580626 0.581951 0.925852 0.137713
C21   C     C_R   0.581051 0.581512 0.075428 0.152589
C22   C     C_R   0.425170 0.420244 0.073721 -0.141413
C23   C     C_R   0.489945 0.737217 0.502376 0.812849
C24   C     C_R   0.422833 0.421157 0.924747 0.545186
C25   C     C_R   0.740523 0.499483 0.499752 0.785965
C26   C     C_3   0.036386 0.386973 0.542214 -0.160873
C27   C     C_3   0.954498 0.408068 0.412255 -0.212683
C28   C     C_3   0.877244 0.497528 0.499581 -0.013820
C29   C     C_3   0.956908 0.476340 0.629816 -0.212366
C30   C     C_3   0.045336 0.586726 0.587407 -0.258662
Cu1   Cu    Cu3+1 0.499990 0.499990 0.640660 0.981888
Cu2   Cu    Cu3+1 0.500010 0.500010 0.359340 0.926576
H1    H     H_    0.914044 0.335790 0.340979 0.144814
H2    H     H_    0.460715 0.924281 0.995785 0.155026
H3    H     H_    0.471398 0.884862 0.283877 0.162560
H4    H     H_    0.367300 0.352823 0.129860 0.159539
H5    H     H_    0.676892 0.670348 0.255269 0.221784
H6    H     H_    0.815715 0.802917 0.130512 0.174961
H7    H     H_    0.069695 0.296700 0.575622 0.136521
H8    H     H_    0.919534 0.458756 0.736501 0.156871
H9    H     H_    0.085601 0.660025 0.656696 0.139336
H10   H     H_    0.484614 0.106999 0.281351 0.200833
H11   H     H_    0.626813 0.211765 0.752239 0.166377
N1    N     N_R   0.501210 0.501210 0.147910 -0.230022
N2    N     N_R   0.501250 0.501290 0.852040 -0.232974
O1    O     O_R   0.499990 0.319640 0.618810 -0.538518
O2    O     O_R   0.500000 0.319660 0.381240 -0.584759
O3    O     O_R   0.316850 0.499960 0.618770 -0.557712
O4    O     O_R   0.316860 0.499980 0.381190 -0.590531
O5    O     O_R   0.500000 0.680340 0.618760 -0.547881
O6    O     O_R   0.500010 0.680360 0.381190 -0.615804
O7    O     O_R   0.683140 0.500020 0.618810 -0.622944
O8    O     O_R   0.683150 0.500040 0.381230 -0.596149
O9    O     O_3   0.374415 0.787277 0.786897 -0.580297
C31   C     C_3   0.255358 0.811685 0.844964 0.044160
H12   H     H_    0.189935 0.829193 0.758571 0.145728
H13   H     H_    0.254993 0.893336 0.916792 0.127570
C32   C     C_3   0.208311 0.698581 0.926763 -0.335252
H14   H     H_    0.212448 0.614720 0.859347 0.229917
H15   H     H_    0.270531 0.686582 0.017963 0.212126
C33   C     C_3   0.073552 0.711536 0.977805 -0.950199
H16   H     H_    0.067339 0.793422 0.047931 0.252254
H17   H     H_    0.041832 0.627867 0.035750 0.259708
H18   H     H_    0.010367 0.721367 0.887479 0.257176
H19   H     H_    0.808809 0.809876 0.874126 0.139378
H20   H     H_    0.672749 0.673751 0.747224 0.194378
O10   O     O_3   0.354189 0.330983 0.851102 -0.567882
C34   C     C_3   0.224246 0.331298 0.883660 0.036141
H21   H     H_    0.175449 0.372189 0.794817 0.180690
H22   H     H_    0.199564 0.386351 0.978310 0.093028
C35   C     C_3   0.174666 0.198129 0.901774 -0.321320
H23   H     H_    0.208062 0.140004 0.813800 0.227408
H24   H     H_    0.212164 0.161727 0.000308 0.213100
C36   C     C_3   0.031230 0.189298 0.906229 -0.980636
H25   H     H_    0.995429 0.251709 0.988680 0.258317
H26   H     H_    0.998721 0.092976 0.928746 0.261066
H27   H     H_    0.992117 0.215355 0.804209 0.253159
O11   O     O_3   0.920135 0.717912 0.411031 -0.643795
C37   C     C_3   0.019900 0.808214 0.402039 0.041273
H28   H     H_    0.014247 0.852882 0.299004 0.152149
H29   H     H_    0.115932 0.770760 0.406600 0.131977
C38   C     C_3   0.004871 0.905652 0.517285 -0.352163
H30   H     H_    0.912964 0.949180 0.505947 0.227089
H31   H     H_    0.005006 0.861207 0.620870 0.201675
C39   C     C_3   0.110624 0.005188 0.511815 -0.933275
H32   H     H_    0.203321 0.963922 0.526059 0.264641
H33   H     H_    0.096934 0.073663 0.596895 0.252647
H34   H     H_    0.110005 0.053362 0.410303 0.261784
H35   H     H_    0.081098 0.536279 0.262308 0.138523
O12   O     O_3   0.561353 0.146185 0.006008 -0.615380
C40   C     C_3   0.688768 0.170483 0.041348 0.047526
H36   H     H_    0.691127 0.249315 0.116765 0.192804
H37   H     H_    0.747716 0.201392 0.950941 0.111579
C41   C     C_3   0.743611 0.057449 0.109116 -0.360815
H38   H     H_    0.666774 0.995967 0.151560 0.243870
H39   H     H_    0.794504 0.004947 0.028030 0.193442
C42   C     C_3   0.833333 0.092824 0.227799 -0.926219
H40   H     H_    0.912965 0.152778 0.189796 0.253296
H41   H     H_    0.871265 0.008124 0.270629 0.257981
H42   H     H_    0.782631 0.141002 0.312735 0.259249

loop_
_geom_bond_atom_site_label_1
_geom_bond_atom_site_label_2
_ccdc_geom_bond_type
C8    C9    A    
C31   H12   S    
C16   C21   A    
C19   C20   A    
C1    C11   S    
Cu1   O7    S    
C12   O3    A    
C12   O4    A    
C7    C8    A    
C39   H32   S    
C27   H1    S    
C25   C28   S    
C26   C27   S    
C36   H26   S    
C24   N2    A    
C28   C29   S    
C25   O8    A    
C5    C6    A    
C1    O1    A    
C40   H37   S    
C32   H15   S    
C19   H20   S    
C18   C19   A    
C33   H17   S    
C24   O10   S    
C34   H21   S    
C22   N1    A    
C16   C17   A    
C36   H27   S    
C30   H9    S    
C4    C12   S    
C9    C10   A    
C20   N2    A    
C16   H5    S    
C32   C33   S    
C15   C23   S    
C5    H11   S    
C13   C14   A    
C41   H38   S    
C13   H10   S    
C42   H41   S    
C42   H40   S    
C39   H33   S    
C36   H25   S    
O10   C34   S    
C8    O9    S    
C14   H3    S    
C37   H29   S    
O11   C37   S    
C1    O2    A    
C23   O5    A    
C41   C42   S    
C32   H14   S    
C6    O12   S    
Cu1   O1    S    
C18   H19   S    
C33   H18   S    
Cu2   O6    S    
C29   C30   S    
C2    O11   S    
C35   C36   S    
C21   N1    A    
C23   O6    A    
Cu1   Cu2   S    
C17   C18   A    
Cu2   N1    S    
C41   H39   S    
C38   H31   S    
Cu1   O3    S    
C31   H13   S    
C7    H2    S    
C22   C24   A    
Cu1   O5    S    
C3    C4    S    
Cu2   O8    S    
C40   H36   S    
C42   H42   S    
C35   H24   S    
C39   H34   S    
O9    C31   S    
C37   C38   S    
C4    C26   S    
C6    C7    A    
C38   C39   S    
C22   H4    S    
C2    C30   S    
C3    H35   S    
C3    C27   S    
C2    C3    S    
C9    C15   A    
C25   O7    A    
C35   H23   S    
C40   C41   S    
C11   C13   A    
O12   C40   S    
C34   C35   S    
C29   H8    S    
Cu2   O2    S    
C17   H6    S    
C33   H16   S    
C26   H7    S    
Cu2   O4    S    
C10   C11   A    
C37   H28   S    
C5    C10   A    
C20   C21   A    
C26   C29   S    
C34   H22   S    
C38   H30   S    
Cu1   N2    S    
C31   C32   S    
C27   C28   S    
C14   C15   A    
C2    C28   S    
C4    C30   S    
