data_mof_unit_55543.cif
_audit_creation_date              2012-12-11T14:38:18-0500
_audit_creation_method            fapswitch 2.2
_symmetry_space_group_name_H-M    P1
_symmetry_Int_Tables_number       1
_space_group_crystal_system       triclinic
_cell_length_a                    19.567191
_cell_length_b                    11.116294
_cell_length_c                    19.602401
_cell_angle_alpha                 90.044471
_cell_angle_beta                  96.610824
_cell_angle_gamma                 90.181836
_cell_volume                      4235.43530444

loop_
_atom_site_label
_atom_site_type_symbol
_atom_type_description
_atom_site_fract_x
_atom_site_fract_y
_atom_site_fract_z
_atom_type_partial_charge
C1    C     C_R   0.708453 0.991807 0.367291 0.535127
C2    C     C_R   0.274929 0.950610 0.640747 0.546746
C3    C     C_R   0.225124 0.450565 0.359236 0.548189
C4    C     C_R   0.775435 0.452197 0.640245 0.546169
C5    C     C_3   0.676714 0.406692 0.463555 0.155796
C6    C     C_3   0.333507 0.379517 0.529879 0.143008
C7    C     C_3   0.167413 0.880516 0.469451 0.141906
C8    C     C_3   0.823136 0.888743 0.528848 0.133785
C9    C     C_3   0.814438 0.507022 0.530103 -0.231854
C10   C     C_3   0.188577 0.474063 0.474259 -0.253261
C11   C     C_3   0.312058 0.974940 0.526006 -0.252240
C12   C     C_3   0.686616 0.020090 0.490116 -0.273838
C13   C     C_3   0.784011 0.290529 0.552062 -0.077338
C14   C     C_3   0.227830 0.270815 0.438650 -0.079293
C15   C     C_3   0.272560 0.771038 0.560948 -0.080109
C16   C     C_3   0.695768 0.810884 0.445208 -0.040007
C17   C     C_3   0.765564 0.423233 0.567664 0.013236
C18   C     C_3   0.239515 0.408448 0.429926 0.013158
C19   C     C_3   0.260854 0.908600 0.569965 0.013714
C20   C     C_3   0.722805 0.943826 0.438120 -0.004674
C21   C     C_3   0.748036 0.390772 0.435630 0.052079
C22   C     C_3   0.263879 0.351980 0.559524 0.048952
C23   C     C_3   0.236865 0.852643 0.440277 0.050480
C24   C     C_3   0.756584 0.866443 0.562658 0.056860
C25   C     C_3   0.793742 0.502347 0.451690 -0.264626
C26   C     C_3   0.216365 0.463196 0.550398 -0.242482
C27   C     C_3   0.284911 0.963613 0.449656 -0.241951
C28   C     C_3   0.714023 0.983637 0.563943 -0.207858
C29   C     C_3   0.787755 0.283464 0.474676 -0.269981
C30   C     C_3   0.224792 0.249604 0.516271 -0.288724
C31   C     C_3   0.275416 0.750148 0.483293 -0.288773
C32   C     C_3   0.709850 0.773494 0.519976 -0.283450
C33   C     C_3   0.438693 0.295233 0.971527 -0.316500
C34   C     C_3   0.477030 0.300668 0.043539 -0.296640
C35   C     C_3   0.022914 0.801115 0.956683 -0.297064
C36   C     C_3   0.061279 0.795737 0.028665 -0.316045
C37   C     C_3   0.419946 0.070143 0.974360 0.180980
C38   C     C_3   0.557538 0.120945 0.024705 0.167964
C39   C     C_3   0.942395 0.620436 0.975160 0.168449
C40   C     C_3   0.079991 0.570852 0.025399 0.180531
C41   C     C_3   0.536174 0.159465 0.949302 -0.159021
C42   C     C_3   0.436867 0.088896 0.054737 -0.177758
C43   C     C_3   0.063062 0.589815 0.945062 -0.177673
C44   C     C_3   0.963790 0.658797 0.050658 -0.159473
C45   C     C_R   0.535946 0.180064 0.338480 0.528958
C46   C     C_R   0.464192 0.180101 0.661621 0.535068
C47   C     C_R   0.035800 0.679980 0.338372 0.535001
C48   C     C_R   0.963996 0.680126 0.661486 0.527322
C49   C     C_3   0.456668 0.175003 0.937323 0.056173
C50   C     C_3   0.500997 0.171789 0.068162 0.055108
C51   C     C_3   0.998952 0.672108 0.931812 0.055296
C52   C     C_3   0.043292 0.675129 0.062649 0.056377
C53   C     C_1   0.752106 0.407738 0.897912 -0.017149
C54   C     C_1   0.241388 0.424151 0.097262 -0.019546
C55   C     C_1   0.258530 0.924205 0.902713 -0.019941
C56   C     C_1   0.747815 0.907571 0.102104 -0.019789
C57   C     C_1   0.727749 0.355052 0.023640 -0.079962
C58   C     C_1   0.256344 0.404807 0.967002 -0.084555
C59   C     C_1   0.243786 0.904655 0.033025 -0.084713
C60   C     C_1   0.772273 0.855032 0.976398 -0.079398
C61   C     C_1   0.736822 0.380328 0.954074 -0.064831
C62   C     C_1   0.251578 0.413242 0.038141 -0.073256
C63   C     C_1   0.248409 0.913206 0.961855 -0.073626
C64   C     C_1   0.763121 0.880229 0.045950 -0.065102
C65   C     C_1   0.724870 0.335419 0.084066 -0.034505
C66   C     C_1   0.258540 0.391042 0.906333 -0.032264
C67   C     C_1   0.241615 0.890801 0.093691 -0.032097
C68   C     C_1   0.775190 0.835393 0.915973 -0.035384
C69   C     C_R   0.739296 0.361143 0.361916 0.570507
C70   C     C_R   0.274365 0.314482 0.632236 0.574628
C71   C     C_R   0.225840 0.815027 0.367672 0.574998
C72   C     C_R   0.772737 0.818816 0.631948 0.562839
C73   C     C_R   0.723608 0.951414 0.164452 0.551862
C74   C     C_R   0.277040 0.953084 0.836053 0.538248
C75   C     C_R   0.222953 0.452955 0.163941 0.539431
C76   C     C_R   0.776392 0.451569 0.835563 0.547229
C77   C     C_R   0.530897 0.178889 0.141090 0.526506
C78   C     C_R   0.435983 0.182428 0.862431 0.547525
C79   C     C_R   0.063966 0.682555 0.137553 0.548064
C80   C     C_R   0.969074 0.679106 0.858908 0.525309
C81   C     C_R   0.721957 0.310035 0.156030 0.558632
C82   C     C_R   0.264265 0.358178 0.836587 0.549196
C83   C     C_R   0.235757 0.857907 0.163404 0.548928
C84   C     C_R   0.778044 0.809918 0.844004 0.559748
C85   C     C_1   0.486033 0.171116 0.594671 -0.020126
C86   C     C_1   0.514570 0.171338 0.405628 -0.023464
C87   C     C_1   0.985355 0.671169 0.594338 -0.023270
C88   C     C_1   0.013983 0.670903 0.405328 -0.024812
C89   C     C_1   0.504562 0.166667 0.464984 -0.075778
C90   C     C_1   0.496345 0.166433 0.535399 -0.072325
C91   C     C_1   0.003686 0.666095 0.464600 -0.080066
C92   C     C_1   0.995417 0.666246 0.535004 -0.078298
C93   C     C_3   0.688766 0.441287 0.539872 -0.232245
C94   C     C_3   0.316429 0.431973 0.456822 -0.231472
C95   C     C_3   0.184038 0.931441 0.542924 -0.230940
C96   C     C_3   0.802606 0.941336 0.457276 -0.217230
Cr1   Cr    Cr6+3 0.765780 0.160710 0.267420 0.998973
Cr2   Cr    Cr6+3 0.234220 0.160710 0.732580 0.995743
Cr3   Cr    Cr6+3 0.265780 0.660710 0.267420 0.996305
Cr4   Cr    Cr6+3 0.734220 0.660710 0.732580 0.998715
Cr5   Cr    Cr6+3 0.612200 0.009560 0.248850 1.063050
Cr6   Cr    Cr6+3 0.387800 0.009560 0.751150 1.053647
Cr7   Cr    Cr6+3 0.112200 0.509560 0.248850 1.051115
Cr8   Cr    Cr6+3 0.887800 0.509560 0.751150 1.050273
Cr9   Cr    Cr6+3 0.616030 0.323720 0.248510 1.028749
Cr10  Cr    Cr6+3 0.383970 0.323720 0.751490 1.046387
Cr11  Cr    Cr6+3 0.116030 0.823720 0.248510 1.044401
Cr12  Cr    Cr6+3 0.883970 0.823720 0.751490 1.048434
H1    H     H_    0.672133 0.534694 0.547620 0.154019
H2    H     H_    0.328815 0.528652 0.456271 0.148011
H3    H     H_    0.171329 0.027790 0.544367 0.148391
H4    H     H_    0.824413 0.032519 0.454066 0.149322
H5    H     H_    0.842427 0.286478 0.463811 0.183662
H6    H     H_    0.170338 0.246158 0.527737 0.173117
H7    H     H_    0.329838 0.746725 0.471756 0.172099
H8    H     H_    0.660740 0.762311 0.542944 0.189835
H9    H     H_    0.868064 0.474053 0.540069 0.197560
H10   H     H_    0.137837 0.428607 0.467633 0.201184
H11   H     H_    0.362847 0.930263 0.533040 0.201849
H12   H     H_    0.630602 0.003336 0.482452 0.194111
H13   H     H_    0.840865 0.497835 0.424914 0.123997
H14   H     H_    0.172332 0.458116 0.581505 0.146726
H15   H     H_    0.329246 0.957745 0.419003 0.144672
H16   H     H_    0.669470 0.972095 0.593929 0.149852
H17   H     H_    0.382468 0.299395 0.974278 0.120753
H18   H     H_    0.522597 0.360958 0.043117 0.144899
H19   H     H_    0.977349 0.860857 0.957249 0.144320
H20   H     H_    0.117482 0.800473 0.025869 0.120934
H21   H     H_    0.453048 0.376775 0.943527 0.165039
H22   H     H_    0.442434 0.340906 0.078672 0.150625
H23   H     H_    0.057501 0.841902 0.921628 0.150547
H24   H     H_    0.047005 0.877070 0.056819 0.165302
H25   H     H_    0.363442 0.078251 0.960537 0.086662
H26   H     H_    0.608788 0.161045 0.042389 0.085534
H27   H     H_    0.891164 0.660115 0.957595 0.085374
H28   H     H_    0.136515 0.579453 0.039250 0.086700
H29   H     H_    0.392079 0.132337 0.074886 0.063557
H30   H     H_    0.561286 0.247488 0.940918 0.088372
H31   H     H_    0.938719 0.746513 0.059264 0.088422
H32   H     H_    0.107868 0.633837 0.925024 0.063333
H33   H     H_    0.555708 0.101154 0.910384 0.130274
H34   H     H_    0.445264 0.004721 0.084509 0.146420
H35   H     H_    0.054648 0.505689 0.915086 0.145865
H36   H     H_    0.944240 0.600102 0.089449 0.129507
H37   H     H_    0.655409 0.383955 0.568972 0.067557
H38   H     H_    0.350419 0.388813 0.422133 0.074662
H39   H     H_    0.149928 0.886737 0.577034 0.073622
H40   H     H_    0.826823 0.885580 0.419417 0.090970
H41   H     H_    0.651061 0.316795 0.458389 0.098376
H42   H     H_    0.360616 0.291908 0.526853 0.091582
H43   H     H_    0.139475 0.793186 0.471438 0.091393
H44   H     H_    0.848518 0.799859 0.524189 0.080502
H45   H     H_    0.329093 0.066154 0.542435 0.086766
H46   H     H_    0.686799 0.117153 0.482944 0.064472
H47   H     H_    0.820561 0.598811 0.551262 0.082277
H48   H     H_    0.171217 0.564943 0.458005 0.087697
H49   H     H_    0.254862 0.041838 0.432119 0.187202
H50   H     H_    0.746827 0.053323 0.590314 0.196683
H51   H     H_    0.765556 0.582720 0.432917 0.148390
H52   H     H_    0.247051 0.541373 0.567411 0.187048
H53   H     H_    0.740386 0.235854 0.565393 0.075795
H54   H     H_    0.274030 0.225743 0.422634 0.077399
H55   H     H_    0.226431 0.725204 0.576955 0.077829
H56   H     H_    0.726743 0.755423 0.413428 0.118384
H57   H     H_    0.769778 0.197179 0.453653 0.111071
H58   H     H_    0.244606 0.163719 0.531834 0.090509
H59   H     H_    0.255250 0.664381 0.467387 0.089971
H60   H     H_    0.732178 0.685477 0.521746 0.086100
O1    O     O_R   0.783100 0.287550 0.345460 -0.548804
O2    O     O_R   0.216900 0.287550 0.654540 -0.538738
O3    O     O_R   0.283100 0.787550 0.345460 -0.540293
O4    O     O_R   0.716900 0.787550 0.654540 -0.541821
O5    O     O_R   0.554710 0.081900 0.170950 -0.470296
O6    O     O_R   0.445290 0.081900 0.829050 -0.462001
O7    O     O_R   0.054710 0.581900 0.170950 -0.462779
O8    O     O_R   0.945290 0.581900 0.829050 -0.470255
O9    O     O_R   0.545650 0.284910 0.163740 -0.544274
O10   O     O_R   0.454350 0.284910 0.836260 -0.536909
O11   O     O_R   0.045650 0.784910 0.163740 -0.536870
O12   O     O_R   0.954350 0.784910 0.836260 -0.545042
O13   O     O_R   0.677950 0.374280 0.185410 -0.486330
O14   O     O_R   0.322050 0.374280 0.814590 -0.504277
O15   O     O_R   0.177950 0.874280 0.185410 -0.504329
O16   O     O_R   0.822050 0.874280 0.814590 -0.479897
O17   O     O_3   0.664670 0.164660 0.254930 -0.303015
O18   O     O_3   0.335330 0.164660 0.745070 -0.311557
O19   O     O_3   0.164670 0.664660 0.254930 -0.310884
O20   O     O_3   0.835330 0.664660 0.745070 -0.306727
O21   O     O_R   0.760020 0.037400 0.337700 -0.519504
O22   O     O_R   0.239980 0.037400 0.662300 -0.534570
O23   O     O_R   0.260020 0.537400 0.337700 -0.534515
O24   O     O_R   0.739980 0.537400 0.662300 -0.534152
O25   O     O_R   0.666600 0.921990 0.332020 -0.473286
O26   O     O_R   0.333400 0.921990 0.667980 -0.479245
O27   O     O_R   0.166600 0.421990 0.332020 -0.479711
O28   O     O_R   0.833400 0.421990 0.667980 -0.476838
O29   O     O_R   0.557260 0.082670 0.312540 -0.498497
O30   O     O_R   0.442740 0.082670 0.687460 -0.490619
O31   O     O_R   0.057260 0.582670 0.312540 -0.492066
O32   O     O_R   0.942740 0.582670 0.687460 -0.494752
O33   O     O_R   0.548410 0.285740 0.316480 -0.522013
O34   O     O_R   0.451590 0.285740 0.683520 -0.506292
O35   O     O_R   0.048410 0.785740 0.316480 -0.508070
O36   O     O_R   0.951590 0.785740 0.683520 -0.513583
O37   O     O_R   0.680500 0.375040 0.327000 -0.439378
O38   O     O_R   0.319500 0.375040 0.673000 -0.402168
O39   O     O_R   0.180500 0.875040 0.327000 -0.401307
O40   O     O_R   0.819500 0.875040 0.673000 -0.409907
O41   O     O_R   0.780350 0.286720 0.192720 -0.505947
O42   O     O_R   0.219650 0.286720 0.807280 -0.507709
O43   O     O_R   0.280350 0.786720 0.192720 -0.506794
O44   O     O_R   0.719650 0.786720 0.807280 -0.500913
O45   O     O_R   0.757470 0.036630 0.196110 -0.509805
O46   O     O_R   0.242530 0.036630 0.803890 -0.503903
O47   O     O_R   0.257470 0.536630 0.196110 -0.503451
O48   O     O_R   0.742530 0.536630 0.803890 -0.515031
O49   O     O_R   0.663840 0.921160 0.179280 -0.485323
O50   O     O_R   0.336160 0.921160 0.820720 -0.490310
O51   O     O_R   0.163840 0.421160 0.179280 -0.490901
O52   O     O_R   0.836160 0.421160 0.820720 -0.486925
O53   O     O_3   0.560594 0.993296 0.035069 -0.526953
C97   C     C_3   0.598885 0.929913 0.989861 0.015723
H61   H     H_    0.649107 0.974386 0.986400 0.124090
H62   H     H_    0.570332 0.922490 0.937868 0.175540
C98   C     C_3   0.608075 0.799554 0.013860 -0.354720
H63   H     H_    0.558800 0.749752 0.005407 0.127909
H64   H     H_    0.644675 0.752666 0.983856 0.114793
H65   H     H_    0.626659 0.794740 0.069250 0.190057
O54   O     O_3   0.442036 0.957189 0.949970 -0.511583
C99   C     C_3   0.421074 0.856699 0.987011 0.006242
H66   H     H_    0.372527 0.871512 0.009114 0.121750
H67   H     H_    0.460784 0.836465 0.030352 0.166702
C100  C     C_3   0.414106 0.745596 0.941148 -0.356796
H68   H     H_    0.460297 0.735549 0.913618 0.158529
H69   H     H_    0.408818 0.664183 0.972983 0.090988
H70   H     H_    0.367818 0.751794 0.903176 0.179866
O55   O     O_3   0.057855 0.457587 0.049554 -0.512509
C101  C     C_3   0.078657 0.357462 0.012231 0.005919
H71   H     H_    0.127239 0.372789 0.990189 0.121806
H72   H     H_    0.038910 0.337155 0.968840 0.166655
C102  C     C_3   0.085415 0.246162 0.057785 -0.357292
H73   H     H_    0.090630 0.164974 0.025746 0.091040
H74   H     H_    0.131646 0.252514 0.095837 0.179773
H75   H     H_    0.039175 0.235604 0.085215 0.158029
O56   O     O_3   0.939221 0.492795 0.964454 -0.526369
C103  C     C_3   0.901249 0.428749 0.009806 0.015520
H76   H     H_    0.851237 0.472940 0.013962 0.123841
H77   H     H_    0.930243 0.421077 0.061566 0.175899
C104  C     C_3   0.891520 0.298540 0.985371 -0.354797
H78   H     H_    0.940685 0.248859 0.993299 0.127550
H79   H     H_    0.854982 0.251345 0.015469 0.114642
H80   H     H_    0.872556 0.294051 0.930051 0.191005
O57   O     O_3   0.635248 0.494102 0.425469 -0.515250
C105  C     C_3   0.566792 0.491619 0.443085 0.021342
H81   H     H_    0.561853 0.561537 0.482594 0.132699
H82   H     H_    0.552489 0.403993 0.464692 0.094306
C106  C     C_3   0.514725 0.518424 0.380614 -0.289295
H83   H     H_    0.539160 0.514482 0.332283 0.227202
H84   H     H_    0.471722 0.452400 0.377394 0.086908
H85   H     H_    0.492099 0.609046 0.385064 0.116387
O58   O     O_3   0.375616 0.460180 0.572745 -0.499613
C107  C     C_3   0.440335 0.479092 0.548423 0.009724
H86   H     H_    0.436941 0.559824 0.514860 0.147085
H87   H     H_    0.456384 0.402375 0.517806 0.093281
C108  C     C_3   0.496210 0.501568 0.608345 -0.329565
H88   H     H_    0.529207 0.420946 0.617782 0.127934
H89   H     H_    0.473355 0.523861 0.656068 0.203633
H90   H     H_    0.529901 0.577389 0.596348 0.084213
O59   O     O_3   0.126871 0.962753 0.426609 -0.501357
C109  C     C_3   0.061649 0.981129 0.449368 0.010695
H91   H     H_    0.064641 0.062056 0.482727 0.153794
H92   H     H_    0.045340 0.904073 0.479428 0.095556
C110  C     C_3   0.006740 0.003099 0.388614 -0.327398
H93   H     H_    0.030455 0.022631 0.340990 0.206306
H94   H     H_    0.972536 0.923452 0.379783 0.126923
H95   H     H_    0.973933 0.080541 0.399454 0.081906
O60   O     O_3   0.867701 0.968233 0.569962 -0.502195
C111  C     C_3   0.932582 0.979384 0.545424 0.011867
H96   H     H_    0.931030 0.056852 0.509647 0.144121
H97   H     H_    0.946451 0.897834 0.517650 0.097663
C112  C     C_3   0.988676 0.004479 0.604811 -0.321559
H98   H     H_    0.021066 0.923700 0.616138 0.126784
H99   H     H_    0.966132 0.031865 0.651898 0.215185
H100  H     H_    0.023224 0.077655 0.590989 0.071360
C113  C     C_2   0.849651 0.240473 0.591083 0.617135
O61   O     O_2   0.845859 0.173951 0.640161 -0.484211
O62   O     O_R   0.914192 0.278301 0.575104 -0.726525
H101  H     H_    0.953175 0.250114 0.609791 0.331606
C114  C     C_2   0.165122 0.217801 0.395914 0.622270
O63   O     O_2   0.172826 0.153065 0.346909 -0.486176
O64   O     O_R   0.098859 0.250499 0.408701 -0.716199
H102  H     H_    0.062492 0.226015 0.370235 0.332350
C115  C     C_2   0.335501 0.718348 0.603223 0.619944
O65   O     O_2   0.328085 0.653823 0.652370 -0.486467
O66   O     O_R   0.401707 0.750251 0.589470 -0.714491
H103  H     H_    0.438495 0.724226 0.627043 0.334842
C116  C     C_2   0.620067 0.784496 0.420164 0.612238
O67   O     O_2   0.606004 0.725439 0.367772 -0.483288
O68   O     O_R   0.567023 0.826527 0.456010 -0.739765
H104  H     H_    0.519619 0.805107 0.432716 0.329624

loop_
_geom_bond_atom_site_label_1
_geom_bond_atom_site_label_2
_ccdc_geom_bond_type
C81   O41   A    
C94   H38   S    
C116  O68   S    
O64   H102  S    
Cr2   O22   S    
Cr3   O19   S    
C36   H20   S    
C112  H100  S    
Cr1   O17   S    
Cr6   O18   S    
C72   O4    A    
C15   H55   S    
Cr4   O20   S    
C46   O30   A    
C98   H65   S    
C5    H41   S    
C49   C78   S    
C11   H45   S    
C37   C42   S    
C51   C80   S    
C105  H82   S    
C55   C74   S    
C40   C43   S    
C6    C94   S    
C25   H51   S    
C26   H52   S    
Cr11  O39   S    
C71   O39   A    
Cr2   O46   S    
O56   C103  S    
C74   O46   A    
C42   H29   S    
Cr6   O26   S    
C41   C49   S    
C101  H72   S    
C104  H79   S    
Cr12  O16   S    
Cr7   O19   S    
Cr10  O18   S    
C12   H46   S    
C21   C29   S    
C3    O27   A    
C23   C31   S    
C1    O25   A    
C24   C32   S    
O54   C99   S    
C66   C82   S    
C11   C27   S    
C16   C20   S    
C12   C20   S    
C28   H50   S    
C48   C87   S    
C83   O15   A    
C32   H8    S    
C35   H19   S    
C30   H58   S    
C41   H30   S    
C13   C113  S    
C48   O32   A    
C44   H31   S    
C32   H60   S    
C35   C51   S    
C109  H92   S    
C50   C77   S    
C4    O28   A    
C29   H5    S    
Cr4   O48   S    
C1    C20   S    
C56   C73   S    
Cr11  O11   S    
C2    C19   S    
Cr12  O20   S    
C2    O22   A    
Cr9   O9    S    
Cr10  O38   S    
C85   C90   T    
C57   C61   S    
C59   C63   S    
C105  C106  S    
C60   C64   S    
C113  O62   S    
C10   C18   S    
C75   O47   A    
C38   H26   S    
C5    C21   S    
C102  H74   S    
C25   H13   S    
C39   C51   S    
C67   C83   S    
Cr4   O4    S    
Cr5   O5    S    
Cr12  O40   S    
C110  H95   S    
C8    O60   S    
C72   O40   A    
Cr3   O43   S    
C16   H56   S    
C37   O54   S    
C104  H78   S    
O53   C97   S    
Cr1   O41   S    
C38   O53   S    
C8    H44   S    
C36   H24   S    
O58   C107  S    
Cr5   O29   S    
C45   O29   A    
C102  H73   S    
C5    O57   S    
C16   C32   S    
C59   C67   T    
C53   C61   T    
C55   C63   T    
C56   C64   T    
C52   C79   S    
C100  H68   S    
C36   C52   S    
C44   C52   S    
Cr1   O21   S    
C20   C96   S    
O55   C101  S    
Cr8   O32   S    
C47   O31   A    
Cr4   O24   S    
Cr5   O17   S    
C31   H7    S    
C33   C34   S    
Cr8   O20   S    
C84   O16   A    
C95   H39   S    
C38   C41   S    
C91   C92   S    
C112  H99   S    
C97   C98   S    
C77   O9    A    
C21   C69   S    
Cr11  O35   S    
C115  O65   D    
Cr9   O33   S    
C88   C91   T    
C74   O50   A    
C114  O63   D    
C43   H32   S    
C69   O1    A    
C97   H62   S    
C108  H89   S    
C42   C50   S    
C71   O3    A    
C17   C93   S    
C19   C95   S    
C24   C72   S    
C21   C25   S    
C103  H76   S    
C104  H80   S    
C22   C30   S    
C24   C28   S    
C28   H16   S    
C15   C31   S    
C39   C44   S    
C27   H49   S    
C82   O14   A    
C69   O37   A    
C13   C17   S    
C102  H75   S    
C45   C86   S    
C7    C23   S    
C110  H94   S    
C37   H25   S    
C100  H70   S    
Cr6   O50   S    
C54   C75   S    
Cr2   O2    S    
C9    H47   S    
C111  H96   S    
Cr9   O13   S    
C87   C92   T    
Cr10  O10   S    
C93   H1    S    
C82   O42   A    
C103  C104  S    
C1    O21   A    
C58   C62   S    
C4    O24   A    
C43   H35   S    
C35   C36   S    
C107  C108  S    
C9    C25   S    
C39   H27   S    
C15   C19   S    
C40   H28   S    
C101  C102  S    
C11   C19   S    
C12   C28   S    
C13   C29   S    
C33   C49   S    
C6    C22   S    
C29   H57   S    
C111  C112  S    
C46   C85   S    
Cr1   O45   S    
O59   C109  S    
C109  C110  S    
C73   O45   A    
Cr7   O27   S    
Cr5   O25   S    
C96   H40   S    
C68   C84   S    
C23   C71   S    
Cr8   O8    S    
O66   H103  S    
C54   C62   T    
C94   H2    S    
C2    O26   A    
C14   H54   S    
O68   H104  S    
C113  O61   D    
C37   C49   S    
C76   O48   A    
C65   C81   S    
O62   H101  S    
C34   H18   S    
C14   C114  S    
Cr7   O7    S    
Cr8   O28   S    
C47   O35   A    
C107  H86   S    
C7    H43   S    
C4    C17   S    
C53   C76   S    
C70   O38   A    
C35   H23   S    
C30   H6    S    
C33   H21   S    
C48   O36   A    
C101  H71   S    
C77   O5    A    
C78   O10   A    
C57   C65   T    
C86   C89   T    
C84   O44   A    
Cr9   O37   S    
C106  H85   S    
C70   O2    A    
Cr2   O18   S    
Cr3   O23   S    
C43   C51   S    
O57   C105  S    
C76   O52   A    
C96   H4    S    
C99   H66   S    
C6    H42   S    
C46   O34   A    
C60   C68   T    
Cr12  O36   S    
C22   C26   S    
C109  H91   S    
C26   H14   S    
C89   C90   S    
Cr7   O51   S    
C8    C24   S    
C9    H9    S    
C116  O67   D    
C14   C18   S    
C8    C96   S    
C81   O13   A    
C11   H11   S    
Cr2   O42   S    
C105  H81   S    
C99   C100  S    
C80   O12   A    
C106  H83   S    
Cr6   O30   S    
Cr3   O3    S    
Cr11  O19   S    
Cr1   O1    S    
Cr12  O12   S    
C3    C18   S    
Cr9   O17   S    
Cr8   O52   S    
C98   H64   S    
C12   H12   S    
C58   C66   T    
Cr10  O14   S    
C42   H34   S    
C93   H37   S    
C75   O51   A    
C108  H88   S    
C10   C26   S    
C39   O56   S    
C14   C30   S    
C33   H17   S    
C103  H77   S    
C34   C50   S    
C79   O7    A    
C7    O59   S    
C80   O8    A    
C10   H48   S    
C27   H15   S    
C107  H87   S    
C112  H98   S    
C40   C52   S    
C16   C116  S    
Cr4   O44   S    
Cr11  O15   S    
C106  H84   S    
C99   H67   S    
C41   H33   S    
C40   O55   S    
C10   H10   S    
C3    O23   A    
Cr10  O34   S    
C44   H36   S    
C98   H63   S    
C73   O49   A    
Cr7   O31   S    
C100  H69   S    
C9    C17   S    
C23   C27   S    
C18   C94   S    
C111  H97   S    
C15   C115  S    
C31   H59   S    
C5    C93   S    
C13   H53   S    
C38   C50   S    
Cr6   O6    S    
C7    C95   S    
C47   C88   S    
C115  O66   S    
C95   H3    S    
Cr3   O47   S    
C114  O64   S    
C22   C70   S    
C6    O58   S    
C79   O11   A    
C97   H61   S    
C108  H90   S    
Cr5   O49   S    
C34   H22   S    
C45   O33   A    
C78   O6    A    
O60   C111  S    
C83   O43   A    
C110  H93   S    
