data_mof_unit_45124.cif
_audit_creation_date              2012-12-10T20:36:42-0500
_audit_creation_method            fapswitch 2.2
_symmetry_space_group_name_H-M    P1
_symmetry_Int_Tables_number       1
_space_group_crystal_system       triclinic
_cell_length_a                    10.507137
_cell_length_b                    10.661783
_cell_length_c                    9.88684
_cell_angle_alpha                 89.945958
_cell_angle_beta                  89.504698
_cell_angle_gamma                 90.408421
_cell_volume                      1107.50133702

loop_
_atom_site_label
_atom_site_type_symbol
_atom_type_description
_atom_site_fract_x
_atom_site_fract_y
_atom_site_fract_z
_atom_type_partial_charge
C1    C     C_R   0.500216 0.260489 0.499809 0.923337
C2    C     C_3   0.961306 0.487311 0.370625 -0.188330
C3    C     C_3   0.042648 0.390324 0.447340 -0.260420
C4    C     C_3   0.122654 0.499724 0.501563 -0.034233
C5    C     C_R   0.589476 0.063070 0.570915 0.089524
C6    C     C_R   0.500845 0.128794 0.496443 -0.187953
C7    C     C_R   0.419163 0.066686 0.407515 -0.233828
C8    C     C_R   0.411759 0.937077 0.409707 0.443217
C9    C     C_R   0.493349 0.871468 0.498069 -0.248379
C10   C     C_R   0.586271 0.934970 0.570985 0.074219
C11   C     C_3   0.618572 0.928068 0.718058 -0.014511
C12   C     C_R   0.257460 0.499976 0.500560 0.858537
C13   C     C_3   0.622973 0.070737 0.717190 -0.435883
C14   C     C_R   0.398682 0.452164 0.072455 0.183224
C15   C     C_R   0.594955 0.556700 0.070955 -0.112914
C16   C     C_R   0.595109 0.556431 0.927225 -0.122969
C17   C     C_R   0.398227 0.452295 0.929843 0.213837
C18   C     C_3   0.350152 0.319668 0.927378 -0.059032
C19   C     C_3   0.349755 0.321093 0.081334 -0.504859
C20   C     C_R   0.496211 0.739449 0.499881 0.872042
C21   C     C_R   0.742582 0.499867 0.499328 0.910312
C22   C     C_3   0.039380 0.512742 0.628931 -0.213052
C23   C     C_3   0.957664 0.405819 0.572712 0.482901
C24   C     C_3   0.877526 0.500166 0.497573 -0.001969
C25   C     C_3   0.958268 0.608988 0.551158 -0.250792
C26   C     C_3   0.044413 0.596359 0.424392 -0.142659
H1    H     H_    0.546366 0.112565 0.779736 0.174218
H2    H     H_    0.719075 0.112479 0.732474 0.241348
H3    H     H_    0.672931 0.600580 0.124227 0.148154
H4    H     H_    0.673463 0.599593 0.872689 0.152412
H5    H     H_    0.420276 0.253671 0.883693 0.177259
H6    H     H_    0.253680 0.316727 0.129348 0.210124
H7    H     H_    0.420214 0.255853 0.125615 0.201409
H8    H     H_    0.073917 0.522814 0.734078 0.154906
H9    H     H_    0.921017 0.698541 0.591454 0.152118
H10   H     H_    0.084803 0.674802 0.363455 0.153236
H11   H     H_    0.925736 0.477744 0.265683 0.157410
H12   H     H_    0.081289 0.300944 0.407309 0.141498
H13   H     H_    0.354424 0.118856 0.344158 0.170609
H14   H     H_    0.540057 0.888417 0.781542 0.185064
N1    N     N_R   0.499140 0.499140 0.142800 -0.106675
N2    N     N_R   0.499140 0.499180 0.857150 -0.123804
O1    O     O_R   0.500020 0.316790 0.614690 -0.616246
O2    O     O_R   0.500000 0.316760 0.385350 -0.624060
O3    O     O_R   0.313960 0.499990 0.614650 -0.628282
O4    O     O_R   0.313940 0.499950 0.385310 -0.620747
O5    O     O_R   0.500000 0.683240 0.614650 -0.621974
O6    O     O_R   0.499980 0.683210 0.385310 -0.602535
O7    O     O_R   0.686060 0.500050 0.614690 -0.602416
O8    O     O_R   0.686040 0.500010 0.385350 -0.637918
Zn1   Zn    Zn3+2 0.500010 0.500020 0.653130 0.952137
Zn2   Zn    Zn3+2 0.499990 0.499980 0.346870 0.953367
O9    O     O_3   0.906067 0.307207 0.649209 -0.784965
H15   H     H_    0.980194 0.260176 0.683385 0.323682
C27   C     C_3   0.747431 0.866927 0.742587 -0.887494
H16   H     H_    0.822811 0.908444 0.676462 0.250620
H17   H     H_    0.774664 0.879758 0.849940 0.246008
H18   H     H_    0.740058 0.765093 0.721252 0.242935
C28   C     C_3   0.217423 0.306042 0.866731 -0.872604
H19   H     H_    0.223475 0.314346 0.755083 0.251636
H20   H     H_    0.177946 0.211900 0.891744 0.246540
H21   H     H_    0.151783 0.378506 0.907043 0.241010
O10   O     O_3   0.319453 0.880291 0.331627 -0.765107
H22   H     H_    0.299334 0.796219 0.368819 0.327758

loop_
_geom_bond_atom_site_label_1
_geom_bond_atom_site_label_2
_ccdc_geom_bond_type
C4    C26   S    
C23   C24   S    
C13   H2    S    
C23   O9    S    
C6    C7    A    
C12   O3    A    
O4    Zn2   S    
C4    C12   S    
C4    C22   S    
C9    C10   A    
N1    Zn2   S    
C5    C13   S    
C2    H11   S    
N2    Zn1   S    
C27   H16   S    
O2    Zn2   S    
C21   O7    A    
C17   C18   S    
C28   H19   S    
C2    C26   S    
O9    H15   S    
C11   C13   S    
C14   C17   A    
O1    Zn1   S    
C20   O6    A    
C25   H9    S    
C14   N1    A    
C5    C6    A    
C19   H6    S    
C26   H10   S    
C21   O8    A    
C15   H3    S    
C2    C3    S    
C27   H17   S    
C2    C24   S    
C11   H14   S    
C22   H8    S    
C9    C20   S    
C28   H20   S    
C20   O5    A    
C7    C8    A    
C10   C11   S    
O3    Zn1   S    
C8    O10   S    
C16   H4    S    
O10   H22   S    
C16   N2    A    
C18   C28   S    
O6    Zn2   S    
C11   C27   S    
C24   C25   S    
C15   N1    A    
C12   O4    A    
C18   C19   S    
C19   H7    S    
C21   C24   S    
O8    Zn2   S    
C27   H18   S    
C22   C23   S    
C13   H1    S    
C28   H21   S    
C7    H13   S    
C18   H5    S    
C1    O2    A    
C5    C10   A    
C25   C26   S    
C17   N2    A    
C3    C23   S    
C14   C19   S    
C1    O1    A    
C15   C16   A    
O5    Zn1   S    
C3    C4    S    
C1    C6    S    
C3    H12   S    
C8    C9    A    
O7    Zn1   S    
C22   C25   S    
