data_mof_unit_34897.cif
_audit_creation_date              2013-03-05T15:42:19-0500
_audit_creation_method            fapswitch 2.2
_symmetry_space_group_name_H-M    P1
_symmetry_Int_Tables_number       1
_space_group_crystal_system       triclinic
_cell_length_a                    7.748858
_cell_length_b                    8.697297
_cell_length_c                    19.06996
_cell_angle_alpha                 91.243811
_cell_angle_beta                  85.296466
_cell_angle_gamma                 93.717774
_cell_volume                      1278.00590651

loop_
_atom_site_label
_atom_site_type_symbol
_atom_site_description
_atom_site_fract_x
_atom_site_fract_y
_atom_site_fract_z
_atom_type_partial_charge
O1    O     O_R   0.389250 0.738570 0.504600 -0.585355
O2    O     O_R   0.610750 0.261430 0.495400 -0.587326
O3    O     O_R   0.678400 0.711620 0.492580 -0.582788
O4    O     O_R   0.321600 0.288380 0.507420 -0.584435
C1    C     C_R   0.545232 0.794021 0.497949 0.893580
C2    C     C_R   0.454749 0.205972 0.501824 0.888567
O5    O     O_R   0.355380 0.513500 0.607880 -0.615568
O6    O     O_R   0.644620 0.486500 0.392120 -0.616432
O7    O     O_R   0.644530 0.486550 0.595850 -0.629625
O8    O     O_R   0.355470 0.513450 0.404150 -0.627521
C3    C     C_R   0.501371 0.500887 0.634663 0.889344
C4    C     C_R   0.497945 0.494850 0.365404 0.891351
Zn1   Zn    Zn3+2 0.306930 0.517990 0.508030 1.047103
Zn2   Zn    Zn3+2 0.693070 0.482010 0.491970 1.045820
C5    C     C_R   0.359051 0.546846 0.753148 -0.226413
C6    C     C_R   0.630178 0.397194 0.252604 -0.225517
H1    H     H_    0.250602 0.591533 0.729434 0.201670
H2    H     H_    0.740776 0.366034 0.279255 0.204823
C7    C     C_R   0.355667 0.541207 0.826224 0.327024
C8    C     C_R   0.625005 0.362429 0.181147 0.322279
C9    C     C_R   0.497064 0.481193 0.856454 -0.049379
C10   C     C_R   0.480682 0.403907 0.146833 -0.044268
C11   C     C_R   0.642608 0.438155 0.813876 -0.118831
C12   C     C_R   0.339350 0.467148 0.185200 -0.114658
H3    H     H_    0.751679 0.392104 0.836609 0.203814
H4    H     H_    0.228655 0.500501 0.159201 0.205531
C13   C     C_R   0.646027 0.447870 0.741437 -0.149227
C14   C     C_R   0.344447 0.497735 0.256649 -0.152293
H5    H     H_    0.758373 0.410885 0.709473 0.184638
H6    H     H_    0.235269 0.549011 0.285188 0.182589
C15   C     C_R   0.502871 0.499238 0.710777 -0.099382
C16   C     C_R   0.491798 0.466674 0.290189 -0.098048
N1    N     N_R   0.639557 0.480984 0.965167 -0.102184
N2    N     N_R   0.341386 0.379578 0.036757 -0.101744
N3    N     N_R   0.636287 0.459000 0.033823 -0.093099
N4    N     N_R   0.344720 0.401352 0.967979 -0.091408
C17   C     C_R   0.487392 0.407908 0.070628 0.343003
C18   C     C_R   0.493210 0.454727 0.931455 0.334272
C19   C     C_2   0.569769 0.955645 0.495453 -0.022065
C20   C     C_2   0.430125 0.044323 0.503813 -0.020685
N5    N     N_2   0.950330 0.457950 0.481240 -0.144636
N6    N     N_2   0.049670 0.542050 0.518760 -0.144370
H7    H     H_    0.014205 0.382027 0.447822 0.223854
H8    H     H_    0.985794 0.617978 0.552173 0.224130
N7    N     N_R   0.212203 0.601568 0.868458 0.218784
O9    O     O_R   0.239653 0.686284 0.924027 -0.331523
O10   O     O_R   0.058008 0.592561 0.845698 -0.381912
N8    N     N_R   0.764433 0.283382 0.144729 0.220241
O11   O     O_R   0.732711 0.182079 0.095440 -0.330776
O12   O     O_R   0.919504 0.297523 0.166606 -0.378200
N9    N     N_R   0.746424 0.016429 0.483546 0.238741
O13   O     O_R   0.820978 0.021287 0.419899 -0.334945
O14   O     O_R   0.837156 0.050402 0.536842 -0.305116
N10   N     N_R   0.253400 0.983538 0.515432 0.239006
O15   O     O_R   0.177885 0.979664 0.578925 -0.338595
O16   O     O_R   0.163487 0.948870 0.461963 -0.301845

loop_
_geom_bond_atom_site_label_1
_geom_bond_atom_site_label_2
_geom_bond_distance
_ccdc_geom_bond_type
C19   N9    1.437095 S    
O7    Zn2   1.985867 S    
C7    N7    1.438961 S    
C5    C15   1.401420 A    
C7    C9    1.412830 A    
C11   C13   1.383798 A    
C6    C16   1.402810 A    
C13   H5    1.083366 S    
N2    C17   1.354523 A    
O7    C3    1.293541 A    
N5    N6    1.278318 D    
N2    N4    1.327178 A    
N1    C18   1.353163 A    
C6    C8    1.392640 A    
O6    C4    1.289923 A    
C14   H6    1.083361 S    
C3    C15   1.452876 S    
C6    H2    1.083388 S    
C8    N8    1.440414 S    
N7    O9    1.301462 A    
C4    C16   1.453983 S    
O5    C3    1.290712 A    
N8    O12   1.301493 A    
N5    H7    1.029329 S    
O2    C2    1.269484 A    
O3    Zn2   2.007293 S    
N6    H8    1.029312 S    
Zn2   N5    2.011201 S    
O1    C1    1.269453 A    
O8    C4    1.294284 A    
C10   C12   1.402309 A    
N4    C18   1.355696 A    
N8    O11   1.301556 A    
N1    N3    1.325207 A    
C8    C10   1.411240 A    
C20   N10   1.437121 S    
C11   H3    1.083603 S    
C9    C11   1.400968 A    
O2    Zn2   1.982808 S    
N10   O16   1.300736 A    
O1    Zn1   1.982808 S    
C13   C15   1.397847 A    
N9    O13   1.301060 A    
O3    C1    1.290078 A    
O5    Zn1   1.972452 S    
C2    C20   1.407398 S    
O4    C2    1.290011 A    
N7    O10   1.301376 A    
C19   C20   1.365923 D    
C5    H1    1.083549 S    
C1    C19   1.407534 S    
N10   O15   1.301018 A    
Zn1   N6    2.011201 S    
O6    Zn2   1.972454 S    
N3    C17   1.354811 A    
C5    C7    1.393511 A    
C10   C17   1.450980 S    
C14   C16   1.397516 A    
C9    C18   1.451171 S    
C12   C14   1.385846 A    
O4    Zn1   2.007293 S    
C12   H4    1.083501 S    
N9    O14   1.300692 A    
O8    Zn1   1.985871 S    
