data_mof_unit_56948.cif
_audit_creation_date              2012-12-11T16:09:04-0500
_audit_creation_method            fapswitch 2.2
_symmetry_space_group_name_H-M    P1
_symmetry_Int_Tables_number       1
_space_group_crystal_system       triclinic
_cell_length_a                    12.962704
_cell_length_b                    13.299674
_cell_length_c                    27.662283
_cell_angle_alpha                 94.667841
_cell_angle_beta                  90.365713
_cell_angle_gamma                 118.855645
_cell_volume                      4157.2956391

loop_
_atom_site_label
_atom_site_type_symbol
_atom_type_description
_atom_site_fract_x
_atom_site_fract_y
_atom_site_fract_z
_atom_type_partial_charge
C1    C     C_R   0.625431 0.899099 0.426040 0.544697
C2    C     C_R   0.118169 0.726508 0.307658 0.037442
C3    C     C_3   0.077785 0.631015 0.387269 -0.269164
C4    C     C_3   0.943148 0.569133 0.381706 -0.452516
C5    C     C_R   0.110012 0.715329 0.205924 0.013049
C6    C     C_R   0.600035 0.220365 0.439957 0.542931
C7    C     C_R   0.095386 0.620282 0.229271 -0.139750
C8    C     C_R   0.095686 0.624349 0.279563 -0.132806
C9    C     C_R   0.104992 0.708434 0.155680 -0.125564
C10   C     C_R   0.104860 0.796935 0.131472 -0.008309
C11   C     C_R   0.193206 0.941493 0.360393 -0.148723
C12   C     C_R   0.162127 0.927873 0.311091 -0.008681
C13   C     C_R   0.134597 0.823401 0.283911 0.042446
C14   C     C_R   0.570541 0.264732 0.218117 0.021329
C15   C     C_R   0.167033 0.019869 0.288137 -0.124424
C16   C     C_R   0.148051 0.010998 0.237614 -0.003781
C17   C     C_R   0.132159 0.909955 0.209285 0.019249
C18   C     C_R   0.264677 0.874839 0.427109 0.537763
C19   C     C_R   0.125321 0.816346 0.233017 0.049783
C20   C     C_R   0.120538 0.898043 0.158135 -0.144920
C21   C     C_R   0.188793 0.849034 0.383126 0.000463
C22   C     C_R   0.697693 0.972799 0.348150 -0.127057
C23   C     C_R   0.692541 0.959271 0.297882 0.005798
C24   C     C_R   0.695909 0.930323 0.196965 0.010195
C25   C     C_R   0.559014 0.251221 0.268002 -0.089120
C26   C     C_R   0.746329 0.041415 0.221144 -0.137994
C27   C     C_R   0.746703 0.055794 0.271529 -0.134696
C28   C     C_R   0.714833 0.914038 0.148098 -0.142382
C29   C     C_R   0.671546 0.802051 0.125647 -0.003785
C30   C     C_R   0.626971 0.899217 0.565142 0.546393
C31   C     C_R   0.573888 0.765882 0.350662 -0.133591
C32   C     C_R   0.571076 0.750466 0.300019 0.016418
C33   C     C_R   0.631114 0.847663 0.273630 0.062648
C34   C     C_R   0.508981 0.640093 0.275209 -0.128891
C35   C     C_R   0.511925 0.625646 0.224820 -0.134417
C36   C     C_R   0.659297 0.293162 0.299450 0.024927
C37   C     C_R   0.577158 0.721248 0.198854 0.010478
C38   C     C_R   0.633000 0.833174 0.223037 0.064386
C39   C     C_R   0.595018 0.706470 0.149858 -0.134788
C40   C     C_R   0.638175 0.876818 0.374711 0.003143
C41   C     C_R   0.741349 0.298663 0.651410 -0.137169
C42   C     C_R   0.603366 0.227663 0.578237 0.547233
C43   C     C_R   0.755277 0.322153 0.701928 0.010891
C44   C     C_R   0.770229 0.350597 0.803977 0.010749
C45   C     C_R   0.859585 0.342549 0.778466 -0.142476
C46   C     C_R   0.851327 0.326805 0.727713 -0.140338
C47   C     C_R   0.684124 0.322313 0.200028 0.042726
C48   C     C_R   0.778418 0.369347 0.854691 -0.139090
C49   C     C_R   0.688928 0.379588 0.879254 -0.005106
C50   C     C_R   0.562883 0.315926 0.651804 -0.131116
C51   C     C_R   0.572202 0.333591 0.702015 0.010300
C52   C     C_R   0.667423 0.334487 0.727360 0.063093
C53   C     C_R   0.483332 0.342612 0.727252 -0.140660
C54   C     C_R   0.271921 0.879567 0.563372 0.542787
C55   C     C_R   0.486792 0.349111 0.777625 -0.141996
C56   C     C_R   0.580946 0.350037 0.803127 0.009025
C57   C     C_R   0.672910 0.344870 0.778170 0.062891
C58   C     C_1   0.698099 0.354613 0.150973 -0.066496
C59   C     C_R   0.587123 0.361839 0.853353 -0.130386
C60   C     C_R   0.641424 0.289068 0.626732 -0.005815
C61   C     C_1   0.223489 0.862889 0.610283 -0.011861
C62   C     C_R   0.181247 0.751220 0.723856 -0.092525
C63   C     C_R   0.171158 0.743121 0.774093 0.020818
C64   C     C_R   0.149125 0.915681 0.781464 -0.115999
C65   C     C_R   0.159868 0.922888 0.731466 -0.109006
C66   C     C_1   0.628530 0.259901 0.392536 -0.026701
C67   C     C_R   0.175193 0.840271 0.702580 0.025333
C68   C     C_R   0.154894 0.826605 0.803083 0.045523
C69   C     C_1   0.645574 0.279381 0.350607 -0.070751
C70   C     C_1   0.132667 0.815702 0.853923 -0.064963
C71   C     C_1   0.196115 0.851924 0.651833 -0.057267
C72   C     C_1   0.104863 0.798718 0.895173 -0.021226
C73   C     C_1   0.640689 0.867840 0.612114 -0.014267
C74   C     C_R   0.679682 0.931063 0.738622 -0.106772
C75   C     C_R   0.679581 0.919037 0.788322 -0.109683
C76   C     C_R   0.611252 0.714380 0.770482 -0.111117
C77   C     C_R   0.611340 0.726414 0.720690 -0.107869
C78   C     C_R   0.771453 0.343598 0.280629 -0.129202
C79   C     C_R   0.646964 0.835147 0.704696 0.034926
C80   C     C_1   0.705379 0.388477 0.111390 -0.030059
C81   C     C_R   0.646034 0.810853 0.804364 0.029225
C82   C     C_1   0.660187 0.801057 0.855040 -0.066532
C83   C     C_1   0.645493 0.849256 0.653744 -0.059472
C84   C     C_1   0.680389 0.791533 0.896473 -0.018927
C85   C     C_R   0.060629 0.769718 0.080533 0.544512
C86   C     C_R   0.717565 0.440783 0.067016 0.543066
C87   C     C_R   0.719214 0.782220 0.080466 0.545552
C88   C     C_R   0.057020 0.766321 0.941459 0.547497
C89   C     C_R   0.710347 0.434263 0.928986 0.546042
C90   C     C_R   0.783880 0.359469 0.231235 -0.124427
C91   C     C_R   0.130850 0.736801 0.358814 0.018931
C92   C     C_R   0.715960 0.776413 0.943218 0.546003
C93   C     C_3   0.152542 0.113276 0.215398 -0.270194
C94   C     C_3   0.030132 0.093115 0.199728 -0.289843
C95   C     C_3   0.040907 0.191510 0.171394 -0.456248
C96   C     C_3   0.462005 0.218300 0.184429 -0.252935
C97   C     C_3   0.436455 0.315180 0.171818 -0.299533
C98   C     C_3   0.378153 0.291192 0.120917 -0.445815
C99   C     C_3   0.178811 0.645710 0.795623 -0.256302
C100  C     C_3   0.301754 0.688394 0.819569 -0.289956
C101  C     C_3   0.312441 0.589764 0.839297 -0.452582
Cr1   Cr    Cr6+3 0.416430 0.829200 0.492370 1.017324
Cr2   Cr    Cr6+3 0.674630 0.087020 0.504170 1.016129
Cr3   Cr    Cr6+3 0.408920 0.083740 0.503490 1.018105
Cr4   Cr    Cr6+3 0.914010 0.832750 0.013970 1.017729
Cr5   Cr    Cr6+3 0.922310 0.578600 0.003000 1.015429
Cr6   Cr    Cr6+3 0.656280 0.574630 0.003870 1.009596
H1    H     H_    0.849269 0.370791 0.304077 0.098436
H2    H     H_    0.460566 0.564927 0.294813 0.105222
H3    H     H_    0.871273 0.402328 0.217483 0.107713
H4    H     H_    0.525117 0.692545 0.371274 0.113764
H5    H     H_    0.856897 0.382472 0.874635 0.122094
H6    H     H_    0.803284 0.279800 0.631942 0.126388
H7    H     H_    0.935178 0.347492 0.797741 0.102802
H8    H     H_    0.919640 0.317821 0.708662 0.105711
H9    H     H_    0.516796 0.368164 0.871974 0.134022
H10   H     H_    0.416698 0.354861 0.796652 0.101695
H11   H     H_    0.409643 0.341526 0.708014 0.103962
H12   H     H_    0.186079 0.099186 0.309783 0.101391
H13   H     H_    0.487041 0.311329 0.632806 0.132846
H14   H     H_    0.195777 0.689036 0.701318 0.107097
H15   H     H_    0.135335 0.979211 0.803283 0.112444
H16   H     H_    0.156963 0.993177 0.715411 0.113220
H17   H     H_    0.706122 0.015344 0.726630 0.119023
H18   H     H_    0.707970 0.994378 0.814152 0.113942
H19   H     H_    0.586421 0.630498 0.782538 0.118640
H20   H     H_    0.584646 0.651471 0.694799 0.112318
H21   H     H_    0.472018 0.208971 0.282384 0.107792
H22   H     H_    0.091212 0.629083 0.135569 0.135262
H23   H     H_    0.229331 0.026392 0.380036 0.132134
H24   H     H_    0.082296 0.541928 0.208517 0.096398
H25   H     H_    0.083625 0.548560 0.295878 0.105379
H26   H     H_    0.119104 0.964398 0.138524 0.123385
H27   H     H_    0.080979 0.273871 0.195258 0.145225
H28   H     H_    0.096307 0.200982 0.139802 0.152717
H29   H     H_    0.952918 0.173374 0.157260 0.134642
H30   H     H_    0.980865 0.010456 0.176427 0.182629
H31   H     H_    0.979708 0.088636 0.232525 0.175233
H32   H     H_    0.195436 0.192084 0.241487 0.130429
H33   H     H_    0.207740 0.131790 0.183799 0.143055
H34   H     H_    0.770460 0.987619 0.128689 0.120262
H35   H     H_    0.440400 0.292922 0.093211 0.178246
H36   H     H_    0.297603 0.205698 0.116139 0.137605
H37   H     H_    0.353840 0.358719 0.114704 0.139761
H38   H     H_    0.378555 0.325034 0.199027 0.140786
H39   H     H_    0.518978 0.399271 0.173321 0.176808
H40   H     H_    0.474859 0.173800 0.151076 0.153040
H41   H     H_    0.385301 0.151094 0.201483 0.131218
H42   H     H_    0.245767 0.549681 0.866674 0.155753
H43   H     H_    0.299492 0.523265 0.809302 0.143585
H44   H     H_    0.401650 0.623410 0.856897 0.153718
H45   H     H_    0.743229 0.059417 0.366473 0.135852
H46   H     H_    0.369736 0.727221 0.792472 0.177188
H47   H     H_    0.319397 0.755565 0.849957 0.172312
H48   H     H_    0.109961 0.607778 0.822440 0.154589
H49   H     H_    0.160688 0.575124 0.766722 0.131495
H50   H     H_    0.909148 0.623132 0.400749 0.156752
H51   H     H_    0.912022 0.552439 0.343032 0.165066
H52   H     H_    0.906253 0.485730 0.397962 0.139312
H53   H     H_    0.112460 0.571632 0.375765 0.135945
H54   H     H_    0.099134 0.653941 0.426822 0.170881
H55   H     H_    0.789740 0.116939 0.201482 0.114326
H56   H     H_    0.791489 0.142078 0.289976 0.114366
H57   H     H_    0.558746 0.619619 0.132118 0.131871
H58   H     H_    0.465943 0.539656 0.206326 0.098642
O1    O     O_R   0.296680 0.802170 0.437540 -0.521190
O2    O     O_R   0.637200 0.461990 0.052510 -0.521048
O3    O     O_R   0.664790 0.681920 0.057970 -0.505205
O4    O     O_R   0.525380 0.838530 0.443500 -0.497005
O5    O     O_R   0.815840 0.852920 0.961840 -0.507596
O6    O     O_R   0.012100 0.822630 0.963670 -0.492824
O7    O     O_R   0.037010 0.668460 0.953040 -0.513138
O8    O     O_R   0.813390 0.478970 0.949660 -0.501956
O9    O     O_R   0.632250 0.456930 0.945520 -0.522416
O10   O     O_R   0.660200 0.677230 0.958780 -0.497335
O11   O     O_3   0.830870 0.661990 0.006950 -0.241120
O12   O     O_R   0.662610 0.183990 0.557860 -0.502015
O13   O     O_R   0.702130 0.995190 0.446810 -0.522125
O14   O     O_R   0.661770 0.181390 0.458760 -0.501270
O15   O     O_R   0.499820 0.198480 0.455280 -0.510225
O16   O     O_R   0.311660 0.976250 0.449080 -0.504511
O17   O     O_R   0.297580 0.804960 0.544440 -0.513502
O18   O     O_R   0.526220 0.841130 0.542590 -0.493765
O19   O     O_R   0.703030 0.997990 0.553710 -0.509240
O20   O     O_R   0.500730 0.201280 0.562180 -0.519564
O21   O     O_R   0.312500 0.978850 0.548170 -0.495169
O22   O     O_3   0.499990 0.999990 0.500010 -0.242610
O23   O     O_R   0.820790 0.857990 0.068830 -0.519354
O24   O     O_R   0.016700 0.827330 0.062850 -0.501843
O25   O     O_R   0.041970 0.673520 0.060040 -0.521861
O26   O     O_R   0.817980 0.483660 0.048840 -0.495434

loop_
_geom_bond_atom_site_label_1
_geom_bond_atom_site_label_2
_ccdc_geom_bond_type
C100  H46   S    
C74   H17   S    
C55   C56   A    
C10   C85   S    
C93   C94   S    
C88   O7    A    
C98   H36   S    
C18   C21   S    
C76   H19   S    
C30   O18   A    
C89   O8    A    
C97   C98   S    
C18   O1    A    
C7    C8    A    
C45   C46   A    
C31   C40   A    
Cr3   O20   S    
C16   C93   S    
C62   C63   A    
C46   H8    S    
C50   H13   S    
Cr1   O18   S    
C64   C68   A    
Cr4   O23   S    
C78   H1    S    
C28   C29   A    
C35   C37   A    
C25   H21   S    
C24   C26   A    
C21   C91   A    
C6    O14   A    
C43   C52   A    
C4    H52   S    
Cr6   O11   S    
C42   O12   A    
C85   O24   A    
C15   C16   A    
C101  H43   S    
C17   C20   A    
C56   C57   A    
C3    C91   S    
C34   C35   A    
C97   H39   S    
C101  H42   S    
C96   H40   S    
C2    C13   A    
C100  C101  S    
C80   C86   S    
C1    C40   S    
C27   H56   S    
Cr6   O3    S    
C45   H7    S    
C4    H51   S    
C4    H50   S    
C92   O5    A    
C16   C17   A    
C65   C67   A    
Cr4   O11   S    
C99   H48   S    
C8    H25   S    
C63   C99   S    
C54   O17   A    
C10   C20   A    
C23   C27   A    
C20   H26   S    
C9    C10   A    
C7    H24   S    
C77   H20   S    
C58   C80   T    
C6    O15   A    
C61   C71   T    
Cr1   O4    S    
C77   C79   A    
Cr3   O16   S    
Cr1   O1    S    
C88   O6    A    
C96   C97   S    
C41   C43   A    
C94   C95   S    
C30   O19   A    
Cr5   O26   S    
C14   C96   S    
C72   C88   S    
C81   C82   S    
Cr6   O2    S    
C53   C55   A    
C92   O10   A    
C96   H41   S    
C22   H45   S    
C74   C75   A    
C13   C19   A    
Cr2   O19   S    
Cr1   O17   S    
Cr4   O24   S    
Cr2   O22   S    
C76   C77   A    
Cr4   O5    S    
C42   C60   S    
C5    C7    A    
C30   C73   S    
C53   H11   S    
C75   C81   A    
C18   O16   A    
C23   C33   A    
C85   O25   A    
C59   H9    S    
Cr2   O14   S    
C11   C21   A    
C95   H27   S    
C78   C90   A    
C51   C52   A    
Cr2   O12   S    
C32   C34   A    
C5    C9    A    
C37   C38   A    
C93   H32   S    
C1    O13   A    
C24   C38   A    
C87   O3    A    
C12   C15   A    
C44   C57   A    
C22   C40   A    
C99   H49   S    
C29   C39   A    
C95   H28   S    
C50   C51   A    
C86   O26   A    
Cr5   O7    S    
C87   O23   A    
C62   C67   A    
C42   O20   A    
C48   C49   A    
C48   H5    S    
C82   C84   T    
C74   C79   A    
C26   C27   A    
C3    H53   S    
C94   H31   S    
C47   C90   A    
C90   H3    S    
C3    C4    S    
C11   H23   S    
C75   H18   S    
C44   C45   A    
Cr5   O25   S    
C55   H10   S    
C100  H47   S    
C94   H30   S    
Cr3   O22   S    
C63   C68   A    
C31   H4    S    
Cr4   O6    S    
C98   H37   S    
C97   H38   S    
C31   C32   A    
C2    C8    A    
C86   O2    A    
C24   C28   A    
C41   C60   A    
C49   C89   S    
C54   C61   S    
C76   C81   A    
C101  H44   S    
C11   C12   A    
C14   C47   A    
C5    C19   A    
Cr6   O9    S    
C9    H22   S    
Cr3   O21   S    
Cr1   O22   S    
C49   C59   A    
C56   C59   A    
Cr2   O13   S    
C50   C60   A    
C64   C65   A    
C36   C69   S    
C41   H6    S    
C89   O9    A    
C37   C39   A    
C93   H33   S    
C36   C78   A    
C99   C100  S    
C32   C33   A    
C47   C58   S    
C79   C83   S    
Cr3   O15   S    
Cr6   O10   S    
C64   H15   S    
C1    O4    A    
C95   H29   S    
C17   C19   A    
Cr5   O8    S    
C15   H12   S    
C67   C71   S    
C65   H16   S    
C14   C25   A    
C2    C91   A    
C43   C46   A    
C29   C87   S    
C52   C57   A    
C3    H54   S    
C25   C36   A    
C66   C69   T    
C26   H55   S    
C6    C66   S    
C12   C13   A    
C68   C70   S    
C54   O21   A    
C34   H2    S    
Cr5   O11   S    
C22   C23   A    
C35   H58   S    
C33   C38   A    
C70   C72   T    
C28   H34   S    
C84   C92   S    
C51   C53   A    
C39   H57   S    
C73   C83   T    
C62   H14   S    
C98   H35   S    
C44   C48   A    
