data_mof_unit_32005.cif
_audit_creation_date              2012-12-10T17:18:13-0500
_audit_creation_method            fapswitch 2.2
_symmetry_space_group_name_H-M    P1
_symmetry_Int_Tables_number       1
_space_group_crystal_system       triclinic
_cell_length_a                    10.119156
_cell_length_b                    10.594622
_cell_length_c                    14.944863
_cell_angle_alpha                 89.342715
_cell_angle_beta                  81.9501
_cell_angle_gamma                 94.022351
_cell_volume                      1582.15526212

loop_
_atom_site_label
_atom_site_type_symbol
_atom_type_description
_atom_site_fract_x
_atom_site_fract_y
_atom_site_fract_z
_atom_type_partial_charge
C1    C     C_R   0.553976 0.733540 0.500667 0.926349
C2    C     C_2   0.073182 0.489437 0.492975 -0.125780
C3    C     C_R   0.501216 0.499746 0.673195 0.854586
C4    C     C_R   0.499038 0.500943 0.327078 0.894926
C5    C     C_R   0.547714 0.400535 0.183181 -0.235146
C6    C     C_R   0.460144 0.604885 0.817099 -0.246465
C7    C     C_R   0.497581 0.501563 0.232043 -0.075854
C8    C     C_R   0.504247 0.500926 0.768578 -0.058324
C9    C     C_R   0.451954 0.604909 0.190323 -0.252928
C10   C     C_R   0.549763 0.397874 0.810825 -0.255564
C11   C     C_R   0.459315 0.609899 0.096547 0.097877
C12   C     C_R   0.446510 0.266131 0.512399 0.924343
C13   C     C_R   0.549051 0.396351 0.904036 0.100617
C14   C     C_R   0.505157 0.504545 0.046745 0.006099
C15   C     C_R   0.505964 0.503027 0.953414 0.006158
C16   C     C_R   0.549431 0.400022 0.090608 0.109425
C17   C     C_R   0.461746 0.607468 0.909518 0.113570
C18   C     C_R   0.420939 0.716387 0.051526 0.217152
C19   C     C_R   0.589917 0.291211 0.949158 0.211026
C20   C     C_3   0.496368 0.908623 0.119612 -0.827084
C21   C     C_3   0.505624 0.092626 0.897270 -0.841812
C22   C     C_3   0.643815 0.129564 0.600704 -0.345585
C23   C     C_R   0.420337 0.713079 0.958185 -0.308378
C24   C     C_3   0.711010 0.047958 0.664566 -0.390188
C25   C     C_3   0.829586 0.121873 0.697194 -0.855914
C26   C     C_3   0.365846 0.869744 0.632677 -0.356209
C27   C     C_3   0.324487 0.938432 0.721023 -0.401643
C28   C     C_3   0.194640 0.876969 0.772663 -0.898053
C29   C     C_R   0.592472 0.295388 0.042031 -0.300352
C30   C     C_2   0.579565 0.866525 0.518789 -0.434827
C31   C     C_2   0.423050 0.132172 0.536027 -0.431646
C32   C     C_2   0.493071 0.930147 0.576343 0.121809
C33   C     C_2   0.514781 0.067711 0.572691 0.111107
C34   C     C_2   0.926584 0.509752 0.507642 -0.129160
H1    H     H_    0.582529 0.321331 0.217839 0.139293
H2    H     H_    0.889307 0.577642 0.557083 0.166343
H3    H     H_    0.118877 0.615474 0.583131 0.160485
H4    H     H_    0.881295 0.384952 0.416612 0.160542
H5    H     H_    0.316325 0.877115 0.070091 0.226659
H6    H     H_    0.560997 0.941957 0.056312 0.247587
H7    H     H_    0.557363 0.857796 0.162532 0.250667
H8    H     H_    0.459218 0.992111 0.156886 0.240467
H9    H     H_    0.696651 0.133076 0.927988 0.228683
H10   H     H_    0.538157 0.999575 0.873274 0.227747
H11   H     H_    0.443542 0.131772 0.849459 0.253241
H12   H     H_    0.426765 0.684394 0.782676 0.135968
H13   H     H_    0.443910 0.077156 0.964612 0.253623
H14   H     H_    0.906405 0.151814 0.638856 0.258231
H15   H     H_    0.796474 0.206963 0.734182 0.272951
H16   H     H_    0.875423 0.060923 0.743528 0.249554
H17   H     H_    0.637501 0.016142 0.723809 0.236461
H18   H     H_    0.748536 0.963047 0.629474 0.226899
H19   H     H_    0.717045 0.152922 0.539110 0.212312
H20   H     H_    0.619875 0.218211 0.636129 0.212358
H21   H     H_    0.111411 0.883381 0.731961 0.262921
H22   H     H_    0.205724 0.775953 0.788636 0.264033
H23   H     H_    0.413598 0.681548 0.231352 0.176131
H24   H     H_    0.169250 0.926894 0.837051 0.254659
H25   H     H_    0.404681 0.933700 0.764057 0.216560
H26   H     H_    0.309358 0.039285 0.707445 0.241624
H27   H     H_    0.282928 0.867308 0.591026 0.206460
H28   H     H_    0.381336 0.771667 0.652682 0.216960
H29   H     H_    0.583312 0.318745 0.770995 0.160834
H30   H     H_    0.388884 0.793808 0.923487 0.153892
H31   H     H_    0.623633 0.214482 0.076747 0.149030
H32   H     H_    0.330660 0.083767 0.521011 0.145126
H33   H     H_    0.669435 0.915424 0.482188 0.142979
H34   H     H_    0.110321 0.421068 0.443868 0.165850
N1    N     N_2   0.842700 0.448880 0.462930 -0.196728
N2    N     N_2   0.157300 0.551120 0.537070 -0.194780
N3    N     N_2   0.383962 0.827207 0.099119 -0.308058
N4    N     N_2   0.621782 0.178180 0.903183 -0.309395
O1    O     O_R   0.431060 0.692470 0.507460 -0.614043
O2    O     O_R   0.568940 0.307530 0.492540 -0.617957
O3    O     O_R   0.651120 0.659650 0.483670 -0.602002
O4    O     O_R   0.348880 0.340350 0.516330 -0.602023
O5    O     O_R   0.389960 0.516440 0.644050 -0.618364
O6    O     O_R   0.610040 0.483560 0.355950 -0.604851
O7    O     O_R   0.610030 0.483620 0.620260 -0.624181
O8    O     O_R   0.389970 0.516380 0.379740 -0.610830
Zn1   Zn    Zn3+2 0.353060 0.521920 0.515880 0.932498
Zn2   Zn    Zn3+2 0.646940 0.478080 0.484120 0.929453

loop_
_geom_bond_atom_site_label_1
_geom_bond_atom_site_label_2
_ccdc_geom_bond_type
C24   H18   S    
C31   H32   S    
C11   C18   A    
C26   C32   S    
H9    N4    S    
C12   O2    A    
C10   H29   S    
C3    O7    A    
C20   H7    S    
C28   H22   S    
C22   H20   S    
C26   C27   S    
C17   C23   A    
C26   H27   S    
C4    O8    A    
C2    H34   S    
C27   H26   S    
C20   H6    S    
C11   C14   A    
C15   C17   A    
C22   C33   S    
N2    Zn1   S    
C25   H16   S    
C5    C16   A    
N1    Zn2   S    
C31   C33   D    
C20   N3    S    
C14   C16   A    
C9    H23   S    
C30   H33   S    
C2    C34   S    
C24   H17   S    
H4    N1    S    
H3    N2    S    
C19   N4    S    
O2    Zn2   S    
C4    C7    S    
O1    Zn1   S    
C28   H21   S    
C22   H19   S    
C21   H11   S    
C13   C19   A    
C21   N4    S    
C18   C23   A    
C1    O3    A    
C24   C25   S    
C3    C8    S    
C5    C7    A    
C6    C8    A    
C16   C29   A    
C4    O6    A    
C21   H10   S    
O6    Zn2   S    
C34   N1    D    
O5    Zn1   S    
C9    C11   A    
C25   H14   S    
C29   H31   S    
C23   H30   S    
C13   C15   A    
C12   C31   S    
C22   C24   S    
C19   C29   A    
C18   N3    S    
C7    C9    A    
C6    C17   A    
C6    H12   S    
O8    Zn1   S    
C10   C13   A    
O4    Zn1   S    
O7    Zn2   S    
C20   H8    S    
O3    Zn2   S    
C28   H24   S    
C1    O1    A    
C32   C33   S    
C12   O4    A    
C26   H28   S    
C27   H25   S    
C30   C32   D    
C5    H1    S    
C1    C30   S    
C34   H2    S    
C25   H15   S    
C8    C10   A    
C27   C28   S    
H5    N3    S    
C14   C15   A    
C2    N2    D    
C21   H13   S    
C3    O5    A    
