data_mof_unit_39594.cif
_audit_creation_date              2012-10-26T18:56:25-0400
_audit_creation_method            fapswitch 2.2
_symmetry_space_group_name_H-M    P1
_symmetry_Int_Tables_number       1
_space_group_crystal_system       triclinic
_cell_length_a                    10.610822
_cell_length_b                    10.610469
_cell_length_c                    9.474647
_cell_angle_alpha                 89.852895
_cell_angle_beta                  89.842548
_cell_angle_gamma                 90.103152
_cell_volume                      1066.70140636

loop_
_atom_site_label
_atom_site_type_symbol
_atom_type_description
_atom_site_fract_x
_atom_site_fract_y
_atom_site_fract_z
_atom_type_partial_charge
C1    C     C_R   0.500042 0.259595 0.500259 0.540856
C2    C     C_3   0.397847 0.548911 0.049807 0.117284
C3    C     C_R   0.259597 0.500545 0.500296 0.549781
C4    C     C_R   0.740403 0.499460 0.499703 0.549770
C5    C     C_3   0.040051 0.511741 0.633703 -0.067131
C6    C     C_3   0.959947 0.488272 0.366293 -0.067143
C7    C     C_3   0.957971 0.402362 0.577670 -0.106380
C8    C     C_3   0.042029 0.597651 0.422326 -0.106390
C9    C     C_3   0.877465 0.499212 0.498895 0.025113
C10   C     C_3   0.122534 0.500800 0.501102 0.025131
C11   C     C_3   0.957282 0.608505 0.554783 -0.132948
C12   C     C_R   0.499957 0.740404 0.499741 0.540849
C13   C     C_3   0.042717 0.391508 0.445213 -0.132915
C14   C     C_3   0.500677 0.040291 0.634344 -0.115638
C15   C     C_3   0.499322 0.959709 0.365656 -0.115643
C16   C     C_3   0.603877 0.957893 0.565654 -0.124194
C17   C     C_3   0.396121 0.042107 0.434347 -0.124192
C18   C     C_3   0.499954 0.877476 0.499034 0.045865
C19   C     C_3   0.500045 0.122524 0.500967 0.045866
C20   C     C_2   0.693720 0.647812 0.109427 0.269822
C21   C     C_2   0.306290 0.352181 0.890569 0.269891
C22   C     C_2   0.713848 0.383353 0.890430 0.279889
C23   C     C_3   0.396750 0.957588 0.567579 -0.125806
C24   C     C_2   0.286153 0.616646 0.109574 0.279915
C25   C     C_3   0.603248 0.042412 0.432422 -0.125811
C26   C     C_3   0.593583 0.563993 0.049496 0.116945
C27   C     C_3   0.406417 0.436007 0.950503 0.116936
C28   C     C_3   0.491468 0.613957 0.949091 -0.080568
C29   C     C_3   0.508532 0.386043 0.050909 -0.080594
C30   C     C_3   0.602152 0.451088 0.950193 0.117293
Cu1   Cu    Cu3+1 0.500030 0.499990 0.643150 0.941830
Cu2   Cu    Cu3+1 0.499970 0.500010 0.356850 0.941803
H1    H     H_    0.920583 0.322320 0.640904 0.142962
H2    H     H_    0.498726 0.924054 0.255574 0.102398
H3    H     H_    0.312340 0.919638 0.622750 0.112026
H4    H     H_    0.687659 0.080362 0.377251 0.112030
H5    H     H_    0.484184 0.709811 0.902566 0.104957
H6    H     H_    0.515816 0.290189 0.097435 0.104954
H7    H     H_    0.667293 0.725758 0.176975 0.093551
H8    H     H_    0.332740 0.274172 0.823106 0.093456
H9    H     H_    0.699456 0.299791 0.826728 0.079504
H10   H     H_    0.300546 0.700243 0.173229 0.079463
H11   H     H_    0.079417 0.677693 0.359094 0.142966
H12   H     H_    0.074800 0.522879 0.743268 0.217978
H13   H     H_    0.925193 0.477145 0.256728 0.217950
H14   H     H_    0.919052 0.697199 0.599580 0.125064
H15   H     H_    0.080946 0.302814 0.400417 0.125060
H16   H     H_    0.688805 0.920166 0.619229 0.112191
H17   H     H_    0.311194 0.079834 0.380772 0.112185
H18   H     H_    0.501272 0.075947 0.744426 0.102394
N1    N     N_3   0.500090 0.499970 0.858290 -0.287957
N2    N     N_3   0.499910 0.500030 0.141710 -0.287965
O1    O     O_R   0.500060 0.316850 0.620870 -0.543177
O2    O     O_2   0.195442 0.369218 0.918546 -0.463090
O3    O     O_2   0.820677 0.420644 0.912793 -0.446468
O4    O     O_2   0.179327 0.579321 0.087267 -0.446468
O5    O     O_R   0.499940 0.683150 0.379130 -0.543189
O6    O     O_R   0.500000 0.316860 0.379090 -0.499332
O7    O     O_R   0.500000 0.683140 0.620910 -0.499332
O8    O     O_R   0.316880 0.499960 0.620870 -0.498993
O9    O     O_R   0.683120 0.500040 0.379130 -0.499037
O10   O     O_R   0.316830 0.499970 0.379090 -0.486230
O11   O     O_R   0.683170 0.500030 0.620910 -0.486245
O12   O     O_2   0.804551 0.630849 0.081339 -0.463093

loop_
_geom_bond_atom_site_label_1
_geom_bond_atom_site_label_2
_ccdc_geom_bond_type
Cu1   O8    S    
C14   C23   S    
C15   C18   S    
C2    C28   S    
C30   N1    S    
C5    C7    S    
C20   O12   D    
C29   C30   S    
C6    H13   S    
C26   N2    S    
C24   O4    D    
C7    H1    S    
C15   H2    S    
C26   C28   S    
Cu1   Cu2   S    
C8    H11   S    
Cu2   O6    S    
C3    O8    A    
C16   H16   S    
C6    C9    S    
C21   C27   S    
C22   O3    D    
Cu2   O10   S    
C5    C10   S    
C4    O9    A    
C3    C10   S    
C17   C23   S    
C1    O6    A    
Cu1   O1    S    
C6    C13   S    
C9    C11   S    
C4    O11   A    
C2    C27   S    
C21   H8    S    
C2    N2    S    
Cu2   O5    S    
C8    C11   S    
C12   O5    A    
C28   H5    S    
C8    C10   S    
C17   C19   S    
C5    H12   S    
C27   N1    S    
Cu2   O9    S    
C26   C30   S    
C23   H3    S    
C5    C11   S    
C2    C24   S    
C21   O2    D    
C19   C25   S    
C28   N1    S    
C14   C16   S    
C15   C25   S    
C22   H9    S    
C1    C19   S    
C14   H18   S    
C25   H4    S    
C12   C18   S    
C18   C23   S    
Cu1   O11   S    
C7    C13   S    
C29   H6    S    
C24   H10   S    
C27   C29   S    
C16   C18   S    
C3    O10   A    
Cu1   O7    S    
C16   C25   S    
C7    C9    S    
C20   H7    S    
C1    O1    A    
Cu2   N2    S    
C11   H14   S    
C6    C8    S    
C22   C30   S    
C4    C9    S    
C15   C17   S    
C12   O7    A    
C13   H15   S    
C14   C19   S    
C10   C13   S    
C17   H17   S    
Cu1   N1    S    
C20   C26   S    
C29   N2    S    
