data_mof_unit_6468.cif
_audit_creation_date              2012-12-10T18:46:44-0500
_audit_creation_method            fapswitch 2.2
_symmetry_space_group_name_H-M    P1
_symmetry_Int_Tables_number       1
_space_group_crystal_system       triclinic
_cell_length_a                    18.145673
_cell_length_b                    18.193912
_cell_length_c                    51.47885
_cell_angle_alpha                 90.061111
_cell_angle_beta                  90.034128
_cell_angle_gamma                 89.909795
_cell_volume                      16995.2338487

loop_
_atom_site_label
_atom_site_type_symbol
_atom_type_description
_atom_site_fract_x
_atom_site_fract_y
_atom_site_fract_z
_atom_type_partial_charge
C1    C     C_R   0.000017 0.500058 0.820696 0.847067
C2    C     C_R   0.467415 0.869417 0.013898 -0.051618
C3    C     C_3   0.274633 0.309206 0.762914 -0.248073
C4    C     C_3   0.278888 0.757002 0.226145 -0.249712
C5    C     C_3   0.721446 0.243107 0.774217 -0.235793
C6    C     C_3   0.274265 0.309686 0.237114 -0.248921
C7    C     C_3   0.725553 0.690951 0.763066 -0.243751
C8    C     C_3   0.303670 0.731441 0.733356 -0.208275
C9    C     C_3   0.696791 0.267698 0.267202 -0.203442
C10   C     C_3   0.232971 0.268915 0.725315 -0.228520
C11   C     C_3   0.768162 0.731908 0.274613 -0.238652
C12   C     C_3   0.696140 0.268449 0.733409 -0.204616
C13   C     C_R   0.866038 0.507028 0.986189 -0.054419
C14   C     C_3   0.303322 0.732489 0.267187 -0.202805
C15   C     C_3   0.765996 0.730442 0.725234 -0.236461
C16   C     C_3   0.232359 0.268503 0.274595 -0.238506
C17   C     C_3   0.803358 0.231798 0.233155 -0.208737
C18   C     C_3   0.196352 0.768192 0.766997 -0.203592
C19   C     C_3   0.732093 0.767837 0.225343 -0.229541
C20   C     C_3   0.267121 0.230773 0.774524 -0.225015
C21   C     C_3   0.196447 0.768092 0.233217 -0.205009
C22   C     C_3   0.803735 0.232012 0.766987 -0.203068
C23   C     C_3   0.266865 0.231509 0.225250 -0.237163
C24   C     C_R   0.135380 0.485901 0.013659 -0.057658
C25   C     C_3   0.733393 0.769599 0.774511 -0.225351
C26   C     C_3   0.300515 0.801609 0.750066 0.018867
C27   C     C_3   0.699564 0.197992 0.250195 0.018682
C28   C     C_3   0.198410 0.300582 0.750207 0.022420
C29   C     C_3   0.801719 0.699273 0.249732 0.026071
C30   C     C_3   0.699563 0.198308 0.750079 0.019013
C31   C     C_3   0.300276 0.802173 0.250223 0.019038
C32   C     C_3   0.801415 0.699303 0.750096 0.019128
C33   C     C_3   0.198127 0.300644 0.249765 0.025608
C34   C     C_3   0.800507 0.301611 0.250058 0.018994
C35   C     C_R   0.475023 0.868097 0.986578 -0.059749
C36   C     C_3   0.199445 0.698120 0.750179 0.019376
C37   C     C_3   0.698304 0.800442 0.250212 0.019040
C38   C     C_3   0.301518 0.199116 0.749636 0.020305
C39   C     C_3   0.199586 0.698292 0.250072 0.019097
C40   C     C_3   0.800389 0.302049 0.750206 0.019712
C41   C     C_3   0.301516 0.199447 0.250098 0.015798
C42   C     C_3   0.698317 0.800785 0.749679 0.020180
C43   C     C_3   0.219322 0.812978 0.742882 0.056495
C44   C     C_3   0.780784 0.186463 0.257137 0.048898
C45   C     C_3   0.190670 0.223200 0.761673 0.085516
C46   C     C_R   0.526242 0.131721 0.014811 -0.052341
C47   C     C_3   0.808881 0.776039 0.237794 0.075842
C48   C     C_3   0.780752 0.187125 0.742857 0.057149
C49   C     C_3   0.219060 0.813510 0.257212 0.050909
C50   C     C_3   0.809457 0.776907 0.761404 0.083553
C51   C     C_3   0.190528 0.223650 0.238008 0.081681
C52   C     C_3   0.719124 0.313014 0.243140 0.057089
C53   C     C_3   0.280465 0.686656 0.757395 0.049679
C54   C     C_3   0.691222 0.723518 0.262153 0.082135
C55   C     C_3   0.309330 0.276384 0.738157 0.074426
C56   C     C_3   0.280964 0.687086 0.243106 0.057751
C57   C     C_R   0.135919 0.496615 0.986392 -0.054823
C58   C     C_3   0.719370 0.313336 0.757459 0.051748
C59   C     C_3   0.308921 0.276612 0.261875 0.080541
C60   C     C_3   0.690098 0.723310 0.738373 0.080534
C61   C     C_R   0.495057 0.936737 0.945338 0.598470
C62   C     C_R   0.527417 0.057043 0.055069 0.598609
C63   C     C_R   0.064690 0.516422 0.945648 0.594893
C64   C     C_R   0.937890 0.519001 0.054788 0.594850
C65   C     C_R   0.500648 0.067475 0.945721 0.598908
C66   C     C_R   0.465896 0.942204 0.054670 0.596859
C67   C     C_R   0.937374 0.487035 0.945573 0.594676
C68   C     C_R   0.866256 0.516233 0.013518 -0.057702
C69   C     C_R   0.063242 0.480470 0.054754 0.595368
C70   C     C_R   0.996201 0.436350 0.445356 0.598197
C71   C     C_R   0.027077 0.556975 0.555059 0.598503
C72   C     C_R   0.564798 0.016537 0.445558 0.595458
C73   C     C_R   0.437421 0.018960 0.554675 0.594728
C74   C     C_R   0.999969 0.567153 0.445718 0.598625
C75   C     C_R   0.966154 0.441821 0.554666 0.596680
C76   C     C_R   0.437448 0.987392 0.445421 0.595639
C77   C     C_R   0.562887 0.980780 0.554701 0.594938
C78   C     C_R   0.506234 0.068653 0.973145 -0.084370
C79   C     C_R   0.017792 0.634262 0.487482 -0.060250
C80   C     C_R   0.476474 0.936419 0.027571 -0.092431
C81   C     C_R   0.933710 0.498790 0.972663 -0.089363
C82   C     C_R   0.067618 0.489310 0.027527 -0.083731
C83   C     C_R   0.488269 0.934447 0.972707 -0.083745
C84   C     C_R   0.516964 0.064118 0.028016 -0.092385
C85   C     C_R   0.068302 0.504459 0.972748 -0.089266
C86   C     C_R   0.933818 0.511621 0.027492 -0.083952
C87   C     C_R   0.005710 0.568406 0.473135 -0.084468
C88   C     C_R   0.976850 0.436040 0.527570 -0.092372
C89   C     C_R   0.433695 0.999151 0.472513 -0.092588
C90   C     C_R   0.968257 0.368966 0.513901 -0.051869
C91   C     C_R   0.567346 0.989542 0.527465 -0.083930
C92   C     C_R   0.989096 0.434038 0.472713 -0.083728
C93   C     C_R   0.016579 0.563979 0.528006 -0.092353
C94   C     C_R   0.568270 0.004596 0.472669 -0.092522
C95   C     C_R   0.433508 0.011741 0.527360 -0.084467
C96   C     C_R   0.497078 0.001238 0.986599 -0.030593
C97   C     C_R   0.496757 0.000609 0.013997 -0.040328
C98   C     C_R   0.000950 0.501317 0.986459 -0.036655
C99   C     C_R   0.000799 0.500770 0.013822 -0.030773
C100  C     C_R   0.997176 0.500928 0.486597 -0.030506
C101  C     C_R   0.365973 0.007516 0.485990 -0.054201
C102  C     C_R   0.996783 0.500333 0.513994 -0.040195
C103  C     C_R   0.500861 0.001549 0.486351 -0.036637
C104  C     C_R   0.500576 0.000972 0.513723 -0.030046
C105  C     C_R   0.182839 0.884458 0.735893 0.084330
C106  C     C_R   0.143731 0.892480 0.712482 -0.187425
C107  C     C_R   0.104978 0.957331 0.707316 -0.154184
C108  C     C_R   0.104538 0.014259 0.725526 -0.111824
C109  C     C_R   0.143167 0.006381 0.748839 -0.139022
C110  C     C_R   0.182225 0.941998 0.754005 -0.158979
C111  C     C_R   0.816612 0.114386 0.263745 0.086466
C112  C     C_R   0.999991 0.499954 0.179166 0.836447
C113  C     C_R   0.635165 0.986080 0.513622 -0.057253
C114  C     C_R   0.851452 0.103590 0.287832 -0.169667
C115  C     C_R   0.890745 0.038829 0.292621 -0.161569
C116  C     C_R   0.895170 0.984455 0.273526 -0.117460
C117  C     C_R   0.859920 0.994605 0.249656 -0.134038
C118  C     C_R   0.820594 0.059089 0.244786 -0.151293
C119  C     C_R   0.122298 0.191843 0.773696 0.134182
C120  C     C_R   0.057506 0.187920 0.758925 -0.138013
C121  C     C_R   0.994702 0.154845 0.769176 -0.124400
C122  C     C_R   0.995763 0.125503 0.794228 -0.106413
C123  C     C_R   0.060002 0.129481 0.809132 -0.153593
C124  C     C_R   0.976242 0.367615 0.486587 -0.059916
C125  C     C_R   0.123218 0.162410 0.798906 -0.167251
C126  C     C_R   0.877375 0.805926 0.225380 0.126015
C127  C     C_R   0.941176 0.814096 0.240476 -0.137833
C128  C     C_R   0.004511 0.844775 0.229719 -0.118070
C129  C     C_R   0.005135 0.866961 0.203767 -0.116217
C130  C     C_R   0.942094 0.858086 0.188472 -0.147436
C131  C     C_R   0.878249 0.827658 0.199206 -0.152768
C132  C     C_R   0.817537 0.115794 0.735830 0.080530
C133  C     C_R   0.857066 0.108017 0.712496 -0.187289
C134  C     C_R   0.896011 0.043257 0.707326 -0.144670
C135  C     C_R   0.025455 0.631618 0.514788 -0.052543
C136  C     C_R   0.896157 0.986155 0.725426 -0.112742
C137  C     C_R   0.857130 0.993803 0.748656 -0.139588
C138  C     C_R   0.817962 0.058122 0.753848 -0.158875
C139  C     C_R   0.182959 0.885441 0.263867 0.087489
C140  C     C_R   0.147936 0.896041 0.287926 -0.168770
C141  C     C_R   0.108745 0.960833 0.292798 -0.162597
C142  C     C_R   0.104559 0.015411 0.273809 -0.117187
C143  C     C_R   0.139912 0.005407 0.249958 -0.133639
C144  C     C_R   0.179161 0.940907 0.245008 -0.151824
C145  C     C_R   0.878101 0.808358 0.773276 0.132942
C146  C     C_R   0.635816 0.996706 0.486349 -0.054743
C147  C     C_R   0.877756 0.837770 0.798516 -0.165417
C148  C     C_R   0.941222 0.870597 0.808641 -0.153311
C149  C     C_R   0.005183 0.874432 0.793617 -0.108147
C150  C     C_R   0.005697 0.845054 0.768549 -0.121807
C151  C     C_R   0.942623 0.812149 0.758391 -0.137500
C152  C     C_R   0.121508 0.193704 0.225931 0.124641
C153  C     C_R   0.058180 0.186423 0.241285 -0.140355
C154  C     C_R   0.994258 0.156005 0.230843 -0.116252
C155  C     C_R   0.992577 0.133040 0.204965 -0.115296
C156  C     C_R   0.055186 0.140907 0.189421 -0.148085
C157  C     C_R   0.366021 0.016492 0.513329 -0.057177
C158  C     C_R   0.119596 0.171190 0.199826 -0.152221
C159  C     C_R   0.682238 0.384494 0.236422 0.085405
C160  C     C_R   0.642852 0.392913 0.213088 -0.186656
C161  C     C_R   0.603856 0.457757 0.208149 -0.155209
C162  C     C_R   0.603423 0.514270 0.226517 -0.112078
C163  C     C_R   0.642328 0.505996 0.249755 -0.139334
C164  C     C_R   0.681678 0.441641 0.254686 -0.159258
C165  C     C_R   0.315916 0.614664 0.764349 0.082358
C166  C     C_R   0.349853 0.604309 0.788621 -0.173775
C167  C     C_R   0.388967 0.539641 0.793740 -0.169197
C168  C     C_R   0.022084 0.436065 0.609945 0.389485
C169  C     C_R   0.394165 0.484950 0.774771 -0.128932
C170  C     C_R   0.359723 0.494646 0.750732 -0.134156
C171  C     C_R   0.320532 0.559005 0.745545 -0.152854
C172  C     C_R   0.623286 0.691928 0.274470 0.127596
C173  C     C_R   0.557950 0.688169 0.259974 -0.129707
C174  C     C_R   0.495500 0.654879 0.270421 -0.125602
C175  C     C_R   0.497473 0.625029 0.295388 -0.108546
C176  C     C_R   0.562277 0.628622 0.309999 -0.151282
C177  C     C_R   0.625150 0.661772 0.299589 -0.194973
C178  C     C_R   0.378250 0.306553 0.726148 0.126860
C179  C     C_R   0.064377 0.516935 0.391763 0.372145
C180  C     C_R   0.441558 0.314072 0.741530 -0.139505
C181  C     C_R   0.505291 0.344942 0.731152 -0.117232
C182  C     C_R   0.506801 0.368045 0.705304 -0.115492
C183  C     C_R   0.444207 0.359929 0.689734 -0.148131
C184  C     C_R   0.379984 0.329232 0.700077 -0.152731
C185  C     C_R   0.318184 0.615770 0.236348 0.081363
C186  C     C_R   0.358125 0.607667 0.213116 -0.186365
C187  C     C_R   0.397374 0.542945 0.208184 -0.145462
C188  C     C_R   0.397438 0.486215 0.226428 -0.112873
C189  C     C_R   0.358011 0.494190 0.249559 -0.140168
C190  C     C_R   0.538336 0.054509 0.608743 0.368897
C191  C     C_R   0.318495 0.558453 0.254506 -0.159225
C192  C     C_R   0.683652 0.385194 0.764447 0.083183
C193  C     C_R   0.649467 0.395371 0.788679 -0.172352
C194  C     C_R   0.610444 0.460072 0.793864 -0.169357
C195  C     C_R   0.605542 0.514954 0.774994 -0.128564
C196  C     C_R   0.640152 0.505388 0.750987 -0.133906
C197  C     C_R   0.679271 0.441008 0.745737 -0.153399
C198  C     C_R   0.377116 0.308260 0.274066 0.127205
C199  C     C_R   0.442213 0.311899 0.259470 -0.129362
C200  C     C_R   0.504927 0.344984 0.269846 -0.123061
C201  C     C_R   0.448891 0.043927 0.390411 0.398315
C202  C     C_R   0.503465 0.374804 0.294842 -0.109978
C203  C     C_R   0.438910 0.371328 0.309560 -0.151338
C204  C     C_R   0.375790 0.338322 0.299228 -0.192370
C205  C     C_R   0.620681 0.693091 0.726691 0.125452
C206  C     C_R   0.557832 0.686478 0.742314 -0.142051
C207  C     C_R   0.493551 0.655842 0.732246 -0.115428
C208  C     C_R   0.491043 0.631915 0.706481 -0.114400
C209  C     C_R   0.553214 0.639021 0.690679 -0.148809
C210  C     C_R   0.617961 0.669603 0.700700 -0.152210
C211  C     C_R   0.521234 0.207086 0.974535 0.175578
C212  C     C_R   0.972571 0.561227 0.610150 0.396596
C213  C     C_R   0.584320 0.229442 0.960887 -0.077854
C214  C     C_R   0.583739 0.295645 0.947140 -0.125376
C215  C     C_R   0.521144 0.340629 0.947584 -0.129611
C216  C     C_R   0.459379 0.319735 0.961966 -0.131767
C217  C     C_R   0.459093 0.252977 0.975266 -0.114195
C218  C     C_R   0.459806 0.798682 0.028074 0.176089
C219  C     C_R   0.518203 0.772612 0.043455 -0.085565
C220  C     C_R   0.512041 0.705429 0.056360 -0.142270
C221  C     C_R   0.448372 0.663100 0.053536 -0.111156
C222  C     C_R   0.390166 0.688579 0.038142 -0.131910
C223  C     C_R   0.499971 0.000052 0.820975 0.836071
C224  C     C_R   0.933589 0.486998 0.391560 0.372016
C225  C     C_R   0.395538 0.756395 0.025595 -0.107057
C226  C     C_R   0.794837 0.512118 0.971951 0.175572
C227  C     C_R   0.781221 0.571059 0.954970 -0.080528
C228  C     C_R   0.713923 0.576044 0.941858 -0.137383
C229  C     C_R   0.659054 0.523679 0.946262 -0.131115
C230  C     C_R   0.671519 0.466395 0.963759 -0.143635
C231  C     C_R   0.739564 0.459566 0.976140 -0.107790
C232  C     C_R   0.206727 0.473448 0.027284 0.178345
C233  C     C_R   0.236158 0.527860 0.043651 -0.090578
C234  C     C_R   0.302613 0.515435 0.056664 -0.136262
C235  C     C_R   0.461794 0.944807 0.608717 0.371041
C236  C     C_R   0.341555 0.450093 0.052666 -0.108615
C237  C     C_R   0.313284 0.396250 0.036047 -0.127274
C238  C     C_R   0.245785 0.407519 0.023554 -0.112883
C239  C     C_R   0.471731 0.796263 0.972997 0.173051
C240  C     C_R   0.408146 0.775333 0.959301 -0.083807
C241  C     C_R   0.408181 0.710597 0.944650 -0.121094
C242  C     C_R   0.470936 0.665862 0.944081 -0.132133
C243  C     C_R   0.533316 0.685366 0.958424 -0.132039
C244  C     C_R   0.533977 0.750485 0.972759 -0.105814
C245  C     C_R   0.535054 0.201595 0.029473 0.171924
C246  C     C_R   0.553319 0.959130 0.390468 0.397113
C247  C     C_R   0.477183 0.228052 0.045015 -0.075594
C248  C     C_R   0.485091 0.293963 0.058666 -0.127365
C249  C     C_R   0.550104 0.334527 0.056495 -0.117842
C250  C     C_R   0.607733 0.308683 0.040912 -0.131073
C251  C     C_R   0.600485 0.242245 0.027543 -0.106186
C252  C     C_R   0.207609 0.494079 0.972391 0.177516
C253  C     C_R   0.223198 0.436504 0.955004 -0.079272
C254  C     C_R   0.291227 0.433613 0.942320 -0.140333
C255  C     C_R   0.345036 0.486437 0.947660 -0.132017
C256  C     C_R   0.330603 0.542400 0.965547 -0.144172
C257  C     C_R   0.521773 0.936091 0.109943 0.389404
C258  C     C_R   0.261696 0.547352 0.977415 -0.113049
C259  C     C_R   0.794830 0.528690 0.027053 0.177806
C260  C     C_R   0.764295 0.473547 0.042798 -0.089950
C261  C     C_R   0.697866 0.486091 0.055798 -0.134061
C262  C     C_R   0.660069 0.552332 0.052394 -0.107681
C263  C     C_R   0.689436 0.606928 0.036382 -0.126794
C264  C     C_R   0.756903 0.595492 0.023911 -0.112587
C265  C     C_R   0.019885 0.706959 0.474513 0.176130
C266  C     C_R   0.082622 0.729403 0.460684 -0.076992
C267  C     C_R   0.081778 0.795806 0.447059 -0.127023
C268  C     C_R   0.564467 0.016220 0.891785 0.371944
C269  C     C_R   0.019312 0.840934 0.447824 -0.129237
C270  C     C_R   0.957908 0.819937 0.462379 -0.131577
C271  C     C_R   0.957848 0.752953 0.475538 -0.115043
C272  C     C_R   0.960549 0.298239 0.528077 0.176381
C273  C     C_R   0.018678 0.272346 0.543621 -0.085566
C274  C     C_R   0.012427 0.205145 0.556509 -0.142617
C275  C     C_R   0.948973 0.162596 0.553492 -0.111276
C276  C     C_R   0.891057 0.187882 0.537925 -0.131918
C277  C     C_R   0.896490 0.255730 0.525405 -0.107501
C278  C     C_R   0.294940 0.012947 0.471659 0.168058
C279  C     C_R   0.039223 0.554011 0.108811 0.369133
C280  C     C_R   0.281814 0.071933 0.454646 -0.065581
C281  C     C_R   0.214977 0.076848 0.441242 -0.120107
C282  C     C_R   0.160076 0.024339 0.445365 -0.138848
C283  C     C_R   0.172003 0.967046 0.462905 -0.144575
C284  C     C_R   0.239585 0.960338 0.475610 -0.107810
C285  C     C_R   0.706468 0.973576 0.527269 0.179072
C286  C     C_R   0.735986 0.028025 0.543600 -0.090362
C287  C     C_R   0.802432 0.015566 0.556617 -0.136615
C288  C     C_R   0.841273 0.950145 0.552657 -0.108461
C289  C     C_R   0.812914 0.896265 0.536071 -0.127339
C290  C     C_R   0.949588 0.544709 0.890619 0.382215
C291  C     C_R   0.745429 0.907575 0.523575 -0.114279
C292  C     C_R   0.973645 0.295688 0.473038 0.173917
C293  C     C_R   0.910729 0.274567 0.458996 -0.082373
C294  C     C_R   0.911363 0.209468 0.444549 -0.122983
C295  C     C_R   0.973949 0.164468 0.444581 -0.132124
C296  C     C_R   0.035599 0.184156 0.459281 -0.132741
C297  C     C_R   0.035747 0.249714 0.473362 -0.107686
C298  C     C_R   0.034218 0.701522 0.529436 0.171959
C299  C     C_R   0.976435 0.727864 0.545043 -0.075592
C300  C     C_R   0.984327 0.793810 0.558674 -0.127386
C301  C     C_R   0.472947 0.061524 0.110165 0.396194
C302  C     C_R   0.049225 0.834522 0.556417 -0.117816
C303  C     C_R   0.106755 0.808790 0.540766 -0.130746
C304  C     C_R   0.099530 0.742322 0.527417 -0.106117
C305  C     C_R   0.707551 0.994124 0.472374 0.170720
C306  C     C_R   0.723135 0.936601 0.454963 -0.064241
C307  C     C_R   0.791096 0.933844 0.442229 -0.126282
C308  C     C_R   0.844846 0.986748 0.447540 -0.138874
C309  C     C_R   0.830423 0.042656 0.465451 -0.144785
C310  C     C_R   0.761588 0.047461 0.477377 -0.114124
C311  C     C_R   0.294497 0.028914 0.526799 0.178303
C312  C     C_R   0.433202 0.988417 0.891555 0.371974
C313  C     C_R   0.263784 0.973686 0.542464 -0.089538
C314  C     C_R   0.197247 0.986190 0.555400 -0.134053
C315  C     C_R   0.159499 0.052455 0.551995 -0.107334
C316  C     C_R   0.189033 0.107133 0.536057 -0.127221
C317  C     C_R   0.256623 0.095750 0.523662 -0.114542
C318  C     C_R   0.040154 0.367360 0.652146 0.132734
C319  C     C_R   0.988096 0.332218 0.668098 -0.145897
C320  C     C_R   0.007166 0.268531 0.681743 -0.163117
C321  C     C_R   0.077758 0.238633 0.679181 -0.121231
C322  C     C_R   0.129605 0.272842 0.663188 -0.161367
C323  C     C_R   0.961747 0.444956 0.108766 0.371150
C324  C     C_R   0.111416 0.337594 0.650056 -0.132019
C325  C     C_R   0.133862 0.541327 0.351059 0.168702
C326  C     C_R   0.185501 0.488867 0.342578 -0.094362
C327  C     C_R   0.251450 0.511539 0.331052 -0.137260
C328  C     C_R   0.266981 0.586436 0.328565 -0.108810
C329  C     C_R   0.216484 0.638761 0.337465 -0.144106
C330  C     C_R   0.149849 0.616413 0.348520 -0.141117
C331  C     C_R   0.575061 0.117374 0.649683 0.162225
C332  C     C_R   0.642668 0.105179 0.662212 -0.139457
C333  C     C_R   0.683121 0.164621 0.671789 -0.125385
C334  C     C_R   0.499986 0.000377 0.179427 0.873428
C335  C     C_R   0.052230 0.457843 0.890656 0.381630
C336  C     C_R   0.656647 0.236293 0.668762 -0.120910
C337  C     C_R   0.588495 0.248568 0.656925 -0.133314
C338  C     C_R   0.547597 0.189339 0.647455 -0.094847
C339  C     C_R   0.377604 0.063341 0.349413 0.117225
C340  C     C_R   0.372439 0.134832 0.339432 -0.118228
C341  C     C_R   0.306367 0.158962 0.328363 -0.135309
C342  C     C_R   0.245506 0.112070 0.327125 -0.130067
C343  C     C_R   0.250838 0.040496 0.336715 -0.138212
C344  C     C_R   0.316659 0.016132 0.347865 -0.126853
C345  C     C_R   0.984263 0.636482 0.650667 0.106021
C346  C     C_R   0.019568 0.434848 0.637461 -0.171655
C347  C     C_R   0.044366 0.682980 0.645589 -0.092932
C348  C     C_R   0.051217 0.750115 0.658582 -0.163873
C349  C     C_R   0.998140 0.771397 0.676722 -0.129815
C350  C     C_R   0.937995 0.725804 0.681741 -0.158826
C351  C     C_R   0.930538 0.658667 0.668684 -0.153273
C352  C     C_R   0.865714 0.459050 0.350811 0.169814
C353  C     C_R   0.813349 0.510300 0.341977 -0.094394
C354  C     C_R   0.747869 0.486065 0.330473 -0.138551
C355  C     C_R   0.733523 0.410820 0.328360 -0.109109
C356  C     C_R   0.784754 0.359714 0.337601 -0.145207
C357  C     C_R   0.065198 0.517977 0.364279 -0.179695
C358  C     C_R   0.850928 0.383616 0.348632 -0.140042
C359  C     C_R   0.424652 0.882498 0.649669 0.162403
C360  C     C_R   0.356600 0.894913 0.661847 -0.141004
C361  C     C_R   0.315876 0.835653 0.671363 -0.130189
C362  C     C_R   0.342572 0.763954 0.668659 -0.123817
C363  C     C_R   0.411168 0.751478 0.657189 -0.133207
C364  C     C_R   0.452294 0.810522 0.647749 -0.093392
C365  C     C_R   0.623396 0.937886 0.349363 0.115044
C366  C     C_R   0.627882 0.866538 0.339171 -0.116763
C367  C     C_R   0.693703 0.842016 0.328036 -0.136378
C368  C     C_R   0.537030 0.056261 0.636226 -0.174516
C369  C     C_R   0.755023 0.888333 0.326975 -0.130258
C370  C     C_R   0.750411 0.959731 0.336821 -0.138240
C371  C     C_R   0.684828 0.984505 0.348020 -0.127350
C372  C     C_R   0.539370 0.867209 0.152139 0.132405
C373  C     C_R   0.487167 0.832502 0.168152 -0.145881
C374  C     C_R   0.505905 0.768809 0.181849 -0.162753
C375  C     C_R   0.576275 0.738419 0.179261 -0.121633
C376  C     C_R   0.628234 0.772140 0.163181 -0.161855
C377  C     C_R   0.610410 0.836935 0.150013 -0.132054
C378  C     C_R   0.634475 0.039126 0.851086 0.169995
C379  C     C_R   0.444782 0.038259 0.363049 -0.176443
C380  C     C_R   0.685243 0.985681 0.842725 -0.097349
C381  C     C_R   0.751513 0.007074 0.831126 -0.136460
C382  C     C_R   0.768188 0.081658 0.828418 -0.107581
C383  C     C_R   0.718534 0.134959 0.837179 -0.142657
C384  C     C_R   0.651607 0.113896 0.848329 -0.139655
C385  C     C_R   0.076149 0.616741 0.149743 0.162296
C386  C     C_R   0.143530 0.604055 0.162363 -0.139841
C387  C     C_R   0.184538 0.663236 0.171850 -0.125835
C388  C     C_R   0.158846 0.735126 0.168634 -0.121732
C389  C     C_R   0.090892 0.747902 0.156722 -0.134156
C390  C     C_R   0.980688 0.563986 0.637375 -0.182477
C391  C     C_R   0.049433 0.688942 0.147352 -0.093946
C392  C     C_R   0.887634 0.581513 0.849012 0.148304
C393  C     C_R   0.879605 0.658108 0.851147 -0.107899
C394  C     C_R   0.817258 0.692778 0.840929 -0.135129
C395  C     C_R   0.763703 0.651645 0.827947 -0.116520
C396  C     C_R   0.773000 0.575997 0.824701 -0.157213
C397  C     C_R   0.834451 0.540825 0.835341 -0.147825
C398  C     C_R   0.484925 0.136690 0.150704 0.105846
C399  C     C_R   0.544846 0.183270 0.145444 -0.093108
C400  C     C_R   0.552072 0.250299 0.158482 -0.164471
C401  C     C_R   0.933757 0.484046 0.364108 -0.178628
C402  C     C_R   0.499583 0.271374 0.176862 -0.129799
C403  C     C_R   0.439657 0.225690 0.182082 -0.158398
C404  C     C_R   0.431754 0.158724 0.168951 -0.154116
C405  C     C_R   0.365021 0.961268 0.850814 0.171313
C406  C     C_R   0.313402 0.013238 0.841961 -0.097507
C407  C     C_R   0.247732 0.989900 0.830361 -0.137752
C408  C     C_R   0.232477 0.914858 0.828155 -0.107899
C409  C     C_R   0.282971 0.863047 0.837406 -0.144146
C410  C     C_R   0.349316 0.886041 0.848549 -0.137946
C411  C     C_R   0.923795 0.383084 0.149699 0.162497
C412  C     C_R   0.462969 0.943317 0.636209 -0.175551
C413  C     C_R   0.855900 0.396189 0.161898 -0.141303
C414  C     C_R   0.814445 0.337321 0.171327 -0.130853
C415  C     C_R   0.840248 0.265332 0.168507 -0.124745
C416  C     C_R   0.908704 0.252157 0.157030 -0.134073
C417  C     C_R   0.950569 0.310802 0.147689 -0.092550
C418  C     C_R   0.112971 0.419389 0.849006 0.148160
C419  C     C_R   0.121049 0.342866 0.851361 -0.108036
C420  C     C_R   0.183180 0.307892 0.841108 -0.134636
C421  C     C_R   0.236458 0.348643 0.827887 -0.116164
C422  C     C_R   0.227074 0.424182 0.824427 -0.158323
C423  C     C_R   0.556492 0.963342 0.363062 -0.177299
C424  C     C_R   0.165849 0.459666 0.835095 -0.148568
C425  C     C_R   0.519193 0.934838 0.137457 -0.171593
C426  C     C_R   0.500079 0.000058 0.320674 0.872626
C427  C     C_R   0.565375 0.017118 0.864302 -0.179867
C428  C     C_R   0.037736 0.555871 0.136284 -0.174707
C429  C     C_R   0.947522 0.542669 0.863122 -0.164587
C430  C     C_R   0.481053 0.064215 0.137392 -0.182387
C431  C     C_R   0.433402 0.985309 0.864109 -0.178865
C432  C     C_R   0.962738 0.443532 0.136251 -0.175460
C433  C     C_R   0.053427 0.458663 0.863140 -0.165272
C434  C     C_R   0.999413 0.499442 0.650987 -0.160420
C435  C     C_R   0.999721 0.500564 0.350076 -0.188038
C436  C     C_R   0.499988 0.999845 0.650220 -0.175714
C437  C     C_R   0.499972 0.999958 0.679153 0.836174
C438  C     C_R   0.500340 0.000337 0.349317 -0.172751
C439  C     C_R   0.499401 0.999532 0.150991 -0.159865
C440  C     C_R   0.499665 0.000689 0.850084 -0.188388
C441  C     C_R   0.000131 0.499805 0.150257 -0.175480
C442  C     C_R   0.000230 0.500321 0.849400 -0.175423
C443  C     C_R   0.996866 0.498677 0.596347 0.186790
C444  C     C_R   0.998750 0.502333 0.404874 0.245004
C445  C     C_R   0.500080 0.999617 0.595451 0.243601
C446  C     C_R   0.501259 0.001794 0.404103 0.190599
C447  C     C_R   0.496924 0.998864 0.096353 0.186794
C448  C     C_R   0.999978 0.500040 0.320972 0.836636
C449  C     C_R   0.498575 0.002720 0.904878 0.245067
C450  C     C_R   0.000576 0.499409 0.095517 0.242959
C451  C     C_R   0.001058 0.501511 0.904229 0.206891
C452  C     C_R   0.141698 0.358369 0.750361 0.798044
C453  C     C_R   0.858362 0.641595 0.249636 0.777330
C454  C     C_R   0.641981 0.141400 0.750212 0.788561
C455  C     C_R   0.357944 0.858788 0.249875 0.789576
C456  C     C_R   0.858282 0.641658 0.750330 0.790794
C457  C     C_R   0.141582 0.358347 0.249659 0.778008
C458  C     C_R   0.358071 0.858539 0.750216 0.789484
C459  C     C_R   0.999987 0.500350 0.679425 0.874194
C460  C     C_R   0.641979 0.141300 0.249859 0.795902
C461  C     C_R   0.641640 0.858299 0.250341 0.799257
C462  C     C_R   0.358260 0.141507 0.749588 0.778089
C463  C     C_R   0.142007 0.641377 0.250201 0.788594
C464  C     C_R   0.857991 0.358737 0.749858 0.785640
C465  C     C_R   0.358337 0.141727 0.250310 0.791554
C466  C     C_R   0.641678 0.858428 0.749615 0.778722
C467  C     C_R   0.858049 0.358558 0.250206 0.789536
C468  C     C_R   0.141931 0.641351 0.749842 0.791932
C469  C     C_3   0.221397 0.742687 0.726058 -0.242319
C470  C     C_R   0.518753 0.134409 0.987502 -0.060120
C471  C     C_3   0.779285 0.256365 0.274125 -0.235103
C472  C     C_3   0.225388 0.190500 0.736870 -0.258316
C473  C     C_3   0.774953 0.809815 0.262517 -0.249692
C474  C     C_3   0.778398 0.257384 0.726075 -0.248871
C475  C     C_3   0.220848 0.743626 0.274153 -0.235381
C476  C     C_3   0.774023 0.809105 0.736642 -0.256028
C477  C     C_3   0.225218 0.190358 0.262676 -0.245159
C478  C     C_3   0.720900 0.243081 0.226129 -0.243093
C479  C     C_3   0.278657 0.756918 0.774192 -0.235525
C480  C     C_3   0.725168 0.689929 0.237358 -0.251154
H1    H     H_    0.349006 0.716495 0.719961 0.156156
H2    H     H_    0.152288 0.782553 0.781056 0.148701
H3    H     H_    0.574866 0.564721 0.778994 0.132484
H4    H     H_    0.636053 0.547195 0.736238 0.156542
H5    H     H_    0.704126 0.433681 0.726789 0.147353
H6    H     H_    0.444099 0.289995 0.239921 0.105980
H7    H     H_    0.554299 0.347847 0.258343 0.148669
H8    H     H_    0.552113 0.400979 0.302712 0.117149
H9    H     H_    0.437487 0.394984 0.328853 0.131378
H10   H     H_    0.325833 0.338155 0.310644 0.113215
H11   H     H_    0.558949 0.704300 0.762396 0.103354
H12   H     H_    0.446026 0.650599 0.744565 0.148383
H13   H     H_    0.716478 0.784310 0.205434 0.146913
H14   H     H_    0.440976 0.608040 0.698778 0.117479
H15   H     H_    0.551333 0.620603 0.670693 0.126912
H16   H     H_    0.665626 0.674200 0.688219 0.123179
H17   H     H_    0.632757 0.194625 0.960309 0.132762
H18   H     H_    0.631807 0.312164 0.936174 0.142084
H19   H     H_    0.520814 0.392023 0.937011 0.115627
H20   H     H_    0.411443 0.354804 0.962707 0.138042
H21   H     H_    0.410351 0.236638 0.985926 0.115500
H22   H     H_    0.568334 0.804377 0.045417 0.143949
H23   H     H_    0.556782 0.686118 0.068466 0.127377
H24   H     H_    0.283352 0.213577 0.794386 0.124957
H25   H     H_    0.444353 0.610634 0.063286 0.115201
H26   H     H_    0.340828 0.655990 0.035871 0.125148
H27   H     H_    0.350035 0.775715 0.013804 0.119836
H28   H     H_    0.822833 0.612717 0.951847 0.151062
H29   H     H_    0.703947 0.620992 0.928550 0.134517
H30   H     H_    0.606520 0.528049 0.936407 0.115620
H31   H     H_    0.628389 0.427565 0.967970 0.140511
H32   H     H_    0.748765 0.414154 0.989343 0.116181
H33   H     H_    0.206883 0.579094 0.046657 0.138593
H34   H     H_    0.323859 0.556520 0.069869 0.125915
H35   H     H_    0.151212 0.782632 0.219713 0.155389
H36   H     H_    0.393509 0.441233 0.062506 0.115107
H37   H     H_    0.343419 0.345631 0.032929 0.125207
H38   H     H_    0.224068 0.365194 0.010889 0.119796
H39   H     H_    0.359714 0.810192 0.959393 0.132839
H40   H     H_    0.359635 0.695082 0.933732 0.144703
H41   H     H_    0.470918 0.615695 0.932762 0.117953
H42   H     H_    0.581500 0.650590 0.958276 0.134865
H43   H     H_    0.583218 0.765879 0.983342 0.115721
H44   H     H_    0.426205 0.197490 0.046572 0.140626
H45   H     H_    0.440714 0.313638 0.070869 0.128617
H46   H     H_    0.847873 0.217792 0.781043 0.149017
H47   H     H_    0.555647 0.385887 0.066910 0.114461
H48   H     H_    0.658147 0.339835 0.039162 0.124422
H49   H     H_    0.645589 0.222558 0.015640 0.119916
H50   H     H_    0.182588 0.394248 0.951260 0.152426
H51   H     H_    0.302723 0.389707 0.928703 0.135756
H52   H     H_    0.398274 0.483331 0.938249 0.115868
H53   H     H_    0.372870 0.581626 0.970486 0.145061
H54   H     H_    0.250999 0.591698 0.990957 0.115479
H55   H     H_    0.792744 0.421678 0.045369 0.136224
H56   H     H_    0.675833 0.444538 0.068602 0.121866
H57   H     H_    0.280446 0.215018 0.205092 0.130796
H58   H     H_    0.608184 0.561297 0.062247 0.114496
H59   H     H_    0.660211 0.658271 0.033737 0.126039
H60   H     H_    0.779509 0.638402 0.011734 0.120219
H61   H     H_    0.130998 0.694535 0.459890 0.132954
H62   H     H_    0.129559 0.812379 0.435950 0.140559
H63   H     H_    0.018800 0.892501 0.437358 0.114708
H64   H     H_    0.910091 0.855125 0.463380 0.137537
H65   H     H_    0.909393 0.736575 0.486352 0.115198
H66   H     H_    0.068670 0.304258 0.545721 0.144507
H67   H     H_    0.056951 0.185980 0.568744 0.127680
H68   H     H_    0.717678 0.787091 0.794400 0.125083
H69   H     H_    0.944897 0.110101 0.563221 0.115115
H70   H     H_    0.841902 0.155111 0.535492 0.125219
H71   H     H_    0.851216 0.274886 0.513471 0.119739
H72   H     H_    0.323519 0.113595 0.451684 0.148177
H73   H     H_    0.205392 0.121813 0.427906 0.136049
H74   H     H_    0.107903 0.028643 0.435270 0.116525
H75   H     H_    0.128831 0.928066 0.466871 0.140491
H76   H     H_    0.248426 0.914861 0.488815 0.116828
H77   H     H_    0.706797 0.079323 0.546572 0.138347
H78   H     H_    0.823763 0.056696 0.569788 0.126121
H79   H     H_    0.197695 0.734462 0.706394 0.132103
H80   H     H_    0.893222 0.941257 0.562497 0.115081
H81   H     H_    0.842974 0.845591 0.532979 0.125143
H82   H     H_    0.723652 0.865228 0.510931 0.118859
H83   H     H_    0.862373 0.309521 0.458679 0.133363
H84   H     H_    0.863363 0.193815 0.433357 0.143420
H85   H     H_    0.974339 0.113955 0.433457 0.116851
H86   H     H_    0.083597 0.149134 0.459643 0.135675
H87   H     H_    0.084432 0.265187 0.484246 0.115342
H88   H     H_    0.925543 0.697188 0.546664 0.140824
H89   H     H_    0.940025 0.813403 0.570927 0.128710
H90   H     H_    0.804455 0.263462 0.293557 0.130949
H91   H     H_    0.054758 0.885910 0.566816 0.114351
H92   H     H_    0.157079 0.840049 0.538942 0.124326
H93   H     H_    0.144555 0.722731 0.515457 0.119801
H94   H     H_    0.682541 0.894328 0.451216 0.150447
H95   H     H_    0.802586 0.889991 0.428590 0.137396
H96   H     H_    0.898025 0.983754 0.438086 0.116354
H97   H     H_    0.872628 0.081979 0.470355 0.145742
H98   H     H_    0.750881 0.091792 0.490923 0.116062
H99   H     H_    0.292184 0.921788 0.545028 0.135910
H100  H     H_    0.175088 0.944591 0.568157 0.121833
H101  H     H_    0.206209 0.141273 0.726105 0.143080
H102  H     H_    0.107519 0.061367 0.561790 0.114594
H103  H     H_    0.159840 0.158495 0.533410 0.126093
H104  H     H_    0.279357 0.138722 0.511542 0.119355
H105  H     H_    0.042022 0.331390 0.605341 0.349399
H106  H     H_    0.171278 0.529959 0.396154 0.342493
H107  H     H_    0.614482 0.129735 0.604376 0.344068
H108  H     H_    0.374677 0.122076 0.392862 0.338039
H109  H     H_    0.918042 0.653916 0.608427 0.339421
H110  H     H_    0.826547 0.474198 0.395569 0.342358
H111  H     H_    0.386083 0.869066 0.604323 0.343275
H112  H     H_    0.653029 0.281708 0.281424 0.147260
H113  H     H_    0.794497 0.860242 0.272402 0.146622
H114  H     H_    0.627418 0.880956 0.393059 0.338411
H115  H     H_    0.541001 0.831307 0.105308 0.349536
H116  H     H_    0.671543 0.027809 0.896202 0.342514
H117  H     H_    0.116176 0.628401 0.104459 0.344085
H118  H     H_    0.854820 0.593353 0.895764 0.346568
H119  H     H_    0.418822 0.154447 0.108451 0.339417
H120  H     H_    0.325942 0.977576 0.895539 0.342176
H121  H     H_    0.885177 0.370124 0.104320 0.343275
H122  H     H_    0.147073 0.409164 0.895667 0.345984
H123  H     H_    0.932768 0.354048 0.669904 0.133891
H124  H     H_    0.801947 0.265664 0.706409 0.124244
H125  H     H_    0.967084 0.242112 0.694166 0.117667
H126  H     H_    0.092312 0.188994 0.689579 0.117213
H127  H     H_    0.184162 0.249440 0.661103 0.129362
H128  H     H_    0.152413 0.363998 0.637979 0.150649
H129  H     H_    0.174362 0.430738 0.344773 0.117570
H130  H     H_    0.290803 0.471137 0.324260 0.118750
H131  H     H_    0.318329 0.603977 0.319906 0.109486
H132  H     H_    0.229250 0.696667 0.336000 0.123401
H133  H     H_    0.111217 0.657418 0.355446 0.134284
H134  H     H_    0.664865 0.050082 0.663858 0.119867
H135  H     H_    0.195866 0.736464 0.293598 0.130500
H136  H     H_    0.735678 0.155221 0.681037 0.130638
H137  H     H_    0.689086 0.282437 0.675437 0.120594
H138  H     H_    0.568129 0.304078 0.654576 0.126142
H139  H     H_    0.495795 0.199590 0.637630 0.140158
H140  H     H_    0.418861 0.172020 0.340690 0.146841
H141  H     H_    0.301994 0.214329 0.321141 0.132571
H142  H     H_    0.194022 0.131360 0.318982 0.120607
H143  H     H_    0.203720 0.004243 0.335889 0.134499
H144  H     H_    0.319864 0.960951 0.355673 0.143298
H145  H     H_    0.086365 0.666732 0.631770 0.158733
H146  H     H_    0.792990 0.858182 0.725781 0.145758
H147  H     H_    0.097864 0.785423 0.654678 0.125864
H148  H     H_    0.003447 0.823238 0.686880 0.121048
H149  H     H_    0.897488 0.742793 0.695831 0.119976
H150  H     H_    0.883363 0.624138 0.672673 0.153190
H151  H     H_    0.823543 0.568693 0.343900 0.117573
H152  H     H_    0.707959 0.525531 0.323409 0.119265
H153  H     H_    0.682530 0.392068 0.319723 0.109815
H154  H     H_    0.772920 0.301546 0.336415 0.123297
H155  H     H_    0.890109 0.343548 0.355840 0.134773
H156  H     H_    0.334256 0.950015 0.663240 0.119404
H157  H     H_    0.205899 0.140126 0.272695 0.146015
H158  H     H_    0.262948 0.845189 0.680301 0.127937
H159  H     H_    0.309952 0.717945 0.675293 0.120585
H160  H     H_    0.431700 0.695940 0.655090 0.125964
H161  H     H_    0.504434 0.800096 0.638187 0.140387
H162  H     H_    0.581117 0.829761 0.340301 0.148007
H163  H     H_    0.697521 0.786782 0.320622 0.133723
H164  H     H_    0.806305 0.868722 0.318775 0.121067
H165  H     H_    0.797893 0.995522 0.336154 0.133846
H166  H     H_    0.682172 0.039543 0.356019 0.143671
H167  H     H_    0.431995 0.854704 0.169982 0.134180
H168  H     H_    0.696734 0.235208 0.206518 0.132132
H169  H     H_    0.465742 0.742784 0.194342 0.117298
H170  H     H_    0.590571 0.688790 0.189711 0.117463
H171  H     H_    0.682616 0.748353 0.161069 0.129176
H172  H     H_    0.651522 0.862993 0.137891 0.150846
H173  H     H_    0.673186 0.927781 0.845069 0.115772
H174  H     H_    0.790225 0.965932 0.824444 0.116434
H175  H     H_    0.819770 0.098202 0.819698 0.108904
H176  H     H_    0.732195 0.192618 0.835534 0.124498
H177  H     H_    0.613614 0.155644 0.855138 0.134026
H178  H     H_    0.165161 0.548766 0.164130 0.119657
H179  H     H_    0.303353 0.764438 0.793681 0.130985
H180  H     H_    0.236938 0.653450 0.181163 0.130738
H181  H     H_    0.191727 0.781049 0.175229 0.121037
H182  H     H_    0.071120 0.803574 0.154227 0.126128
H183  H     H_    0.997821 0.699567 0.137453 0.140354
H184  H     H_    0.919969 0.690292 0.861671 0.148323
H185  H     H_    0.809572 0.751201 0.843675 0.119657
H186  H     H_    0.714484 0.678140 0.820705 0.118194
H187  H     H_    0.731682 0.544336 0.814523 0.146311
H188  H     H_    0.839506 0.481692 0.833604 0.125959
H189  H     H_    0.586435 0.167155 0.131453 0.159514
H190  H     H_    0.705799 0.640193 0.226935 0.142369
H191  H     H_    0.598579 0.285667 0.154439 0.126238
H192  H     H_    0.505163 0.323120 0.187058 0.121154
H193  H     H_    0.399697 0.242467 0.196395 0.119283
H194  H     H_    0.384680 0.124192 0.173076 0.153694
H195  H     H_    0.324336 0.071486 0.843931 0.115494
H196  H     H_    0.208386 0.029899 0.823288 0.117166
H197  H     H_    0.181355 0.896802 0.819439 0.109359
H198  H     H_    0.270429 0.805044 0.836138 0.124459
H199  H     H_    0.387947 0.845437 0.855750 0.134794
H200  H     H_    0.834214 0.451536 0.163358 0.119209
H201  H     H_    0.294071 0.358913 0.773313 0.141601
H202  H     H_    0.761627 0.347398 0.180278 0.127960
H203  H     H_    0.807057 0.219645 0.175064 0.121066
H204  H     H_    0.928555 0.196399 0.154840 0.125890
H205  H     H_    0.002575 0.299845 0.138109 0.140501
H206  H     H_    0.080920 0.311011 0.862078 0.148278
H207  H     H_    0.190925 0.249551 0.844010 0.120188
H208  H     H_    0.285555 0.321966 0.820632 0.118520
H209  H     H_    0.268163 0.455534 0.814061 0.146346
H210  H     H_    0.160750 0.518745 0.833189 0.125587
H211  H     H_    0.302878 0.764947 0.206529 0.123858
H212  H     H_    0.218081 0.286337 0.705434 0.147519
H213  H     H_    0.696915 0.235547 0.793716 0.130396
H214  H     H_    0.293435 0.359272 0.226593 0.144967
H215  H     H_    0.706354 0.641416 0.773580 0.141155
H216  H     H_    0.141591 0.848351 0.698454 0.115487
H217  H     H_    0.074514 0.963052 0.689346 0.122700
H218  H     H_    0.073981 0.064168 0.721625 0.126394
H219  H     H_    0.142494 0.049576 0.763122 0.155388
H220  H     H_    0.210296 0.936278 0.772425 0.158724
H221  H     H_    0.849604 0.145421 0.302752 0.117947
H222  H     H_    0.918315 0.031049 0.311066 0.119306
H223  H     H_    0.785478 0.716480 0.294553 0.126227
H224  H     H_    0.926082 0.934680 0.277238 0.127990
H225  H     H_    0.863708 0.953180 0.234719 0.155878
H226  H     H_    0.795280 0.066921 0.225934 0.147248
H227  H     H_    0.055991 0.209555 0.739343 0.109547
H228  H     H_    0.945585 0.151633 0.757538 0.148318
H229  H     H_    0.947059 0.099326 0.801997 0.116292
H230  H     H_    0.061121 0.106257 0.828475 0.129534
H231  H     H_    0.173013 0.162976 0.810398 0.110338
H232  H     H_    0.941482 0.797592 0.260688 0.104151
H233  H     H_    0.052774 0.851550 0.241638 0.146248
H234  H     H_    0.650643 0.283298 0.720060 0.155282
H235  H     H_    0.054434 0.890895 0.195532 0.117401
H236  H     H_    0.942589 0.875087 0.168333 0.127442
H237  H     H_    0.829821 0.821759 0.187132 0.120666
H238  H     H_    0.859323 0.152200 0.698512 0.114909
H239  H     H_    0.926797 0.037700 0.689427 0.126021
H240  H     H_    0.926795 0.936290 0.721503 0.127951
H241  H     H_    0.857580 0.950482 0.762858 0.155652
H242  H     H_    0.789613 0.063670 0.772217 0.159227
H243  H     H_    0.149645 0.854082 0.302771 0.117953
H244  H     H_    0.081114 0.968501 0.311232 0.119690
H245  H     H_    0.347171 0.718610 0.281398 0.147533
H246  H     H_    0.073751 0.065225 0.277586 0.128227
H247  H     H_    0.136302 0.046977 0.235101 0.155310
H248  H     H_    0.204628 0.933234 0.226179 0.146926
H249  H     H_    0.828229 0.837212 0.810122 0.109678
H250  H     H_    0.940525 0.893805 0.828006 0.129339
H251  H     H_    0.054102 0.900492 0.801311 0.116485
H252  H     H_    0.054602 0.848057 0.756825 0.149608
H253  H     H_    0.943770 0.790526 0.738799 0.106238
H254  H     H_    0.058653 0.203532 0.261446 0.103382
H255  H     H_    0.946357 0.150135 0.242955 0.146802
H256  H     H_    0.778939 0.712999 0.705121 0.131322
H257  H     H_    0.942801 0.109312 0.196977 0.117328
H258  H     H_    0.053904 0.123287 0.169340 0.127653
H259  H     H_    0.167628 0.176350 0.187548 0.123296
H260  H     H_    0.640786 0.349131 0.198925 0.115242
H261  H     H_    0.573217 0.463796 0.190229 0.122444
H262  H     H_    0.572688 0.564178 0.222791 0.127270
H263  H     H_    0.641667 0.548874 0.264153 0.158293
H264  H     H_    0.710053 0.435632 0.273035 0.158694
H265  H     H_    0.347432 0.646408 0.803435 0.122387
H266  H     H_    0.415657 0.532117 0.812358 0.129706
H267  H     H_    0.215525 0.284376 0.294546 0.125948
H268  H     H_    0.424928 0.435221 0.778721 0.132220
H269  H     H_    0.364042 0.452972 0.735909 0.157035
H270  H     H_    0.295869 0.566474 0.726568 0.147538
H271  H     H_    0.555726 0.710104 0.240438 0.109523
H272  H     H_    0.445941 0.651835 0.258994 0.147572
H273  H     H_    0.449036 0.598705 0.303315 0.117061
H274  H     H_    0.564097 0.604900 0.329260 0.131676
H275  H     H_    0.675352 0.661946 0.310899 0.114286
H276  H     H_    0.441182 0.296882 0.761670 0.104093
H277  H     H_    0.553169 0.351095 0.743292 0.147887
H278  H     H_    0.848407 0.217167 0.219593 0.156285
H279  H     H_    0.556430 0.392092 0.697359 0.117520
H280  H     H_    0.445345 0.377692 0.669681 0.126713
H281  H     H_    0.331934 0.323880 0.687787 0.120616
H282  H     H_    0.360394 0.651539 0.199013 0.114674
H283  H     H_    0.428444 0.537131 0.190356 0.125768
H284  H     H_    0.428308 0.436380 0.222690 0.128933
H285  H     H_    0.358403 0.451155 0.263867 0.158363
H286  H     H_    0.289761 0.564240 0.272790 0.159295
H287  H     H_    0.651694 0.353148 0.803422 0.122268
H288  H     H_    0.583606 0.467480 0.812455 0.129659
N1    N     N_R   0.498200 0.002352 0.932751 -0.297608
N2    N     N_R   0.496625 0.999328 0.068177 -0.313766
N3    N     N_R   0.001064 0.501681 0.932373 -0.307575
N4    N     N_R   0.000528 0.499484 0.067636 -0.298239
N5    N     N_R   0.998424 0.501986 0.432751 -0.297524
N6    N     N_R   0.996571 0.499116 0.568170 -0.313720
N7    N     N_R   0.501198 0.001937 0.432247 -0.311686
N8    N     N_R   0.500074 0.999633 0.567557 -0.297969
O1    O     O_3   0.000000 0.500000 0.750000 -0.489732
O2    O     O_R   0.000220 0.561630 0.191620 -0.630222
O3    O     O_R   0.561630 0.999780 0.808380 -0.636183
O4    O     O_R   0.438370 0.000220 0.191620 -0.661742
O5    O     O_R   0.500220 0.061630 0.308380 -0.640974
O6    O     O_R   0.499780 0.938370 0.691620 -0.629820
O7    O     O_R   0.938370 0.500220 0.308380 -0.636925
O8    O     O_R   0.061630 0.499780 0.691620 -0.632943
O9    O     O_R   0.499780 0.938370 0.308380 -0.641268
O10   O     O_R   0.500220 0.061630 0.691620 -0.630183
O11   O     O_R   0.061630 0.499780 0.308380 -0.636600
O12   O     O_3   0.000000 0.500000 0.250000 -0.490614
O13   O     O_R   0.938370 0.500220 0.691620 -0.660832
O14   O     O_R   0.086770 0.352080 0.765560 -0.630988
O15   O     O_R   0.913230 0.647920 0.234440 -0.636452
O16   O     O_R   0.647920 0.086770 0.765560 -0.646491
O17   O     O_R   0.352080 0.913230 0.234440 -0.653604
O18   O     O_R   0.913230 0.647920 0.765560 -0.627370
O19   O     O_R   0.086770 0.352080 0.234440 -0.635846
O20   O     O_R   0.352080 0.913230 0.765560 -0.646261
O21   O     O_R   0.647920 0.086770 0.234440 -0.651071
O22   O     O_R   0.586770 0.852080 0.265560 -0.638622
O23   O     O_3   0.500000 0.000000 0.750000 -0.490555
O24   O     O_R   0.413230 0.147920 0.734440 -0.635696
O25   O     O_R   0.147920 0.586770 0.265560 -0.646204
O26   O     O_R   0.852080 0.413230 0.734440 -0.653866
O27   O     O_R   0.413230 0.147920 0.265560 -0.634629
O28   O     O_R   0.586770 0.852080 0.734440 -0.635120
O29   O     O_R   0.852080 0.413230 0.265560 -0.645945
O30   O     O_R   0.147920 0.586770 0.734440 -0.651337
O31   O     O_R   0.852120 0.586630 0.735130 -0.651235
O32   O     O_R   0.147880 0.413370 0.264870 -0.647622
O33   O     O_R   0.413370 0.852120 0.735130 -0.633462
O34   O     O_3   0.500000 1.000000 0.250000 -0.487941
O35   O     O_R   0.586630 0.147880 0.264870 -0.645185
O36   O     O_R   0.147880 0.413370 0.735130 -0.643577
O37   O     O_R   0.852120 0.586630 0.264870 -0.647322
O38   O     O_R   0.586630 0.147880 0.735130 -0.633633
O39   O     O_R   0.413370 0.852120 0.264870 -0.644188
O40   O     O_R   0.352120 0.086630 0.235130 -0.648896
O41   O     O_R   0.647880 0.913370 0.764870 -0.648394
O42   O     O_R   0.913370 0.352120 0.235130 -0.633723
O43   O     O_R   0.086630 0.647880 0.764870 -0.644751
O44   O     O_R   0.647880 0.913370 0.235130 -0.641044
O45   O     O_R   0.000220 0.561630 0.808380 -0.633358
O46   O     O_R   0.352120 0.086630 0.764870 -0.648266
O47   O     O_R   0.086630 0.647880 0.235130 -0.633895
O48   O     O_R   0.913370 0.352120 0.764870 -0.643732
O49   O     O_2   0.498856 0.874657 0.931080 -0.553919
O50   O     O_2   0.568905 0.106350 0.068087 -0.533233
O51   O     O_2   0.123276 0.543398 0.932688 -0.542648
O52   O     O_2   0.880791 0.545907 0.068607 -0.553082
O53   O     O_2   0.497351 0.130095 0.931801 -0.553608
O54   O     O_2   0.424393 0.892269 0.067314 -0.532882
O55   O     O_2   0.878714 0.460251 0.932551 -0.542402
O56   O     O_R   0.999780 0.438370 0.191620 -0.629876
O57   O     O_2   0.120144 0.452724 0.068470 -0.551797
O58   O     O_2   0.001238 0.374289 0.431136 -0.554292
O59   O     O_2   0.068324 0.606488 0.568073 -0.533103
O60   O     O_2   0.623477 0.043439 0.432630 -0.533513
O61   O     O_2   0.380147 0.045552 0.568477 -0.553052
O62   O     O_2   0.995609 0.629730 0.431809 -0.553815
O63   O     O_2   0.924866 0.391711 0.567311 -0.532877
O64   O     O_2   0.378816 0.960612 0.432380 -0.532800
O65   O     O_2   0.619826 0.953257 0.568453 -0.552062
O66   O     O_3   0.049251 0.377665 0.595627 -0.764286
O67   O     O_R   0.438370 0.000220 0.808380 -0.636634
O68   O     O_3   0.126127 0.530611 0.406857 -0.760885
O69   O     O_3   0.575559 0.105904 0.593910 -0.766603
O70   O     O_3   0.401912 0.088627 0.404566 -0.761949
O71   O     O_3   0.942241 0.619073 0.596342 -0.755530
O72   O     O_3   0.871380 0.473961 0.406456 -0.761134
O73   O     O_3   0.424657 0.893298 0.593850 -0.765293
O74   O     O_3   0.600792 0.915157 0.404686 -0.761940
O75   O     O_3   0.548636 0.877562 0.095621 -0.763990
O76   O     O_3   0.626386 0.028957 0.906896 -0.760565
O77   O     O_3   0.076957 0.605063 0.093991 -0.766650
O78   O     O_R   0.561630 0.999780 0.191620 -0.633185
O79   O     O_3   0.902349 0.588414 0.905003 -0.770514
O80   O     O_3   0.442902 0.119529 0.096363 -0.755491
O81   O     O_3   0.370745 0.976451 0.906436 -0.760447
O82   O     O_3   0.924234 0.393738 0.093892 -0.765545
O83   O     O_3   0.099938 0.414817 0.905090 -0.770477
O84   O     O_R   0.999780 0.438370 0.808380 -0.632648
Zn1   Zn    Zn3+2 0.088070 0.500110 0.728590 0.973679
Zn2   Zn    Zn3+2 0.411930 0.999890 0.771410 0.960039
Zn3   Zn    Zn3+2 0.999890 0.588070 0.228590 0.982453
Zn4   Zn    Zn3+2 0.000110 0.411930 0.771410 0.984997
Zn5   Zn    Zn3+2 0.411930 0.999890 0.228590 0.955555
Zn6   Zn    Zn3+2 0.588070 0.000110 0.771410 0.960418
Zn7   Zn    Zn3+2 0.000110 0.411930 0.228590 0.983531
Zn8   Zn    Zn3+2 0.999890 0.588070 0.771410 0.986268
Zn9   Zn    Zn3+2 0.911930 0.499890 0.271410 0.960475
Zn10  Zn    Zn3+2 0.499890 0.088070 0.728590 0.982780
Zn11  Zn    Zn3+2 0.500110 0.911930 0.271410 0.980586
Zn12  Zn    Zn3+2 0.911930 0.499890 0.728590 0.952722
Zn13  Zn    Zn3+2 0.088070 0.500110 0.271410 0.960650
Zn14  Zn    Zn3+2 0.500110 0.911930 0.728590 0.983863
Zn15  Zn    Zn3+2 0.499890 0.088070 0.271410 0.982425
Zn16  Zn    Zn3+2 0.588070 0.000110 0.228590 0.976905

loop_
_geom_bond_atom_site_label_1
_geom_bond_atom_site_label_2
_ccdc_geom_bond_type
C172  C177  A    
C353  H151  S    
C167  H266  S    
C322  C324  A    
C105  C110  A    
C126  C127  A    
C460  O35   A    
C8    C26   S    
C22   C48   S    
C201  C446  A    
C277  H71   S    
C291  H82   S    
C79   C87   A    
C114  C115  A    
C219  H22   S    
C252  C258  A    
C15   C32   S    
C398  C430  S    
C165  C166  A    
C338  H139  S    
C109  H219  S    
O38   Zn10  S    
O19   Zn7   S    
C282  C283  A    
C382  C383  A    
O3    Zn6   S    
C193  H287  S    
C367  H163  S    
C3    C28   S    
C30   C454  S    
C385  C386  A    
C379  C438  A    
C296  H86   S    
C60   C205  S    
C411  C413  A    
C106  C107  A    
C10   C28   S    
C305  C310  A    
C268  C449  A    
C108  C109  A    
C392  C429  S    
C274  C275  A    
C149  H251  S    
O23   Zn6   S    
C33   C457  S    
C234  H34   S    
C182  C183  A    
C425  C439  A    
C395  C396  A    
C36   C53   S    
C19   C37   S    
C113  C285  S    
C115  H222  S    
C37   C461  S    
C451  N3    S    
C279  C428  A    
C235  C412  A    
C78   C96   A    
C272  C273  A    
C8    H1    S    
C326  C327  A    
C310  H98   S    
C12   H234  S    
C323  C450  A    
C18   H2    S    
O34   Zn15  S    
C443  N6    S    
C215  H19   S    
C20   C45   S    
C255  H52   S    
C244  H43   S    
C72   C94   A    
C71   N6    A    
C213  H17   S    
C137  C138  A    
C199  C200  A    
C4    C56   S    
C304  H93   S    
C262  H58   S    
C9    C52   S    
C234  C236  A    
C459  O13   A    
C424  H210  S    
C50   C476  S    
C228  C229  A    
C280  H72   S    
C370  H165  S    
C337  C338  A    
C450  N4    S    
C359  C412  S    
C180  H276  S    
O45   Zn8   S    
C140  C141  A    
C461  O44   A    
C40   C58   S    
C202  C203  A    
C312  C431  A    
O28   Zn14  S    
C228  H29   S    
C398  C404  A    
C101  C278  S    
C263  C264  A    
C211  C470  S    
O25   Zn13  S    
C340  C341  A    
O47   Zn3   S    
C407  H196  S    
C459  O8    A    
C135  C298  S    
C26   C479  S    
C206  C207  A    
C336  C337  A    
O12   Zn9   S    
C396  H187  S    
C16   H267  S    
C124  C292  S    
C314  C315  A    
C181  C182  A    
C138  H242  S    
C323  O82   S    
C411  C417  A    
C316  C317  A    
C328  H131  S    
C453  O15   A    
C113  C146  A    
C25   C42   S    
C405  C410  A    
C46   C470  A    
C229  C230  A    
C18   C479  S    
C369  H164  S    
C54   C172  S    
C386  H178  S    
C44   C471  S    
C249  H47   S    
C286  H77   S    
C88   C102  A    
C355  C356  A    
C37   C473  S    
C375  C376  A    
C377  H172  S    
C352  C353  A    
O7    Zn9   S    
C31   C455  S    
C229  H30   S    
C274  H67   S    
C454  O16   A    
C48   C474  S    
C1    C442  S    
H120  O81   S    
C421  H208  S    
C86   C99   A    
C246  C446  A    
C141  H244  S    
C41   C59   S    
C154  C155  A    
C324  H128  S    
C46   C84   A    
C257  C447  A    
C50   C145  S    
C296  C297  A    
C177  H275  S    
C76   N7    A    
C36   C468  S    
C51   C152  S    
C111  C118  A    
C448  O11   A    
C198  C204  A    
C381  C382  A    
C55   C178  S    
O24   Zn10  S    
C384  H177  S    
C17   C34   S    
C73   C95   A    
C223  O67   A    
C383  C384  A    
C131  H237  S    
C382  H175  S    
C45   C472  S    
C130  H236  S    
C179  O68   S    
C47   C126  S    
C333  C336  A    
C420  C421  A    
C160  H260  S    
C17   C478  S    
C275  H69   S    
C89   C101  A    
C214  C215  A    
C474  H124  S    
O78   Zn16  S    
C267  H62   S    
C196  C197  A    
C66   N2    A    
C455  O39   A    
C430  C439  A    
C480  H190  S    
C139  C140  A    
C326  H129  S    
C393  H184  S    
C309  C310  A    
C71   C93   A    
C200  H7    S    
C112  O56   A    
O23   Zn2   S    
C393  C394  A    
C163  H263  S    
C23   C41   S    
C6    C33   S    
C416  C417  A    
C156  C158  A    
C130  C131  A    
H121  O82   S    
C290  C429  A    
C365  C366  A    
C224  C401  A    
C465  O27   A    
C17   H278  S    
C306  H94   S    
C318  C346  S    
C413  H200  S    
C348  C349  A    
C57   C85   A    
C207  H12   S    
C11   H223  S    
C128  H233  S    
C122  H229  S    
C350  C351  A    
C380  H173  S    
C223  C440  S    
C319  H123  S    
C394  C395  A    
C195  C196  A    
C129  H235  S    
C151  H253  S    
C187  C188  A    
C56   C185  S    
C200  C202  A    
C193  C194  A    
C308  H96   S    
C359  C360  A    
C2    C218  S    
C322  H127  S    
C233  H33   S    
C395  H186  S    
C409  C410  A    
C109  C110  A    
C444  N5    S    
C284  H76   S    
C143  C144  A    
C475  H135  S    
C380  C381  A    
C334  O4    A    
C446  N7    S    
C165  C171  A    
C468  O43   A    
C345  C351  A    
C421  C422  A    
C169  H268  S    
C352  C358  A    
C36   C469  S    
C403  C404  A    
C267  C269  A    
C15   C60   S    
C54   C480  S    
C419  C420  A    
C61   N1    A    
C300  H89   S    
C38   C55   S    
C128  C129  A    
C21   C49   S    
C370  C371  A    
C313  C314  A    
C335  C451  A    
C167  C169  A    
C422  H209  S    
C372  C373  A    
C400  H191  S    
C352  C401  S    
H107  O69   S    
C464  O26   A    
C249  C250  A    
C293  C294  A    
C5    C58   S    
C29   C47   S    
C147  H249  S    
C247  H44   S    
C317  H104  S    
C30   C48   S    
C220  H23   S    
C221  H25   S    
C1    O84   A    
C159  C160  A    
C253  C254  A    
C264  H60   S    
C456  O31   A    
C19   C47   S    
C410  H199  S    
C170  C171  A    
C240  H39   S    
C399  C400  A    
C373  H167  S    
C126  C131  A    
C236  C237  A    
O30   Zn1   S    
C202  H8    S    
C241  C242  A    
O10   Zn10  S    
C154  H255  S    
C189  C191  A    
C174  C175  A    
C437  O10   A    
C458  O33   A    
O36   Zn1   S    
C365  C423  S    
C366  C367  A    
C3    C55   S    
C27   C44   S    
C269  H63   S    
C146  C305  S    
C24   C57   A    
C256  C258  A    
C372  C425  S    
C107  C108  A    
C397  H188  S    
C354  H152  S    
C359  C364  A    
C74   C87   A    
C233  C234  A    
C335  O83   S    
C27   C478  S    
C76   C89   A    
C263  H59   S    
C404  H194  S    
C235  C445  A    
C166  H265  S    
C61   O49   S    
C339  C344  A    
C32   C456  S    
C114  H221  S    
C237  C238  A    
C89   C103  A    
C452  O36   A    
C78   C470  A    
H122  O83   S    
C230  C231  A    
C457  O32   A    
C391  H183  S    
C5    H213  S    
C360  C361  A    
C340  H140  S    
C203  H9    S    
C471  H90   S    
C161  H261  S    
C383  H176  S    
C464  O48   A    
C226  C231  A    
C429  C442  A    
C120  H227  S    
O39   Zn11  S    
C372  C377  A    
C389  H182  S    
C315  H102  S    
C344  H144  S    
O23   Zn10  S    
C283  H75   S    
C280  C281  A    
C136  H240  S    
C3    H201  S    
C333  H136  S    
C222  C225  A    
C426  O9    A    
C74   O62   S    
C287  H78   S    
C41   C477  S    
C433  C442  A    
C27   C460  S    
C227  H28   S    
C201  C379  A    
C427  C440  A    
C77   O65   S    
C65   N1    A    
C52   C478  S    
C221  C222  A    
C357  C435  A    
C174  H272  S    
O11   Zn13  S    
C246  C423  A    
C65   O53   S    
C254  H51   S    
C106  H216  S    
C401  C435  A    
C356  C358  A    
C209  C210  A    
C39   C56   S    
C145  C151  A    
C10   C55   S    
C454  O38   A    
O4    Zn5   S    
C11   C54   S    
H106  O68   S    
C69   N4    A    
C360  H156  S    
C361  H158  S    
O17   Zn5   S    
C312  O81   S    
C170  H269  S    
C217  H21   S    
C321  C322  A    
O1    Zn8   S    
H117  O77   S    
C457  O19   A    
C311  C313  A    
C290  C451  A    
C403  H193  S    
C246  O74   S    
C294  H84   S    
C37   C54   S    
C4    H211  S    
C155  C156  A    
C120  C121  A    
C420  H207  S    
C402  C403  A    
C242  H41   S    
O48   Zn4   S    
C62   C84   A    
C72   N7    A    
C7    C32   S    
C121  H228  S    
C303  H92   S    
C142  C143  A    
C223  O3    A    
C6    C59   S    
H115  O75   S    
C328  C329  A    
C93   C135  A    
C238  H38   S    
C39   C463  S    
C8    C53   S    
C320  H125  S    
C449  N1    S    
C67   C81   A    
C262  C263  A    
C435  C448  S    
C320  C321  A    
C257  O75   S    
C392  C397  A    
C66   C80   A    
C285  C291  A    
C42   C476  S    
C318  C324  A    
C436  C437  S    
C34   C471  S    
C41   C465  S    
C22   H46   S    
C49   C139  S    
C186  C187  A    
C153  H254  S    
C225  H27   S    
C117  C118  A    
C260  C261  A    
C212  O71   S    
C45   C119  S    
C466  O28   A    
C205  C210  A    
C463  O25   A    
C83   C96   A    
C158  H259  S    
C279  C450  A    
C257  C425  A    
C240  C241  A    
O15   Zn3   S    
C108  H218  S    
C63   O51   S    
C290  O79   S    
C351  H150  S    
C332  H134  S    
C118  H226  S    
C460  O21   A    
C236  H36   S    
C117  H225  S    
C365  C371  A    
C465  O40   A    
C64   N4    A    
C276  C277  A    
O67   Zn2   S    
C230  H31   S    
C279  O77   S    
O18   Zn8   S    
C283  C284  A    
H111  O73   S    
C150  H252  S    
C159  C164  A    
C21   H35   S    
O44   Zn16  S    
C189  H285  S    
C152  C153  A    
C434  C459  S    
O34   Zn16  S    
C63   C85   A    
C259  C260  A    
C469  H79   S    
C13   C68   A    
C210  H16   S    
C2    C35   A    
C94   C146  A    
C478  H168  S    
C72   O60   S    
C413  C414  A    
C77   N8    A    
C276  H70   S    
C82   C99   A    
C275  C276  A    
C381  H174  S    
O5    Zn15  S    
C426  O5    A    
H116  O76   S    
C161  C162  A    
C292  C297  A    
C220  C221  A    
O31   Zn12  S    
C354  C355  A    
C376  H171  S    
C353  C354  A    
C213  C214  A    
C172  C173  A    
C198  C199  A    
C231  H32   S    
C261  H56   S    
C110  H220  S    
C364  H161  S    
C349  C350  A    
C6    H214  S    
O16   Zn6   S    
C84   C97   A    
C321  H126  S    
C239  C240  A    
C31   C49   S    
C87   C100  A    
C29   C453  S    
C92   C124  A    
C294  C295  A    
C80   C97   A    
C123  C125  A    
C81   C98   A    
C59   C198  S    
C132  C138  A    
C243  C244  A    
C98   C99   A    
C13   C81   A    
C168  C443  A    
C479  H179  S    
C282  H74   S    
C285  C286  A    
O20   Zn2   S    
C169  C170  A    
C15   H256  S    
C337  H138  S    
C38   C462  S    
C147  C148  A    
C40   C474  S    
O41   Zn6   S    
C385  C391  A    
C375  H170  S    
C476  H146  S    
C301  C447  A    
O56   Zn7   S    
C19   C480  S    
C251  H49   S    
C38   C472  S    
C208  C209  A    
C301  C430  A    
C363  C364  A    
C335  C433  A    
C418  C419  A    
C345  C347  A    
C14   C31   S    
C190  O69   S    
O8    Zn1   S    
C461  O22   A    
C70   O58   S    
C334  O78   A    
C69   O57   S    
C194  C195  A    
C245  C251  A    
C75   N6    A    
C101  C157  A    
C315  C316  A    
C95   C157  A    
C269  C270  A    
C426  C438  S    
C53   C479  S    
C64   O52   S    
C453  O37   A    
C51   C477  S    
C64   C86   A    
C145  C147  A    
C300  C302  A    
C185  C191  A    
C356  H154  S    
C211  C217  A    
C288  C289  A    
C152  C158  A    
C191  H286  S    
C468  O30   A    
C385  C428  S    
C207  C208  A    
H118  O79   S    
C299  H88   S    
C20   H24   S    
C452  O14   A    
C396  C397  A    
C259  C264  A    
C34   C467  S    
O34   Zn5   S    
C13   C226  S    
C144  H248  S    
C35   C83   A    
C136  C137  A    
C473  H113  S    
H114  O74   S    
C15   C476  S    
C205  C206  A    
C419  H206  S    
C271  H65   S    
C307  C308  A    
C405  C431  S    
C9    H112  S    
C329  H132  S    
H119  O80   S    
C40   C464  S    
C95   C104  A    
C175  C176  A    
C184  H281  S    
C63   N3    A    
C409  H198  S    
C467  O29   A    
H105  O66   S    
C176  H274  S    
C339  C340  A    
C250  H48   S    
C323  C432  A    
C218  C219  A    
C242  C243  A    
O42   Zn7   S    
C35   C239  S    
C325  C330  A    
C367  C369  A    
O35   Zn15  S    
C192  C197  A    
C9    C471  S    
C47   C473  S    
O1    Zn4   S    
C121  C122  A    
C415  H203  S    
C418  C424  A    
C119  C125  A    
C53   C165  S    
C342  H142  S    
O12   Zn3   S    
H108  O70   S    
C94   C103  A    
C341  H141  S    
C245  C247  A    
C61   C83   A    
C414  C415  A    
O23   Zn14  S    
H110  O72   S    
C148  C149  A    
C343  H143  S    
C378  C380  A    
C127  C128  A    
C374  H169  S    
C112  O2    A    
C7    C60   S    
C219  C220  A    
C309  H97   S    
C248  C249  A    
C394  H185  S    
C387  H180  S    
C162  C163  A    
C76   O64   S    
C447  N2    S    
C156  H258  S    
C175  H273  S    
C224  C444  A    
C155  H257  S    
C212  C443  A    
C204  H10   S    
C65   C78   A    
C12   C30   S    
C342  C343  A    
C90   C124  A    
C70   C92   A    
C168  O66   S    
C392  C393  A    
C24   C232  S    
C241  H40   S    
C93   C102  A    
C258  H54   S    
C68   C259  S    
C178  C180  A    
C119  C120  A    
C173  H271  S    
C298  C299  A    
C376  C377  A    
C448  O7    A    
C325  C357  S    
C33   C51   S    
C79   C135  A    
C105  C106  A    
C107  H217  S    
C34   C52   S    
C7    C25   S    
C164  H264  S    
C355  H153  S    
C252  C253  A    
C386  C387  A    
C265  C271  A    
C17   C44   S    
C327  C328  A    
C331  C332  A    
C149  C150  A    
C160  C161  A    
O29   Zn9   S    
C388  H181  S    
C412  C436  A    
C343  C344  A    
C134  H239  S    
C261  C262  A    
O1    Zn12  S    
C311  C317  A    
C12   C474  S    
C232  C233  A    
C194  H288  S    
C111  C114  A    
C477  H157  S    
C23   H57   S    
C215  C216  A    
O9    Zn11  S    
C325  C326  A    
C14   C475  S    
O46   Zn2   S    
C4    C31   S    
O27   Zn15  S    
C319  C320  A    
C44   C111  S    
C256  H53   S    
C307  H95   S    
C408  C409  A    
C125  H231  S    
C378  C427  S    
C273  H66   S    
C281  H73   S    
C103  C104  A    
C389  C391  A    
C260  H55   S    
C270  C271  A    
C48   C132  S    
C179  C444  A    
C316  H103  S    
C148  H250  S    
C141  C142  A    
C18   C36   S    
C362  H159  S    
C67   N3    A    
C180  C181  A    
C115  C116  A    
C445  N8    S    
O32   Zn13  S    
C43   C469  S    
C411  C432  S    
C70   N5    A    
C14   C56   S    
C203  C204  A    
C346  C434  A    
C272  C277  A    
C75   O63   S    
C179  C357  A    
C417  H205  S    
C329  C330  A    
C123  H230  S    
C163  C164  A    
C91   C104  A    
C201  O70   S    
C127  H232  S    
C196  H4    S    
C416  H204  S    
C232  C238  A    
C432  C441  A    
C173  C174  A    
O40   Zn5   S    
C331  C368  S    
C254  C255  A    
C305  C306  A    
C330  H133  S    
C288  H80   S    
C314  H100  S    
C292  C293  A    
C297  H87   S    
C334  C439  S    
C190  C445  A    
C286  C287  A    
C181  H277  S    
C224  O72   S    
C423  C438  A    
C358  H155  S    
O84   Zn4   S    
C116  C117  A    
C66   O54   S    
C188  H284  S    
C437  O6    A    
C43   C105  S    
C332  C333  A    
C222  H26   S    
C227  C228  A    
C24   C82   A    
C85   C98   A    
C168  C346  A    
C374  C375  A    
O13   Zn12  S    
C187  H283  S    
C5    C22   S    
C345  C390  S    
C270  H64   S    
C132  C133  A    
C418  C433  S    
O22   Zn11  S    
C295  C296  A    
C182  H279  S    
C407  C408  A    
O21   Zn16  S    
C239  C244  A    
C69   C82   A    
C371  H166  S    
C197  H5    S    
C268  O76   S    
C306  C307  A    
C265  C266  A    
C62   N2    A    
C218  C225  A    
C9    C27   S    
C195  H3    S    
C12   C58   S    
C52   C159  S    
C77   C91   A    
C116  H224  S    
C303  C304  A    
C278  C284  A    
C422  C424  A    
C266  H61   S    
C10   C472  S    
C295  H85   S    
C28   C452  S    
C463  O47   A    
C26   C43   S    
C366  H162  S    
C268  C427  A    
C348  H147  S    
C28   C45   S    
C186  H282  S    
O33   Zn14  S    
C209  H15   S    
C368  C436  A    
C3    C20   S    
C301  O80   S    
C456  O18   A    
C216  C217  A    
C142  H246  S    
C400  C402  A    
C42   C60   S    
C299  C300  A    
C129  C130  A    
C388  C389  A    
C134  C136  A    
C281  C282  A    
O26   Zn12  S    
C362  C363  A    
C91   C113  A    
C14   H245  S    
C137  H241  S    
C188  C189  A    
C462  O46   A    
C16   C59   S    
C472  H101  S    
C216  H20   S    
C29   C480  S    
C74   N5    A    
C183  C184  A    
C318  C319  A    
C406  H195  S    
C302  H91   S    
C190  C368  A    
C20   C38   S    
C139  C144  A    
C23   C51   S    
C415  C416  A    
C21   C39   S    
C243  H42   S    
C428  C441  A    
C62   O50   S    
C22   C40   S    
C96   C97   A    
C206  H11   S    
C100  C102  A    
C273  C274  A    
C458  O20   A    
C298  C304  A    
C390  C434  A    
C57   C252  S    
C32   C50   S    
C162  H262  S    
O37   Zn9   S    
C214  H18   S    
C49   C475  S    
C235  O73   S    
C68   C86   A    
C39   C475  S    
C176  C177  A    
C211  C213  A    
C363  H160  S    
C226  C227  A    
C253  H50   S    
C19   H13   S    
C287  C288  A    
C166  C167  A    
C293  H83   S    
C278  C280  A    
C402  H192  S    
C25   C50   S    
C208  H14   S    
C255  C256  A    
O1    Zn1   S    
C308  C309  A    
C92   C100  A    
C143  H247  S    
C369  C370  A    
C462  O24   A    
O43   Zn8   S    
C406  C407  A    
C1    O45   A    
C302  C303  A    
C79   C265  S    
C312  C449  A    
C157  C311  S    
C467  O42   A    
C26   C458  S    
C150  C151  A    
O14   Zn4   S    
C199  H6    S    
C67   O55   S    
C90   C272  S    
C248  H45   S    
C46   C245  S    
C88   C90   A    
O34   Zn11  S    
C247  C248  A    
C73   N8    A    
C331  C338  A    
C171  H270  S    
C408  H197  S    
C361  C362  A    
C11   C473  S    
C71   O59   S    
C42   C466  S    
C7    H215  S    
C10   H212  S    
C192  C193  A    
O12   Zn13  S    
C16   C33   S    
C347  C348  A    
C373  C374  A    
C58   C192  S    
C4    C21   S    
C212  C390  A    
C16   C477  S    
C133  C134  A    
O12   Zn7   S    
O2    Zn3   S    
C313  H99   S    
C6    C23   S    
C466  O41   A    
C350  H149  S    
C289  C291  A    
C399  H189  S    
C405  C406  A    
C183  H280  S    
H109  O71   S    
C378  C384  A    
C327  H130  S    
C250  C251  A    
C2    C80   A    
C266  C267  A    
C25   H68   S    
C237  H37   S    
C347  H145  S    
C75   C88   A    
O6    Zn14  S    
C11   C29   S    
C8    C469  S    
C5    C30   S    
C18   C43   S    
C112  C441  S    
C122  C123  A    
C341  C342  A    
C398  C399  A    
C414  H202  S    
C185  C186  A    
C133  H238  S    
C339  C379  S    
C153  C154  A    
C289  H81   S    
C336  H137  S    
C178  C184  A    
C387  C388  A    
C140  H243  S    
C73   O61   S    
C431  C440  A    
C349  H148  S    
C455  O17   A    
