data_mof_unit_10220.cif
_audit_creation_date              2013-03-05T15:43:53-0500
_audit_creation_method            fapswitch 2.2
_symmetry_space_group_name_H-M    P1
_symmetry_Int_Tables_number       1
_space_group_crystal_system       triclinic
_cell_length_a                    8.376768
_cell_length_b                    15.097089
_cell_length_c                    18.858779
_cell_angle_alpha                 99.960678
_cell_angle_beta                  91.184761
_cell_angle_gamma                 99.972848
_cell_volume                      2310.37502322

loop_
_atom_site_label
_atom_site_type_symbol
_atom_site_description
_atom_site_fract_x
_atom_site_fract_y
_atom_site_fract_z
_atom_type_partial_charge
P1    P     P_3+3 0.038110 0.412300 0.335300 0.518513
O1    O     O_2   0.871030 0.438240 0.324420 -0.381442
O2    O     O_3   0.120590 0.445310 0.413740 -0.329000
O3    O     O_3   0.663040 0.605930 0.370050 -0.358474
O4    O     O_2   0.761562 0.538502 0.243316 -0.373574
O5    O     O_3   0.004140 0.291862 0.310888 -0.616333
O6    O     O_3   0.720473 0.708434 0.259134 -0.490575
H1    H     H_    0.746935 0.775616 0.365363 0.147516
C1    C     C_3   0.717357 0.868268 0.293602 -0.933218
H2    H     H_    0.849667 0.887635 0.287914 0.320031
H3    H     H_    0.653112 0.868431 0.241593 0.240492
P2    P     P_3+3 0.679950 0.711710 0.558590 0.446408
P3    P     P_3+3 0.142372 0.773349 0.413771 0.430464
O7    O     O_2   0.855660 0.723510 0.537160 -0.360276
O8    O     O_3   0.086340 0.654970 0.406630 -0.335363
O9    O     O_2   0.041944 0.817407 0.473017 -0.395441
O10   O     O_3   0.692513 0.749465 0.652023 -0.578027
O11   O     O_3   0.070531 0.809350 0.337536 -0.526289
C2    C     C_3   0.144992 0.775739 0.274673 0.966832
H4    H     H_    0.184774 0.709501 0.278496 -0.672276
C3    C     C_3   0.292398 0.846735 0.264185 0.099235
H5    H     H_    0.378107 0.857229 0.311470 0.023212
C4    C     C_3   0.248209 0.741903 0.622001 0.308867
H6    H     H_    0.343221 0.706646 0.596227 0.042751
H7    H     H_    0.143376 0.732497 0.583025 0.116525
C5    C     C_3   0.317879 0.844054 0.643896 0.138252
H8    H     H_    0.343131 0.875468 0.595320 0.030249
Ba1   Ba    Ba6+2 0.854120 0.540280 0.465540 1.516937
C6    C     C_3   0.920600 0.242791 0.359622 1.151530
H9    H     H_    0.840304 0.284999 0.389206 0.058186
C7    C     C_3   0.807173 0.158352 0.316323 -1.213493
H10   H     H_    0.726870 0.180977 0.280827 0.311366
C8    C     C_3   0.732063 0.681517 0.686936 0.450223
H11   H     H_    0.639247 0.618221 0.672898 0.128332
C9    C     C_3   0.734125 0.714554 0.767944 -1.013051
H12   H     H_    0.828292 0.776857 0.784086 0.281832
H13   H     H_    0.761432 0.660876 0.797325 0.228279
H14   H     H_    0.613684 0.730776 0.783181 0.263209
P4    P     P_3+3 0.151600 0.587780 0.664700 0.464721
O12   O     O_2   0.318670 0.561790 0.675630 -0.349439
O13   O     O_3   0.069120 0.554770 0.586270 -0.414379
O14   O     O_3   0.526680 0.394150 0.629950 -0.414859
O15   O     O_3   0.199307 0.707348 0.683764 -0.543639
P5    P     P_3+3 0.060757 0.227027 0.592283 0.513391
O16   O     O_3   0.607620 0.388570 0.462320 -0.366466
O17   O     O_3   0.103380 0.345110 0.593380 -0.309690
O18   O     O_2   0.197263 0.186056 0.552171 -0.389745
O19   O     O_3   0.095171 0.211843 0.680851 -0.517779
Ba2   Ba    Ba6+2 0.335710 0.459790 0.534460 1.153190
P6    P     P_3+3 0.643064 0.599701 0.277164 0.464653
C10   C     C_3   0.677243 0.773997 0.314209 0.565812
H15   H     H_    0.545308 0.758691 0.322729 -0.036043
H16   H     H_    0.679359 0.920005 0.336073 0.204683
O20   O     O_3   0.582100 0.611510 0.537680 -0.392749
C11   C     C_3   0.424726 0.272875 0.296842 1.089701
H17   H     H_    0.416167 0.344007 0.322116 -0.125538
C12   C     C_3   0.532602 0.273662 0.231115 -0.009695
H18   H     H_    0.489310 0.314832 0.193788 0.032433
P7    P     P_3+3 0.511351 0.273568 0.437623 0.478041
O21   O     O_2   0.334040 0.276520 0.462890 -0.284687
O22   O     O_3   0.501506 0.228501 0.344342 -0.645826
H19   H     H_    0.353080 0.820278 0.215051 0.053860
C13   C     C_3   0.960407 0.229106 0.720169 0.385292
H20   H     H_    0.929547 0.296421 0.714547 0.066805
H21   H     H_    0.856128 0.172726 0.702051 0.077426
C14   C     C_3   0.999443 0.231743 0.799655 -0.911396
H22   H     H_    0.102198 0.288207 0.819668 0.252970
P8    P     P_3+3 0.545856 0.404781 0.723546 0.497386
C15   C     C_3   0.512303 0.229237 0.690876 0.443613
H23   H     H_    0.645564 0.243148 0.688400 -0.083725
O23   O     O_2   0.422051 0.464911 0.752676 -0.366457
O24   O     O_3   0.459393 0.296804 0.741034 -0.449775
H24   H     H_    0.456192 0.226144 0.636494 0.068190
H25   H     H_    0.502490 0.083823 0.671382 0.054579
C16   C     C_3   0.462875 0.136177 0.712882 0.143716
H26   H     H_    0.327762 0.118427 0.712158 0.110530
C17   C     C_R   0.003553 0.456666 0.049279 0.047952
C18   C     C_R   0.905278 0.411627 0.096369 0.150901
C19   C     C_R   0.749411 0.366685 0.072707 -0.238031
C20   C     C_R   0.694720 0.359160 0.001854 -0.161332
C21   C     C_R   0.787954 0.406299 0.954309 -0.014259
C22   C     C_R   0.943868 0.455110 0.977859 -0.039672
C23   C     C_R   0.722379 0.408416 0.885433 0.510579
C24   C     C_R   0.817236 0.453677 0.835792 -0.198906
C25   C     C_R   0.978753 0.500693 0.859066 -0.038569
C26   C     C_R   0.038441 0.502994 0.930974 -0.034856
C27   C     C_R   0.756749 0.457443 0.765027 0.253544
C28   C     C_R   0.859867 0.504908 0.721047 -0.566239
C29   C     C_R   0.024171 0.541247 0.738301 0.271079
C30   C     C_R   0.080477 0.546658 0.811310 0.032823
C31   C     C_R   0.159014 0.504380 0.074150 -0.041701
C32   C     C_R   0.216786 0.505871 0.146194 -0.005608
C33   C     C_R   0.114294 0.461592 0.194083 -0.063759
C34   C     C_R   0.961632 0.412432 0.166791 -0.185618
H27   H     H_    0.667869 0.339242 0.109624 0.132892
H28   H     H_    0.884413 0.373721 0.199648 0.155973
C35   C     C_R   0.231532 0.599924 0.839318 -0.168940
C36   C     C_R   0.286582 0.604684 0.911357 0.089867
C37   C     C_R   0.192523 0.553794 0.956686 0.019970
C38   C     C_R   0.253526 0.553402 0.027834 0.005895
C39   C     C_R   0.438442 0.656711 0.938126 -0.207981
C40   C     C_R   0.499962 0.654332 0.007426 -0.200173
C41   C     C_R   0.408988 0.602337 0.052641 0.121509
C42   C     C_R   0.375397 0.552433 0.170144 -0.018278
C43   C     C_R   0.470705 0.599204 0.122205 -0.242557
C44   C     C_R   0.431361 0.552212 0.241775 0.175262
C45   C     C_R   0.324976 0.513289 0.289542 -0.470984
C46   C     C_R   0.166518 0.468208 0.267644 0.278885
H29   H     H_    0.307116 0.639053 0.805671 0.170231
H30   H     H_    0.512644 0.696594 0.904404 0.144122
H31   H     H_    0.619305 0.693164 0.025609 0.146406
H32   H     H_    0.592072 0.635402 0.138748 0.190616
H33   H     H_    0.368206 0.515529 0.344392 0.192856
C47   C     C_R   0.767959 0.233566 0.518575 0.267861
C48   C     C_R   0.856392 0.176600 0.548086 0.134721
C49   C     C_R   0.790837 0.083637 0.542261 -0.420676
C50   C     C_R   0.635936 0.046190 0.506997 0.130831
C51   C     C_R   0.547917 0.107562 0.480907 -0.377037
C52   C     C_R   0.612829 0.200026 0.486362 0.136622
C53   C     C_R   0.417078 0.907875 0.457293 -0.296276
C54   C     C_R   0.354872 0.814472 0.445368 0.195618
C55   C     C_R   0.588866 0.787784 0.509547 0.320831
C56   C     C_R   0.652609 0.881790 0.521396 -0.295268
C57   C     C_R   0.569213 0.944392 0.494584 0.102818
C58   C     C_R   0.443298 0.754171 0.469025 -0.483268
H34   H     H_    0.339579 0.949691 0.438639 0.151367
H35   H     H_    0.865326 0.042394 0.564054 0.159306
H36   H     H_    0.763781 0.904136 0.554132 0.141483
H37   H     H_    0.431328 0.085746 0.452855 0.157985
H38   H     H_    0.391339 0.682193 0.461776 0.187376
H39   H     H_    0.437208 0.851090 0.673063 0.136417
O25   O     O_3   0.216527 0.889143 0.691409 -0.563005
C59   C     C_3   0.107478 0.926972 0.652735 -0.136766
H40   H     H_    0.025132 0.872810 0.615232 0.175893
H41   H     H_    0.172891 0.978718 0.623094 0.119352
H42   H     H_    0.031264 0.962282 0.691583 0.153843
O26   O     O_3   0.033066 0.221569 0.409405 -0.584344
C60   C     C_3   0.065712 0.130884 0.393002 -0.001677
H43   H     H_    0.171291 0.123975 0.425961 0.172854
H44   H     H_    0.098641 0.111932 0.336621 0.166342
H45   H     H_    0.962068 0.080707 0.405988 0.103058
H46   H     H_    0.733493 0.118980 0.352481 0.252339
H47   H     H_    0.872097 0.112828 0.279626 0.263069
H48   H     H_    0.854808 0.669092 0.672386 0.100763
O27   O     O_3   0.266486 0.220122 0.277545 -0.621233
C61   C     C_3   0.200331 0.226434 0.208860 -0.209814
H49   H     H_    0.252865 0.184728 0.164271 0.178766
H50   H     H_    0.212897 0.298224 0.200897 0.101802
H51   H     H_    0.069554 0.195947 0.204070 0.183730
O28   O     O_3   0.525814 0.181570 0.196695 -0.602847
C62   C     C_3   0.629362 0.174206 0.139098 -0.241937
H52   H     H_    0.752030 0.216443 0.153151 0.135341
H53   H     H_    0.571045 0.189817 0.090474 0.148526
H54   H     H_    0.646597 0.102112 0.125722 0.176744
H55   H     H_    0.657911 0.307025 0.250713 0.085229
H56   H     H_    0.891887 0.243391 0.831022 0.241972
H57   H     H_    0.032575 0.165913 0.807703 0.243470
O29   O     O_3   0.031241 0.767060 0.216045 -0.550874
C63   C     C_3   0.044822 0.692438 0.161836 -0.164041
H58   H     H_    0.170244 0.697357 0.142955 0.104415
H59   H     H_    0.962588 0.692697 0.115041 0.175205
H60   H     H_    0.005329 0.627379 0.181397 0.183031
O30   O     O_3   0.543019 0.135367 0.779580 -0.583866
C64   C     C_3   0.431747 0.132970 0.834620 -0.057276
H61   H     H_    0.344094 0.067201 0.824854 0.130949
H62   H     H_    0.365974 0.191593 0.839648 0.169503
H63   H     H_    0.499801 0.138106 0.886695 0.133216
H64   H     H_    0.575972 0.318471 0.985613 0.156727
H65   H     H_    0.808244 0.516278 0.671944 0.105830
O31   O     O_3   0.563695 0.366009 0.868035 -0.598816
C65   C     C_3   0.460458 0.425821 0.897444 -0.106016
H66   H     H_    0.499778 0.494862 0.884501 0.145417
H67   H     H_    0.454496 0.430998 0.956614 0.098697
H68   H     H_    0.335865 0.398984 0.873555 0.174799
O32   O     O_3   0.841238 0.321098 0.514645 -0.625668
C66   C     C_3   0.811014 0.378645 0.577285 0.246671
H69   H     H_    0.918905 0.425311 0.596215 0.151179
H70   H     H_    0.776174 0.344215 0.623563 -0.067574
H71   H     H_    0.740315 0.429308 0.566195 0.161490
O33   O     O_3   0.241262 0.929179 0.257080 -0.565458
C67   C     C_3   0.378154 0.998164 0.257772 -0.051210
H72   H     H_    0.445545 0.014832 0.311236 0.125825
H73   H     H_    0.335054 0.060326 0.248154 0.233694
H74   H     H_    0.459791 0.979281 0.214022 0.136558

loop_
_geom_bond_atom_site_label_1
_geom_bond_atom_site_label_2
_geom_bond_distance
_ccdc_geom_bond_type
P5    O19   1.749545 S    
C65   H66   1.107655 S    
C13   H21   1.110759 S    
C33   C34   1.401065 A    
C2    H4    1.120544 S    
C1    C10   1.523341 S    
C24   C27   1.431512 A    
C11   H17   1.112013 S    
C42   C44   1.421453 A    
C35   C36   1.411509 A    
O2    Ba2   2.828396 S    
C56   C57   1.419969 A    
P4    O13   1.580163 S    
C17   C18   1.404963 A    
C53   C54   1.393371 A    
C54   C58   1.391730 A    
C12   H55   1.108406 S    
O17   Ba2   2.758201 S    
C5    H8    1.110146 S    
C39   C40   1.403457 A    
Ba2   O21   2.858541 S    
P3    O11   1.752815 S    
P2    Ba1   3.427652 S    
C23   C24   1.427828 A    
C64   H61   1.112461 S    
C9    H13   1.109220 S    
C50   C57   1.517149 S    
C18   C34   1.397606 A    
O11   C2    1.408590 S    
C33   C46   1.427488 A    
O27   C61   1.423147 S    
C53   H34   1.073807 S    
C11   O27   1.427559 S    
O31   C65   1.409928 S    
Ba2   O20   2.796313 S    
C23   O31   1.378046 S    
Ba1   O13   2.827907 S    
C4    O15   1.397347 S    
C49   C50   1.423286 A    
C16   O30   1.416424 S    
P1    O1    1.536257 D    
C62   H54   1.109084 S    
C4    C5    1.532131 S    
C51   C52   1.392837 A    
C45   H33   1.081854 S    
C21   C23   1.407437 A    
C58   H38   1.082255 S    
C66   H71   1.089315 S    
C17   C31   1.402755 A    
O32   C66   1.395677 S    
P5    C48   1.864149 S    
O25   C59   1.410601 S    
C49   H35   1.076313 S    
P2    O10   1.750665 S    
C59   H42   1.109327 S    
C62   H52   1.111775 S    
C63   H59   1.109215 S    
C15   H24   1.109419 S    
C31   C38   1.409525 A    
C1    H2    1.108568 S    
C30   C35   1.414126 A    
C47   C52   1.395403 A    
P5    O18   1.543134 D    
C66   H70   1.109943 S    
C14   H22   1.109556 S    
C13   C14   1.519908 S    
P7    O21   1.574795 D    
C3    H5    1.104996 S    
O14   P8    1.745998 S    
C63   H58   1.110732 S    
C40   H31   1.083496 S    
C15   H23   1.103063 S    
O10   C8    1.392099 S    
O13   Ba2   2.951692 S    
C42   C43   1.417312 A    
O3    Ba1   2.799117 S    
P5    O17   1.752835 S    
C21   C22   1.405523 A    
C61   H50   1.107128 S    
C3    O33   1.410887 S    
C8    H48   1.108308 S    
C65   H68   1.107857 S    
Ba1   O16   2.796759 S    
P7    O22   1.767727 S    
H25   C16   1.111280 S    
C10   H15   1.110130 S    
C9    H14   1.110706 S    
C24   C25   1.435999 A    
O2    Ba1   2.950707 S    
C67   H73   1.103405 S    
P4    O12   1.536657 D    
Ba1   O20   2.944542 S    
C18   C19   1.388728 A    
O19   C13   1.400638 S    
P4    O15   1.751331 S    
O14   Ba2   2.798458 S    
C39   H30   1.082841 S    
C67   H72   1.112696 S    
C38   C41   1.408038 A    
C13   H20   1.112642 S    
O3    P6    1.740923 S    
P1    O2    1.580328 S    
C9    H12   1.110689 S    
C15   O24   1.404226 S    
C16   H26   1.116260 S    
C19   H27   1.069738 S    
C6    H9    1.100329 S    
P1    Ba1   3.418704 S    
C61   H51   1.107689 S    
P3    C54   1.831531 S    
Ba1   Ba2   4.633356 S    
C7    H10   1.075798 S    
O16   Ba2   2.943698 S    
P8    O24   1.754318 S    
C12   O28   1.420024 S    
O5    C6    1.402077 S    
C8    H11   1.111014 S    
C63   H60   1.108183 S    
C41   C43   1.411534 A    
C11   C12   1.549475 S    
C34   H28   1.074629 S    
C26   C37   1.411327 A    
C1    H3    1.109560 S    
H1    C10   1.111598 S    
C3    H19   1.112773 S    
C60   H44   1.105777 S    
C47   O32   1.372371 S    
P4    Ba2   3.419348 S    
C43   H32   1.079376 S    
P2    O7    1.523217 D    
P3    O8    1.748147 S    
O29   C63   1.406419 S    
O4    P6    1.544754 D    
C1    H16   1.110476 S    
C45   C46   1.401019 A    
O8    Ba1   2.757631 S    
C31   C32   1.427981 A    
C5    O25   1.416936 S    
O33   C67   1.407414 S    
C59   H41   1.112876 S    
C61   H49   1.106948 S    
C67   H74   1.113183 S    
O16   P7    1.761082 S    
P7    C52   1.856821 S    
C28   H65   1.066826 S    
C4    H6    1.107363 S    
C2    C3    1.528950 S    
C2    O29   1.417966 S    
C64   H63   1.109350 S    
O6    P6    1.750515 S    
C48   C49   1.400207 A    
C20   C21   1.406264 A    
C60   H45   1.110301 S    
C25   C26   1.428233 A    
C25   C30   1.435934 A    
C47   C48   1.402612 A    
C65   H67   1.107832 S    
C36   C39   1.407206 A    
C6    O26   1.429576 S    
O26   C60   1.425310 S    
C37   C38   1.427205 A    
C55   C58   1.393345 A    
C66   H69   1.058167 S    
C35   H29   1.081300 S    
C55   C56   1.404315 A    
O6    C10   1.404879 S    
C6    C7    1.543666 S    
C51   H37   1.071967 S    
C22   C26   1.408456 A    
C50   C51   1.422506 A    
C14   H56   1.110643 S    
C12   H18   1.110070 S    
C59   H40   1.108618 S    
C17   C22   1.421887 A    
C7    H46   1.108969 S    
P8    O23   1.542255 D    
C11   O22   1.413471 S    
C64   H62   1.112585 S    
C32   C33   1.428899 A    
C8    C9    1.521613 S    
C20   H64   1.082275 S    
C15   C16   1.524750 S    
C62   H53   1.109581 S    
C7    H47   1.107956 S    
C40   C41   1.405444 A    
O30   C64   1.410279 S    
C60   H43   1.100479 S    
C32   C42   1.416088 A    
P1    C46   1.900589 S    
C19   C20   1.382890 A    
C53   C57   1.417059 A    
C4    H7    1.107088 S    
P2    C55   1.843477 S    
C28   C29   1.399775 A    
C27   C28   1.402998 A    
C36   C37   1.409694 A    
C44   C45   1.409225 A    
P3    O9    1.540817 D    
C56   H36   1.075891 S    
P1    O5    1.767700 S    
P6    C44   1.857278 S    
P8    C27   1.898989 S    
O28   C62   1.405417 S    
O1    Ba1   2.854622 S    
O7    Ba1   2.858483 S    
C29   C30   1.430298 A    
P4    C29   1.923138 S    
C14   H57   1.110745 S    
P2    O20   1.570512 S    
C5    H39   1.110540 S    
O12   Ba2   2.855359 S    
