data_mof_unit_46669.cif
_audit_creation_date              2012-12-10T17:02:18-0500
_audit_creation_method            fapswitch 2.2
_symmetry_space_group_name_H-M    P1
_symmetry_Int_Tables_number       1
_space_group_crystal_system       triclinic
_cell_length_a                    10.69883
_cell_length_b                    10.69919
_cell_length_c                    10.064551
_cell_angle_alpha                 87.729621
_cell_angle_beta                  90.317146
_cell_angle_gamma                 89.58835
_cell_volume                      1151.12361794

loop_
_atom_site_label
_atom_site_type_symbol
_atom_type_description
_atom_site_fract_x
_atom_site_fract_y
_atom_site_fract_z
_atom_type_partial_charge
C1    C     C_R   0.488575 0.262448 0.502969 0.901587
C2    C     C_2   0.448468 0.132905 0.514485 -0.004668
C3    C     C_2   0.500827 0.600780 0.920883 -0.144039
C4    C     C_R   0.260304 0.496283 0.499495 0.883868
C5    C     C_2   0.523433 0.597295 0.068575 -0.036036
C6    C     C_R   0.501901 0.737296 0.496917 0.950882
C7    C     C_R   0.739086 0.493548 0.500571 0.873780
C8    C     C_R   0.133147 0.304712 0.660673 -0.167989
C9    C     C_R   0.070206 0.216729 0.740607 -0.137780
C10   C     C_R   0.940355 0.216151 0.742098 -0.144237
C11   C     C_R   0.873075 0.303453 0.663518 -0.175770
C12   C     C_R   0.066835 0.396027 0.582167 0.057760
C13   C     C_R   0.935552 0.395058 0.583637 0.099615
C14   C     C_3   0.429164 0.077974 0.655538 -0.945123
C15   C     C_3   0.414357 0.405618 0.107099 -0.577820
C16   C     C_3   0.298275 0.870332 0.360588 -0.872405
C17   C     C_R   0.127480 0.484985 0.497139 -0.121277
C18   C     C_R   0.060105 0.561853 0.405402 0.086545
C19   C     C_R   0.932282 0.561127 0.409164 -0.264422
C20   C     C_R   0.871062 0.483016 0.500328 -0.124720
C21   C     C_2   0.411070 0.932649 0.417847 0.179574
C22   C     C_2   0.502010 0.869942 0.485257 -0.359649
C23   C     C_2   0.422187 0.067948 0.405180 0.108221
H1    H     H_    0.487441 0.691216 0.870269 0.164537
H2    H     H_    0.083368 0.732011 0.314902 0.176042
H3    H     H_    0.098400 0.610819 0.214467 0.193655
H4    H     H_    0.378478 0.145024 0.717236 0.243283
H5    H     H_    0.371345 0.992279 0.659102 0.257856
H6    H     H_    0.521224 0.057554 0.703328 0.240064
H7    H     H_    0.355930 0.375590 0.192465 0.247837
H8    H     H_    0.346656 0.439856 0.029586 0.182930
H9    H     H_    0.466356 0.321480 0.076591 0.175555
H10   H     H_    0.227388 0.940175 0.324699 0.218910
H11   H     H_    0.325842 0.812998 0.275888 0.261559
H12   H     H_    0.538369 0.421539 0.897257 0.186183
H13   H     H_    0.254199 0.810606 0.439654 0.240766
H14   H     H_    0.331070 0.112997 0.232108 0.175665
H15   H     H_    0.485101 0.080844 0.215672 0.181507
H16   H     H_    0.558921 0.681575 0.111319 0.121595
H17   H     H_    0.233534 0.297717 0.658555 0.152819
H18   H     H_    0.122425 0.147426 0.799795 0.131463
H19   H     H_    0.891535 0.146453 0.802523 0.131427
H20   H     H_    0.772439 0.295732 0.663710 0.153286
H21   H     H_    0.880413 0.624425 0.341912 0.157684
H22   H     H_    0.580764 0.917484 0.528863 0.123752
N1    N     N_2   0.501340 0.501330 0.852150 -0.197954
N2    N     N_2   0.501380 0.501360 0.147810 -0.052663
N3    N     N_3   0.121006 0.641982 0.308728 -0.443419
N4    N     N_3   0.419366 0.125970 0.273920 -0.454044
O1    O     O_R   0.499980 0.319060 0.613040 -0.633964
O2    O     O_R   0.500020 0.319100 0.386900 -0.599556
O3    O     O_R   0.316750 0.499980 0.613090 -0.621435
O4    O     O_R   0.316790 0.500020 0.386950 -0.602732
O5    O     O_R   0.499980 0.680900 0.613100 -0.615320
O6    O     O_R   0.500020 0.680940 0.386960 -0.608963
O7    O     O_R   0.683210 0.499980 0.613050 -0.618677
O8    O     O_R   0.683250 0.500020 0.386910 -0.609538
Zn1   Zn    Zn3+2 0.499970 0.499970 0.650990 0.925743
Zn2   Zn    Zn3+2 0.500030 0.500030 0.349010 0.948251

loop_
_geom_bond_atom_site_label_1
_geom_bond_atom_site_label_2
_ccdc_geom_bond_type
C12   C17   A    
C15   H8    S    
C16   C21   S    
O6    Zn2   S    
C4    O4    A    
C10   H19   S    
C1    O2    A    
C9    C10   A    
C3    N1    D    
C9    H18   S    
C19   C20   A    
H3    N3    S    
C6    O6    A    
C8    C12   A    
C14   H5    S    
C16   H10   S    
C21   C23   S    
C17   C18   A    
O4    Zn2   S    
C15   H9    S    
H15   N4    S    
C21   C22   D    
N1    Zn1   S    
C11   H20   S    
C12   C13   A    
C5    N2    D    
H2    N3    S    
C3    H1    S    
O3    Zn1   S    
C7    O7    A    
C6    O5    A    
C2    C14   S    
C4    C17   S    
C1    C2    S    
O7    Zn1   S    
C18   C19   A    
O2    Zn2   S    
C4    O3    A    
C5    H16   S    
O5    Zn1   S    
C14   H4    S    
O8    Zn2   S    
C23   N4    S    
C10   C11   A    
C14   H6    S    
N2    Zn2   S    
C6    C22   S    
C11   C13   A    
C22   H22   S    
H14   N4    S    
C19   H21   S    
C15   H7    S    
C7    C20   S    
C1    O1    A    
C2    C23   D    
C15   N2    S    
C8    H17   S    
C13   C20   A    
C16   H11   S    
H12   N1    S    
C7    O8    A    
C16   H13   S    
C18   N3    S    
C8    C9    A    
C3    C5    S    
O1    Zn1   S    
