data_mof_unit_18027.cif
_audit_creation_date              2012-12-11T16:17:49-0500
_audit_creation_method            fapswitch 2.2
_symmetry_space_group_name_H-M    P1
_symmetry_Int_Tables_number       1
_space_group_crystal_system       triclinic
_cell_length_a                    14.092575
_cell_length_b                    13.999814
_cell_length_c                    30.052087
_cell_angle_alpha                 97.283669
_cell_angle_beta                  97.220935
_cell_angle_gamma                 61.110856
_cell_volume                      5135.15506539

loop_
_atom_site_label
_atom_site_type_symbol
_atom_type_description
_atom_site_fract_x
_atom_site_fract_y
_atom_site_fract_z
_atom_type_partial_charge
C1    C     C_R   0.385739 0.710381 0.442130 0.542325
C2    C     C_R   0.400882 0.255267 0.221964 -0.160549
C3    C     C_R   0.407282 0.259713 0.268669 -0.131680
C4    C     C_R   0.326013 0.346397 0.292840 -0.014175
C5    C     C_R   0.313283 0.337667 0.198818 0.036282
C6    C     C_1   0.303654 0.324421 0.150671 -0.027022
C7    C     C_1   0.343670 0.353962 0.341010 -0.044869
C8    C     C_1   0.292356 0.305362 0.110861 -0.018510
C9    C     C_R   0.779227 0.360476 0.403889 0.025525
C10   C     C_R   0.802485 0.257447 0.380985 0.267363
C11   C     C_R   0.849796 0.228464 0.339707 -0.091282
C12   C     C_R   0.398790 0.380836 0.426448 0.559748
C13   C     C_R   0.878079 0.298411 0.322415 -0.005869
C14   C     C_R   0.863560 0.395574 0.346706 -0.136354
C15   C     C_R   0.814681 0.426454 0.387194 -0.176609
C16   C     C_R   0.881916 0.363577 0.168334 -0.061609
C17   C     C_R   0.900333 0.357982 0.123029 -0.161649
C18   C     C_R   0.030773 0.165635 0.125328 -0.123028
C19   C     C_R   0.013949 0.169268 0.170445 0.275618
C20   C     C_R   0.941404 0.268566 0.192258 0.027831
C21   C     C_1   0.925396 0.271063 0.238614 0.016255
C22   C     C_1   0.907499 0.279218 0.277210 -0.017081
C23   C     C_R   0.711189 0.404571 0.442664 0.557548
C24   C     C_R   0.974832 0.259516 0.101472 -0.043893
C25   C     C_R   0.364191 0.768018 0.401440 0.019856
C26   C     C_R   0.449164 0.774177 0.384160 -0.125125
C27   C     C_R   0.437836 0.803000 0.340401 -0.113144
C28   C     C_R   0.341344 0.826961 0.313944 0.042543
C29   C     C_R   0.253300 0.829934 0.331981 -0.113104
C30   C     C_R   0.264432 0.800775 0.375682 -0.127822
C31   C     C_R   0.261466 0.824097 0.150654 -0.096953
C32   C     C_R   0.244903 0.849285 0.105997 -0.131553
C33   C     C_R   0.375171 0.918259 0.120788 -0.127763
C34   C     C_R   0.389864 0.711539 0.568223 0.532524
C35   C     C_R   0.390117 0.894708 0.165475 -0.115633
C36   C     C_R   0.330408 0.851341 0.180642 0.053568
C37   C     C_1   0.334069 0.842742 0.227558 -0.014170
C38   C     C_1   0.336709 0.837090 0.267104 -0.024221
C39   C     C_R   0.298455 0.900658 0.091222 0.013541
C40   C     C_R   0.413926 0.402469 0.607061 -0.028698
C41   C     C_R   0.494985 0.321838 0.633652 -0.157679
C42   C     C_R   0.480351 0.320735 0.678557 -0.185469
C43   C     C_R   0.385423 0.400925 0.697563 0.029718
C44   C     C_R   0.305023 0.484159 0.671919 0.272249
C45   C     C_R   0.431516 0.406072 0.560111 0.558300
C46   C     C_R   0.319219 0.483905 0.626615 -0.114447
C47   C     C_R   0.230966 0.412775 0.836124 -0.140372
C48   C     C_R   0.212214 0.383555 0.875445 -0.190177
C49   C     C_R   0.407240 0.274312 0.892046 0.269757
C50   C     C_R   0.425031 0.303037 0.852125 -0.092856
C51   C     C_R   0.337107 0.370445 0.823984 -0.011596
C52   C     C_1   0.355142 0.386217 0.780411 -0.016553
C53   C     C_1   0.369457 0.394777 0.742949 0.010065
C54   C     C_R   0.299602 0.311016 0.902933 0.019004
C55   C     C_1   0.763723 0.375645 0.612318 -0.012821
C56   C     C_R   0.713158 0.407617 0.568545 0.530163
C57   C     C_R   0.892592 0.366976 0.723479 0.315813
C58   C     C_R   0.907356 0.356582 0.770128 -0.092834
C59   C     C_R   0.796054 0.266074 0.762815 -0.107728
C60   C     C_R   0.778369 0.278902 0.716675 -0.175925
C61   C     C_R   0.824956 0.330624 0.697085 0.055304
C62   C     C_R   0.859443 0.306176 0.789654 0.008800
C63   C     C_1   0.879915 0.293089 0.837113 -0.048935
C64   C     C_1   0.795883 0.353080 0.650543 -0.014369
C65   C     C_1   0.906257 0.282448 0.876592 -0.012517
C66   C     C_1   0.376164 0.760416 0.613257 -0.001353
C67   C     C_1   0.365007 0.363366 0.380761 0.000505
C68   C     C_R   0.263635 0.909978 0.716281 -0.057903
C69   C     C_R   0.251290 0.929502 0.762908 0.217709
C70   C     C_R   0.425237 0.767058 0.776870 0.237647
C71   C     C_R   0.437940 0.746983 0.730349 0.264559
C72   C     C_R   0.357753 0.818820 0.700177 -0.064137
C73   C     C_R   0.329994 0.855550 0.792775 -0.012046
C74   C     C_1   0.313584 0.875406 0.840112 0.031873
C75   C     C_1   0.367676 0.790845 0.652509 -0.015258
C76   C     C_1   0.293581 0.902538 0.878872 0.010750
C77   C     C_R   0.000491 0.253751 0.054988 0.558327
C78   C     C_R   0.236646 0.430448 0.269964 0.010697
C79   C     C_R   0.275607 0.270811 0.065264 0.531614
C80   C     C_R   0.260902 0.954022 0.048811 0.522417
C81   C     C_R   0.951844 0.269347 0.922099 0.552798
C82   C     C_R   0.276677 0.267153 0.939929 0.552687
C83   C     C_R   0.261662 0.950355 0.923011 0.541914
C84   C     C_R   0.229747 0.424761 0.222481 0.283535
Cr1   Cr    Cr6+3 0.581000 0.584320 0.508140 1.026197
Cr2   Cr    Cr6+3 0.339110 0.576430 0.496080 1.019681
Cr3   Cr    Cr6+3 0.579910 0.339270 0.495810 1.041678
Cr4   Cr    Cr6+3 0.082090 0.079210 0.982490 1.027291
Cr5   Cr    Cr6+3 0.082460 0.324610 0.994920 1.013828
Cr6   Cr    Cr6+3 0.323630 0.087860 0.996130 1.033137
H1    H     H_    0.089218 0.089647 0.109208 0.141335
H2    H     H_    0.859830 0.153809 0.320326 0.115042
H3    H     H_    0.185673 0.834639 0.083849 0.127302
H4    H     H_    0.216123 0.789088 0.162318 0.109568
H5    H     H_    0.178251 0.849123 0.311494 0.100748
H6    H     H_    0.197411 0.797283 0.388157 0.130907
H7    H     H_    0.526850 0.749594 0.403207 0.128758
H8    H     H_    0.444443 0.914895 0.188608 0.106760
H9    H     H_    0.417630 0.957826 0.110414 0.135762
H10   H     H_    0.506168 0.800903 0.326459 0.102487
H11   H     H_    0.128962 0.413105 0.883004 0.140949
H12   H     H_    0.162505 0.464416 0.814200 0.135339
H13   H     H_    0.255922 0.547687 0.606982 0.151181
H14   H     H_    0.569791 0.259842 0.619772 0.139188
H15   H     H_    0.507367 0.269721 0.842482 0.122564
H16   H     H_    0.542777 0.256820 0.698430 0.115967
H17   H     H_    0.464036 0.186751 0.203794 0.118864
H18   H     H_    0.955363 0.388565 0.791256 0.098552
H19   H     H_    0.759415 0.226202 0.777569 0.122868
H20   H     H_    0.726786 0.250184 0.696307 0.100771
H21   H     H_    0.476879 0.196029 0.286080 0.134031
H22   H     H_    0.856653 0.430829 0.104662 0.146022
H23   H     H_    0.884558 0.450422 0.333118 0.111863
H24   H     H_    0.799773 0.504881 0.404211 0.136422
O1    O     O_R   0.688580 0.499770 0.460490 -0.531797
O2    O     O_R   0.348600 0.476260 0.536540 -0.501449
O3    O     O_R   0.494840 0.313840 0.539010 -0.508031
O4    O     O_R   0.672120 0.351750 0.545910 -0.528537
O5    O     O_3   0.500010 0.500010 0.500010 -0.270462
O6    O     O_R   0.167510 0.972920 0.030390 -0.529430
O7    O     O_R   0.990840 0.178580 0.027590 -0.493053
O8    O     O_R   0.972840 0.345510 0.038590 -0.512517
O9    O     O_R   0.181550 0.320660 0.045200 -0.508365
O10   O     O_R   0.346150 0.177650 0.050510 -0.513008
O11   O     O_R   0.314200 0.996600 0.036060 -0.504216
O12   O     O_R   0.480400 0.672610 0.462660 -0.501378
O13   O     O_R   0.168690 0.969990 0.933130 -0.496156
O14   O     O_R   0.991920 0.175870 0.937430 -0.481636
O15   O     O_R   0.974010 0.342590 0.941330 -0.508925
O16   O     O_R   0.182630 0.317940 0.955040 -0.514436
O17   O     O_R   0.347320 0.174720 0.953250 -0.454682
O18   O     O_R   0.315290 0.993890 0.945900 -0.494016
O19   O     O_3   0.162730 0.163890 0.991180 -0.268488
O20   O     O_R   0.315310 0.685650 0.451800 -0.513089
O21   O     O_R   0.346220 0.474990 0.446280 -0.487988
O22   O     O_R   0.492270 0.312460 0.441630 -0.481862
O23   O     O_R   0.669740 0.350480 0.455640 -0.442121
O24   O     O_R   0.691150 0.501150 0.557860 -0.486237
O25   O     O_R   0.482790 0.673890 0.552920 -0.485983
O26   O     O_R   0.317880 0.687030 0.549170 -0.524303
C85   C     C_R   0.149697 0.523318 0.294977 0.059268
C86   C     C_R   0.087934 0.504251 0.322514 -0.106951
C87   C     C_R   0.005247 0.591948 0.345694 -0.119647
C88   C     C_R   0.983307 0.699075 0.341398 -0.104800
C89   C     C_R   0.044088 0.718736 0.313958 -0.118989
C90   C     C_R   0.127103 0.631296 0.290817 -0.051380
H25   H     H_    0.103393 0.421680 0.325777 0.107932
H26   H     H_    0.958057 0.576956 0.366969 0.101494
H27   H     H_    0.919158 0.766867 0.359308 0.105721
H28   H     H_    0.026760 0.801797 0.310625 0.091492
H29   H     H_    0.173932 0.647635 0.269814 0.128239
O27   O     O_3   0.073417 0.076784 0.193910 -0.555886
C91   C     C_3   0.017074 0.015364 0.188188 -0.120814
H30   H     H_    0.012514 0.984451 0.152411 0.115372
H31   H     H_    0.934079 0.063574 0.200384 0.114204
H32   H     H_    0.062183 0.943469 0.208521 0.136170
O28   O     O_3   0.142040 0.505642 0.199532 -0.577445
C92   C     C_3   0.063523 0.470490 0.186193 -0.107143
H33   H     H_    0.054842 0.425906 0.212256 0.106569
H34   H     H_    0.083328 0.417820 0.154258 0.138964
H35   H     H_    0.983575 0.543391 0.179988 0.149974
O29   O     O_3   0.209235 0.561010 0.690135 -0.560889
C93   C     C_3   0.215194 0.658725 0.702259 -0.119234
H36   H     H_    0.224136 0.692860 0.672503 0.111480
H37   H     H_    0.282551 0.646150 0.728477 0.116094
H38   H     H_    0.138331 0.720479 0.716805 0.153208
O30   O     O_3   0.495260 0.203315 0.918239 -0.548452
C94   C     C_3   0.532156 0.265536 0.948771 -0.107103
H39   H     H_    0.467861 0.323599 0.971238 0.113623
H40   H     H_    0.561217 0.310350 0.930875 0.111899
H41   H     H_    0.601915 0.209088 0.970349 0.148625
O31   O     O_3   0.935330 0.420997 0.703942 -0.548380
C95   C     C_3   0.049919 0.362809 0.708843 -0.111014
H42   H     H_    0.081483 0.274221 0.698233 0.115608
H43   H     H_    0.080923 0.373894 0.743915 0.103926
H44   H     H_    0.082581 0.396110 0.686793 0.176938
C96   C     C_R   0.176521 0.983183 0.684577 0.064283
C97   C     C_R   0.199218 0.038875 0.655218 -0.113578
C98   C     C_R   0.118598 0.103071 0.623722 -0.120493
C99   C     C_R   0.014857 0.112461 0.621434 -0.097477
C100  C     C_R   0.990995 0.059062 0.651085 -0.112006
C101  C     C_R   0.071424 0.994651 0.682613 -0.054154
H45   H     H_    0.279508 0.031788 0.656516 0.111269
H46   H     H_    0.136690 0.145147 0.600956 0.117469
H47   H     H_    0.953013 0.161067 0.596644 0.113128
H48   H     H_    0.910371 0.066947 0.649403 0.107565
H49   H     H_    0.052460 0.952140 0.704882 0.128738
O32   O     O_3   0.159727 0.018962 0.779294 -0.555423
C102  C     C_3   0.181481 0.108163 0.788532 -0.108505
H50   H     H_    0.193853 0.133932 0.757173 0.110660
H51   H     H_    0.253000 0.089361 0.813196 0.116129
H52   H     H_    0.110479 0.178328 0.803771 0.141370
O33   O     O_3   0.502822 0.695525 0.806452 -0.556150
C103  C     C_3   0.583710 0.727859 0.818327 -0.089908
H53   H     H_    0.549260 0.812122 0.835152 0.108435
H54   H     H_    0.626299 0.722245 0.788555 0.164854
H55   H     H_    0.645216 0.671519 0.842569 0.144235
O34   O     O_3   0.531904 0.659802 0.714635 -0.537381
C104  C     C_3   0.517307 0.566146 0.707488 -0.084318
H56   H     H_    0.451605 0.576849 0.680772 0.097411
H57   H     H_    0.500626 0.544890 0.739051 0.150850
H58   H     H_    0.593181 0.496027 0.695690 0.151064
C105  C     C_R   0.797797 0.468364 0.189098 0.030140
C106  C     C_R   0.820736 0.516766 0.230148 -0.093759
C107  C     C_R   0.740414 0.614946 0.249045 -0.107507
C108  C     C_R   0.636580 0.666019 0.227218 -0.100166
C109  C     C_R   0.612920 0.618899 0.186460 -0.106816
C110  C     C_R   0.693006 0.520873 0.167398 -0.092610
H59   H     H_    0.900438 0.479045 0.247720 0.099844
H60   H     H_    0.758772 0.651396 0.280645 0.106001
H61   H     H_    0.574612 0.742054 0.241897 0.105822
H62   H     H_    0.532491 0.657927 0.169568 0.122906
H63   H     H_    0.672868 0.485251 0.135930 0.109167
O35   O     O_3   0.768382 0.190593 0.396111 -0.545017
C111  C     C_3   0.859791 0.100942 0.414893 -0.115849
H64   H     H_    0.903139 0.128488 0.442778 0.110547
H65   H     H_    0.916428 0.047773 0.388864 0.099603
H66   H     H_    0.831657 0.050619 0.429275 0.138660

loop_
_geom_bond_atom_site_label_1
_geom_bond_atom_site_label_2
_ccdc_geom_bond_type
C82   O16   A    
C58   C62   A    
C103  H54   S    
C55   C56   S    
C63   C65   T    
C110  H63   S    
C102  H52   S    
C11   C13   A    
C73   C74   S    
C34   O25   A    
C35   C36   A    
C14   H23   S    
C111  H64   S    
C34   C66   S    
C80   O6    A    
C97   C98   A    
C100  C101  A    
O31   C95   S    
C40   C46   A    
C26   C27   A    
O28   C92   S    
C74   C76   T    
C18   C24   A    
C18   H1    S    
C10   O35   S    
C28   C29   A    
C93   H37   S    
C37   C38   T    
Cr4   O19   S    
C49   O30   S    
Cr4   O13   S    
C111  H65   S    
C5    C6    S    
C68   C72   A    
C103  H55   S    
C80   O11   A    
C48   H11   S    
C49   C54   A    
C2    H17   S    
Cr5   O15   S    
C7    C67   T    
Cr2   O2    S    
C18   C19   A    
C41   C42   A    
C32   C39   A    
Cr1   O5    S    
C68   C96   S    
C30   H6    S    
C77   O8    A    
C92   H35   S    
C33   C35   A    
C65   C81   S    
C11   H2    S    
C43   C53   S    
C86   C87   A    
C93   H36   S    
C3    H21   S    
C16   C17   A    
C12   O21   A    
C106  H59   S    
C104  H58   S    
C69   C73   A    
O34   C104  S    
Cr4   O6    S    
C16   C105  S    
C9    C10   A    
Cr1   O25   S    
C31   C36   A    
C97   H45   S    
Cr2   O26   S    
C57   O31   S    
Cr6   O18   S    
C94   H40   S    
C103  H53   S    
C59   C60   A    
C47   H12   S    
C21   C22   T    
C1    C25   S    
Cr1   O12   S    
C40   C45   S    
C44   O29   S    
Cr3   O23   S    
C4    C7    S    
C108  H61   S    
C76   C83   S    
C90   H29   S    
Cr2   O20   S    
C89   C90   A    
C95   H43   S    
C82   O17   A    
C87   H26   S    
C12   C67   S    
C27   H10   S    
C17   C24   A    
Cr5   O19   S    
C51   C52   S    
C94   H39   S    
Cr1   O1    S    
C93   H38   S    
C60   H20   S    
C1    O12   A    
Cr3   O4    S    
C83   O18   A    
C99   H47   S    
C111  H66   S    
O30   C94   S    
C29   H5    S    
C5    C84   A    
O35   C111  S    
C68   C69   A    
C47   C51   A    
C44   C46   A    
C25   C26   A    
C95   H42   S    
C70   C73   A    
C79   O9    A    
Cr5   O16   S    
C109  C110  A    
C84   O28   S    
O32   C102  S    
C33   H9    S    
C61   C64   S    
C48   C54   A    
C43   C44   A    
C4    C78   A    
C88   H27   S    
C8    C79   S    
C56   O24   A    
Cr2   O21   S    
C81   O15   A    
C47   C48   A    
C50   H15   S    
C28   C38   S    
C29   C30   A    
C16   C20   A    
C55   C64   T    
C62   C63   S    
Cr3   O5    S    
C50   C51   A    
C3    C4    A    
C15   H24   S    
C33   C39   A    
C52   C53   T    
C106  C107  A    
C91   H32   S    
C57   C61   A    
C42   H16   S    
C69   O32   S    
Cr2   O5    S    
C85   C90   A    
C96   C97   A    
Cr6   O17   S    
C40   C41   A    
C49   C50   A    
C81   O14   A    
C109  H62   S    
C78   C85   S    
C2    C5    A    
C91   H31   S    
C42   C43   A    
C1    O20   A    
C35   H8    S    
C17   H22   S    
C54   C82   S    
C70   C71   A    
C99   C100  A    
C71   O34   S    
C96   C101  A    
C98   H46   S    
C95   H44   S    
C45   O3    A    
C25   C30   A    
Cr6   O19   S    
C107  C108  A    
C36   C37   S    
C59   C62   A    
C108  C109  A    
C46   H13   S    
Cr6   O10   S    
Cr3   O22   S    
C23   O23   A    
C31   C32   A    
C9    C23   S    
C89   H28   S    
C83   O13   A    
Cr4   O7    S    
C6    C8    T    
C100  H48   S    
Cr3   O3    S    
O29   C93   S    
C31   H4    S    
Cr5   O9    S    
C79   O10   A    
C41   H14   S    
C88   C89   A    
C39   C80   S    
C19   C20   A    
C2    C3    A    
C9    C15   A    
C71   C72   A    
Cr4   O14   S    
C85   C86   A    
C56   O4    A    
C92   H34   S    
C45   O2    A    
C72   C75   S    
C57   C58   A    
C92   H33   S    
C107  H60   S    
C70   O33   S    
C66   C75   T    
C86   H25   S    
C34   O26   A    
C59   H19   S    
Cr6   O11   S    
C13   C22   S    
C32   H3    S    
C105  C110  A    
C58   H18   S    
C101  H49   S    
C102  H50   S    
C77   O7    A    
C10   C11   A    
C26   H7    S    
C23   O1    A    
C98   C99   A    
C78   C84   A    
C24   C77   S    
C104  H56   S    
C20   C21   S    
O33   C103  S    
C12   O22   A    
C27   C28   A    
C104  H57   S    
C14   C15   A    
C60   C61   A    
O27   C91   S    
C94   H41   S    
C105  C106  A    
C102  H51   S    
C91   H30   S    
C13   C14   A    
Cr1   O24   S    
Cr5   O8    S    
C87   C88   A    
C19   O27   S    
