data_mof_unit_32195.cif
_audit_creation_date              2012-10-26T20:17:12-0400
_audit_creation_method            fapswitch 2.2
_symmetry_space_group_name_H-M    P1
_symmetry_Int_Tables_number       1
_space_group_crystal_system       triclinic
_cell_length_a                    10.604926
_cell_length_b                    11.055365
_cell_length_c                    9.901287
_cell_angle_alpha                 110.893724
_cell_angle_beta                  97.67581
_cell_angle_gamma                 93.185141
_cell_volume                      1068.09269304

loop_
_atom_site_label
_atom_site_type_symbol
_atom_type_description
_atom_site_fract_x
_atom_site_fract_y
_atom_site_fract_z
_atom_type_partial_charge
C1    C     C_R   0.486915 0.254905 0.440591 0.549774
C2    C     C_3   0.123266 0.498612 0.502966 0.018435
C3    C     C_3   0.977715 0.592402 0.615667 0.275452
C4    C     C_3   0.022082 0.402201 0.382738 0.265826
C5    C     C_2   0.454783 0.116917 0.408024 0.261735
C6    C     C_2   0.514058 0.886894 0.588508 0.170416
C7    C     C_2   0.525578 0.058506 0.484353 0.320709
C8    C     C_2   0.479365 0.926811 0.475634 0.250324
C9    C     C_2   0.524167 0.500159 0.079792 0.370467
C10   C     C_2   0.502705 0.474208 0.915096 0.369218
C11   C     C_3   0.054584 0.769441 0.828183 -0.009630
C12   C     C_R   0.505903 0.745978 0.559164 0.504843
C13   C     C_3   0.029333 0.826997 0.985092 -0.368703
C14   C     C_3   0.946546 0.223996 0.171287 -0.009037
C15   C     C_3   0.974086 0.160494 0.016019 -0.367363
C16   C     C_3   0.322317 0.321251 0.815802 -0.006957
C17   C     C_3   0.257250 0.230872 0.663594 -0.329350
C18   C     C_3   0.666475 0.689579 0.192350 -0.015069
C19   C     C_3   0.754099 0.758999 0.339058 -0.341124
C20   C     C_R   0.259745 0.499016 0.501012 0.540924
C21   C     C_R   0.740088 0.498794 0.498412 0.563305
C22   C     C_3   0.053258 0.479236 0.621890 -0.143012
C23   C     C_3   0.946328 0.515126 0.376269 -0.148225
C24   C     C_3   0.950575 0.381176 0.499397 -0.161056
C25   C     C_3   0.048857 0.613432 0.498838 -0.172461
C26   C     C_3   0.876330 0.496262 0.495492 0.019580
Cu1   Cu    Cu3+1 0.522260 0.521810 0.644920 1.024445
Cu2   Cu    Cu3+1 0.477740 0.478190 0.355080 1.009295
H1    H     H_    0.907440 0.286353 0.496720 0.123466
H2    H     H_    0.113378 0.894852 0.056071 0.139966
H3    H     H_    0.943664 0.880759 0.989613 0.150676
H4    H     H_    0.861276 0.277716 0.165456 0.154310
H5    H     H_    0.923281 0.146675 0.214245 0.132431
H6    H     H_    0.059447 0.106792 0.016415 0.150433
H7    H     H_    0.890437 0.091522 0.945829 0.125878
H8    H     H_    0.992819 0.236261 0.969523 0.161883
H9    H     H_    0.331014 0.801072 0.375560 0.324504
H10   H     H_    0.696026 0.057793 0.584277 0.332369
H11   H     H_    0.590933 0.932236 0.792924 0.338898
H12   H     H_    0.091889 0.708317 0.501571 0.096365
H13   H     H_    0.300327 0.113693 0.274922 0.329446
H14   H     H_    0.271629 0.410330 0.849296 0.083333
H15   H     H_    0.310200 0.265580 0.887788 0.134464
H16   H     H_    0.301553 0.138281 0.630463 0.174053
H17   H     H_    0.154180 0.208139 0.664905 0.083678
H18   H     H_    0.264484 0.277105 0.582173 0.169128
H19   H     H_    0.576206 0.736773 0.194429 0.166074
H20   H     H_    0.719945 0.706012 0.110390 0.117904
H21   H     H_    0.854025 0.737182 0.329635 0.124379
H22   H     H_    0.753144 0.865933 0.371356 0.088485
H23   H     H_    0.097783 0.467927 0.723806 0.111934
H24   H     H_    0.723359 0.729944 0.426467 0.187309
H25   H     H_    0.901003 0.523559 0.272872 0.158557
H26   H     H_    0.573115 0.650660 0.929797 0.157850
H27   H     H_    0.350135 0.426575 0.089033 0.162732
H28   H     H_    0.076054 0.849980 0.789448 0.132490
H29   H     H_    0.140638 0.715968 0.829325 0.132580
H30   H     H_    0.012296 0.747844 0.027138 0.161396
N1    N     N_2   0.444270 0.445410 0.137360 -0.315461
N2    N     N_2   0.555730 0.554590 0.862640 -0.317779
O1    O     O_R   0.511880 0.332340 0.577400 -0.405694
O2    O     O_3   0.056621 0.305431 0.260120 -0.550418
O3    O     O_3   0.400963 0.846195 0.347779 -0.678856
O4    O     O_3   0.641491 0.123120 0.568839 -0.687558
O5    O     O_3   0.565179 0.977961 0.725694 -0.706777
O6    O     O_3   0.344628 0.051672 0.310957 -0.704686
O7    O     O_3   0.454654 0.349056 0.817795 -0.481883
O8    O     O_3   0.645014 0.553991 0.161732 -0.525935
O9    O     O_R   0.488120 0.667660 0.422600 -0.489090
O10   O     O_R   0.474280 0.295500 0.332650 -0.512842
O11   O     O_R   0.525720 0.704500 0.667350 -0.519865
O12   O     O_R   0.335640 0.518390 0.622350 -0.529300
O13   O     O_R   0.664360 0.481610 0.377650 -0.459163
O14   O     O_R   0.298050 0.481550 0.377590 -0.478040
O15   O     O_R   0.701950 0.518450 0.622410 -0.446257
O16   O     O_3   0.943938 0.689414 0.738647 -0.540133

loop_
_geom_bond_atom_site_label_1
_geom_bond_atom_site_label_2
_ccdc_geom_bond_type
C12   O9    A    
H27   N1    S    
C10   N2    D    
Cu2   O9    S    
C21   C26   S    
Cu2   O14   S    
C18   H19   S    
C14   H5    S    
C7    C8    S    
H26   N2    S    
C10   O7    S    
C1    C5    S    
C17   H17   S    
C11   O16   S    
C25   H12   S    
C6    C12   S    
C4    C24   S    
C18   O8    S    
C14   O2    S    
C21   O13   A    
C18   C19   S    
C23   C26   S    
C24   H1    S    
Cu1   O1    S    
C19   H24   S    
C6    O5    S    
C16   C17   S    
C2    C22   S    
C9    C10   S    
C15   H6    S    
H11   O5    S    
Cu1   O15   S    
Cu2   O13   S    
C15   H7    S    
H9    O3    S    
C23   H25   S    
H10   O4    S    
C2    C20   S    
C13   H2    S    
C3    C25   S    
C17   H18   S    
C14   H4    S    
C5    C7    D    
C4    C23   S    
C6    C8    D    
C13   H30   S    
C1    O1    A    
C9    N1    D    
C2    C4    S    
C19   H21   S    
C20   O14   A    
C16   O7    S    
C3    O16   S    
C16   H15   S    
C12   O11   A    
C22   C24   S    
C16   H14   S    
C15   H8    S    
Cu1   O11   S    
Cu2   N1    S    
C13   H3    S    
C3    C26   S    
Cu2   O10   S    
C24   C26   S    
C5    O6    S    
C18   H20   S    
H13   O6    S    
C21   O15   A    
C1    O10   A    
Cu1   N2    S    
C4    O2    S    
C9    O8    S    
C11   C13   S    
C19   H22   S    
C2    C25   S    
C23   C25   S    
C7    O4    S    
C17   H16   S    
C11   H28   S    
C8    O3    S    
Cu1   Cu2   S    
C14   C15   S    
C20   O12   A    
C3    C22   S    
C11   H29   S    
Cu1   O12   S    
C22   H23   S    
