data_mof_unit_34462.cif
_audit_creation_date              2013-03-05T16:11:03-0500
_audit_creation_method            fapswitch 2.2
_symmetry_space_group_name_H-M    P1
_symmetry_Int_Tables_number       1
_space_group_crystal_system       triclinic
_cell_length_a                    10.814121
_cell_length_b                    9.428295
_cell_length_c                    10.638499
_cell_angle_alpha                 90.082076
_cell_angle_beta                  90.733067
_cell_angle_gamma                 89.818257
_cell_volume                      1084.59248578

loop_
_atom_site_label
_atom_site_type_symbol
_atom_site_description
_atom_site_fract_x
_atom_site_fract_y
_atom_site_fract_z
_atom_type_partial_charge
O1    O     O_R   0.317570 0.620260 0.500070 -0.556547
O2    O     O_R   0.317570 0.379740 0.500070 -0.581874
C1    C     C_R   0.259609 0.499881 0.503125 0.815602
O3    O     O_R   0.499850 0.620240 0.316900 -0.605013
O4    O     O_R   0.499850 0.379760 0.316900 -0.598721
C2    C     C_R   0.497911 0.499932 0.259441 0.794005
Cu1   Cu    Cu3+1 0.499860 0.642410 0.500060 0.956987
Cu2   Cu    Cu3+1 0.499860 0.357590 0.500060 0.950399
O5    O     O_R   0.682190 0.620260 0.500030 -0.591950
O6    O     O_R   0.682190 0.379740 0.500030 -0.584534
O7    O     O_R   0.499910 0.620280 0.683200 -0.574454
O8    O     O_R   0.499910 0.379720 0.683200 -0.591603
C3    C     C_R   0.739519 0.499588 0.505796 0.902905
C4    C     C_R   0.499866 0.499914 0.740922 0.861331
C5    C     C_3   0.491459 0.633808 0.041740 -0.167503
C6    C     C_3   0.398264 0.427118 0.040084 -0.173042
C7    C     C_3   0.393579 0.561232 0.956490 -0.170820
H1    H     H_    0.308380 0.611612 0.918101 0.193515
H2    H     H_    0.486547 0.744314 0.077564 0.146858
H3    H     H_    0.317186 0.368170 0.075619 0.166805
C8    C     C_3   0.498716 0.499218 0.878077 0.000915
C9    C     C_3   0.596444 0.571454 0.961510 -0.096108
C10   C     C_3   0.503238 0.364777 0.959333 -0.119512
C11   C     C_3   0.601131 0.437324 0.044587 -0.137931
C12   C     C_3   0.496393 0.499724 0.122787 -0.010415
H4    H     H_    0.686160 0.386688 0.083505 0.157001
C13   C     C_3   0.072282 0.589503 0.621560 0.063944
C14   C     C_3   0.071173 0.343718 0.530339 0.126605
C15   C     C_3   0.930102 0.610047 0.607081 0.169589
C16   C     C_3   0.928122 0.344101 0.540906 0.111983
H5    H     H_    0.913661 0.715459 0.562320 0.172503
H6    H     H_    0.890011 0.272129 0.466888 0.154048
H7    H     H_    0.088891 0.672266 0.372529 0.223385
H8    H     H_    0.107922 0.506656 0.299417 0.216122
H9    H     H_    0.880871 0.641106 0.347703 0.195591
H10   H     H_    0.898183 0.457788 0.309279 0.220719
C17   C     C_3   0.066253 0.558273 0.382604 -0.322379
C18   C     C_3   0.121346 0.498860 0.507602 -0.188567
C19   C     C_3   0.876841 0.497532 0.512381 -0.188368
C20   C     C_3   0.924372 0.540013 0.379837 -0.515549
C21   C     C_3   0.627646 0.083286 0.503476 -0.177859
C22   C     C_3   0.627512 0.916106 0.499355 -0.184712
H11   H     H_    0.678503 0.119127 0.589156 0.210262
H12   H     H_    0.682783 0.875729 0.580351 0.209025
H13   H     H_    0.679587 0.123955 0.421516 0.150211
H14   H     H_    0.674901 0.879436 0.412877 0.149731
H15   H     H_    0.482786 0.123170 0.702165 0.151796
H16   H     H_    0.492070 0.881782 0.702553 0.162766
C23   C     C_3   0.437448 0.084011 0.614581 -0.179445
C24   C     C_3   0.441207 0.916874 0.616530 -0.158500
C25   C     C_3   0.437352 0.083733 0.389455 -0.169003
C26   C     C_3   0.432007 0.916718 0.392493 -0.181148
N1    N     N_3   0.500250 0.143650 0.502780 -0.151639
N2    N     N_3   0.500250 0.856350 0.502780 -0.153745
H17   H     H_    0.343236 0.128697 0.379377 0.220900
H18   H     H_    0.333935 0.881588 0.393329 0.199759
H19   H     H_    0.487077 0.116442 0.303389 0.140978
H20   H     H_    0.471879 0.875859 0.303829 0.141973
H21   H     H_    0.340085 0.121718 0.617126 0.199903
H22   H     H_    0.346183 0.875896 0.624144 0.238515
H23   H     H_    0.678449 0.631649 0.932047 0.223725
H24   H     H_    0.508271 0.254329 0.923409 0.147935
N3    N     N_R   0.131956 0.727857 0.638124 0.137890
O9    O     O_R   0.121130 0.825978 0.552836 -0.342871
O10   O     O_R   0.179423 0.760759 0.747268 -0.378353
N4    N     N_R   0.108885 0.238601 0.435816 0.127832
O11   O     O_R   0.082349 0.256191 0.317261 -0.393821
O12   O     O_R   0.138404 0.111922 0.474064 -0.334746
H25   H     H_    0.093381 0.527042 0.707866 0.139519
H26   H     H_    0.111997 0.308405 0.621926 0.132664
N5    N     N_R   0.866961 0.615014 0.728527 0.145506
O13   O     O_R   0.783621 0.712647 0.745517 -0.398667
O14   O     O_R   0.911662 0.549567 0.826869 -0.323594
N6    N     N_R   0.890465 0.283180 0.662367 0.113272
O15   O     O_R   0.794162 0.330182 0.721735 -0.334829
O16   O     O_R   0.935021 0.160093 0.695400 -0.307156

loop_
_geom_bond_atom_site_label_1
_geom_bond_atom_site_label_2
_geom_bond_distance
_ccdc_geom_bond_type
N4    O12   1.299855 A    
N3    O10   1.301028 A    
C13   C15   1.554813 S    
H8    C17   1.109355 S    
C21   C22   1.576771 S    
Cu1   Cu2   2.685366 S    
H15   C23   1.110555 S    
Cu1   O7    1.959766 S    
C24   N2    1.487687 S    
N6    O16   1.302196 A    
C4    C8    1.459353 S    
C11   H4    1.110357 S    
C17   C20   1.544392 S    
O4    C2    1.288155 A    
C16   N6    1.477326 S    
O7    C4    1.291116 A    
C5    C12   1.531644 S    
C2    C12   1.453671 S    
C13   C18   1.578690 S    
C5    C7    1.545763 S    
C22   H14   1.112922 S    
O5    C3    1.295103 A    
C5    H2    1.110236 S    
C10   H24   1.110142 S    
C1    C18   1.496615 S    
C6    C7    1.547252 S    
C10   C11   1.545772 S    
C25   H19   1.112233 S    
C13   H25   1.112313 S    
C6    H3    1.110282 S    
H16   C24   1.111907 S    
N4    O11   1.300629 A    
C8    C9    1.532133 S    
C21   H11   1.111302 S    
C22   H12   1.109495 S    
O3    Cu1   1.959428 S    
C26   N2    1.490731 S    
C5    C9    1.543430 S    
C14   H26   1.115390 S    
N6    O15   1.301143 A    
C25   C26   1.576301 S    
H10   C20   1.113079 S    
C11   C12   1.529586 S    
O3    C2    1.287852 A    
C19   C20   1.560254 S    
N5    O14   1.302304 A    
H7    C17   1.108689 S    
O1    C1    1.298938 A    
C14   N4    1.471341 S    
C17   C18   1.554616 S    
C14   C18   1.581732 S    
Cu2   O8    1.959172 S    
C15   C19   1.567812 S    
C7    H1    1.108807 S    
C21   N1    1.488868 S    
C26   H20   1.110112 S    
O8    C4    1.288136 A    
C6    C10   1.546427 S    
C8    C10   1.535580 S    
C9    C11   1.544217 S    
C6    C12   1.532258 S    
Cu1   O5    1.982112 S    
O1    Cu1   1.982996 S    
O2    Cu2   1.981678 S    
O6    C3    1.291590 A    
Cu2   N1    2.017329 S    
O4    Cu2   1.960023 S    
C23   H21   1.110870 S    
C24   H22   1.102965 S    
C14   C16   1.552472 S    
H9    C20   1.113818 S    
N5    O13   1.300269 A    
C15   H5    1.115427 S    
C22   N2    1.489630 S    
C9    H23   1.103450 S    
C16   H6    1.114588 S    
C23   N1    1.488988 S    
C16   C19   1.576108 S    
O2    C1    1.293410 A    
C25   H17   1.105295 S    
C7    C8    1.532674 S    
C3    C19   1.485846 S    
N3    O9    1.300688 A    
Cu2   O6    1.983430 S    
C23   C24   1.576372 S    
C21   H13   1.112502 S    
C13   N3    1.466577 S    
Cu1   N2    2.017273 S    
C25   N1    1.488216 S    
C26   H18   1.112230 S    
C15   N5    1.469662 S    
