data_mof_unit_62200.cif
_audit_creation_date              2012-12-10T16:49:14-0500
_audit_creation_method            fapswitch 2.2
_symmetry_space_group_name_H-M    P1
_symmetry_Int_Tables_number       1
_space_group_crystal_system       triclinic
_cell_length_a                    18.921933
_cell_length_b                    18.703368
_cell_length_c                    18.676437
_cell_angle_alpha                 109.007343
_cell_angle_beta                  109.296305
_cell_angle_gamma                 109.354205
_cell_volume                      5134.99274468

loop_
_atom_site_label
_atom_site_type_symbol
_atom_type_description
_atom_site_fract_x
_atom_site_fract_y
_atom_site_fract_z
_atom_type_partial_charge
C1    C     C_R   0.381701 0.383308 0.503222 0.920120
C2    C     C_2   0.319263 0.324504 0.513467 -0.329259
C3    C     C_2   0.422806 0.173654 0.179398 -0.152570
C4    C     C_R   0.497178 0.616480 0.619493 0.872517
C5    C     C_2   0.494413 0.185294 0.174610 -0.336139
C6    C     C_2   0.422791 0.246513 0.240622 -0.152729
C7    C     C_2   0.494365 0.306000 0.316601 -0.336206
C8    C     C_2   0.817669 0.740104 0.492174 -0.157637
C9    C     C_2   0.823160 0.817700 0.510817 -0.331625
C10   C     C_2   0.756147 0.678512 0.502844 -0.157160
C11   C     C_2   0.680747 0.675772 0.486794 -0.336041
C12   C     C_R   0.413117 0.670452 0.675730 0.100531
C13   C     C_R   0.381742 0.996019 0.876054 0.920073
C14   C     C_R   0.497233 0.877605 0.874518 0.872584
C15   C     C_R   0.618338 0.997858 0.117665 0.940412
C16   C     C_R   0.618299 0.616822 0.496902 0.940844
C17   C     C_R   0.498108 0.116910 0.114524 0.934691
C18   C     C_R   0.882943 0.002373 0.381275 0.932729
C19   C     C_R   0.116946 0.118752 0.497525 0.932674
C20   C     C_R   0.116952 0.997457 0.618684 0.932484
C21   C     C_R   0.883023 0.881268 0.502445 0.932685
C22   C     C_2   0.182334 0.921111 0.673179 -0.154217
C23   C     C_R   0.492994 0.678472 0.684800 -0.106472
C24   C     C_2   0.176767 0.993249 0.686502 -0.332541
C25   C     C_2   0.243886 0.920578 0.744908 -0.161423
C26   C     C_2   0.319296 0.992769 0.803764 -0.329222
C27   C     C_2   0.815234 0.076559 0.325016 -0.158709
C28   C     C_R   0.498043 0.378041 0.380360 0.935017
C29   C     C_2   0.822696 0.005569 0.312936 -0.331168
C30   C     C_2   0.754091 0.075647 0.251653 -0.156043
C31   C     C_2   0.680520 0.002052 0.190871 -0.335066
C32   C     C_R   0.333649 0.594804 0.610306 -0.172302
C33   C     C_R   0.256040 0.591501 0.600043 -0.140568
C34   C     C_R   0.570802 0.750583 0.753489 -0.207109
C35   C     C_R   0.256054 0.662996 0.654380 -0.140585
C36   C     C_R   0.333677 0.736808 0.721224 -0.172285
C37   C     C_R   0.413132 0.740108 0.734739 0.100540
C38   C     C_R   0.570816 0.816651 0.813623 -0.207137
C39   C     C_R   0.493022 0.811456 0.805029 -0.106493
C40   C     C_2   0.182320 0.260066 0.507988 -0.154056
C41   C     C_2   0.176756 0.182396 0.489137 -0.332634
C42   C     C_2   0.243857 0.321759 0.497405 -0.161429
H1    H     H_    0.631758 0.756338 0.759775 0.161062
H2    H     H_    0.661312 0.713402 0.459076 0.158474
H3    H     H_    0.139459 0.861684 0.611034 0.162913
H4    H     H_    0.330498 0.537305 0.567329 0.142948
H5    H     H_    0.212688 0.049369 0.751190 0.158535
H6    H     H_    0.228451 0.860553 0.747758 0.156238
H7    H     H_    0.338701 0.049677 0.795300 0.158869
H8    H     H_    0.856551 0.136156 0.387132 0.163258
H9    H     H_    0.788470 0.949534 0.248416 0.159009
H10   H     H_    0.768189 0.135704 0.249066 0.163068
H11   H     H_    0.661672 0.944772 0.198774 0.157467
H12   H     H_    0.338677 0.286881 0.541210 0.158867
H13   H     H_    0.195721 0.533527 0.549311 0.130356
H14   H     H_    0.195746 0.661046 0.645195 0.130318
H15   H     H_    0.330548 0.791186 0.761082 0.142928
H16   H     H_    0.631783 0.871466 0.867897 0.161046
H17   H     H_    0.139449 0.276888 0.527534 0.163042
H18   H     H_    0.212671 0.161969 0.460138 0.158532
H19   H     H_    0.228417 0.366446 0.479221 0.156273
H20   H     H_    0.363425 0.111974 0.136002 0.166532
H21   H     H_    0.550707 0.249488 0.210730 0.156144
H22   H     H_    0.363411 0.249191 0.224971 0.166547
H23   H     H_    0.550648 0.297733 0.336447 0.156198
H24   H     H_    0.860605 0.723283 0.472756 0.163193
H25   H     H_    0.787210 0.838179 0.539728 0.158534
H26   H     H_    0.771530 0.633767 0.520964 0.164107
O1    O     O_R   0.460610 0.409240 0.550770 -0.621828
O2    O     O_R   0.909530 0.949160 0.358700 -0.622820
O3    O     O_R   0.090460 0.141840 0.551380 -0.619267
O4    O     O_R   0.358470 0.409870 0.449260 -0.626561
O5    O     O_R   0.090460 0.039050 0.448590 -0.622110
O6    O     O_R   0.090470 0.050840 0.641300 -0.622129
O7    O     O_R   0.090460 0.948050 0.538510 -0.619386
O8    O     O_R   0.909540 0.960950 0.551410 -0.622351
O9    O     O_R   0.909540 0.858160 0.448620 -0.619654
O10   O     O_R   0.551070 0.590720 0.641790 -0.620263
O11   O     O_R   0.448930 0.591350 0.540280 -0.626641
O12   O     O_R   0.358520 0.946380 0.906940 -0.626611
O13   O     O_R   0.641530 0.590130 0.550740 -0.617856
O14   O     O_R   0.539390 0.590760 0.449230 -0.618773
O15   O     O_R   0.551070 0.408650 0.459720 -0.627168
O16   O     O_R   0.448930 0.409280 0.358210 -0.614842
O17   O     O_R   0.460650 0.048500 0.906910 -0.621819
O18   O     O_R   0.551120 0.956920 0.905770 -0.620209
O19   O     O_R   0.449000 0.854790 0.905800 -0.626624
O20   O     O_R   0.641600 0.047410 0.086710 -0.617518
O21   O     O_R   0.539480 0.945290 0.086740 -0.618608
O22   O     O_R   0.551130 0.138990 0.087850 -0.627347
O23   O     O_R   0.449000 0.036870 0.087880 -0.614851
O24   O     O_R   0.909540 0.051950 0.461490 -0.619603
Zn1   Zn    Zn3+2 0.568200 0.499580 0.567780 0.953880
Zn2   Zn    Zn3+2 0.431800 0.500420 0.432220 0.953110
Zn3   Zn    Zn3+2 0.568250 0.065080 0.996810 0.954051
Zn4   Zn    Zn3+2 0.431870 0.928710 0.996840 0.953185
Zn5   Zn    Zn3+2 0.000000 0.068630 0.568630 0.953633
Zn6   Zn    Zn3+2 1.000000 0.931370 0.431370 0.953444

loop_
_geom_bond_atom_site_label_1
_geom_bond_atom_site_label_2
_ccdc_geom_bond_type
C33   H13   S    
C8    H24   S    
O14   Zn2   S    
C28   O16   A    
C19   O3    A    
C35   C36   A    
C17   O23   A    
C3    C6    S    
O22   Zn3   S    
O3    Zn5   S    
C12   C23   A    
C36   C37   A    
C14   O19   A    
O1    Zn1   S    
C38   C39   A    
C27   C29   D    
O10   Zn1   S    
O15   Zn1   S    
C5    H21   S    
C1    C2    S    
C6    H22   S    
C12   C37   A    
C14   C39   S    
C38   H16   S    
O9    Zn6   S    
C20   C24   S    
C8    C9    D    
C22   C25   S    
O12   Zn4   S    
C27   H8    S    
O4    Zn2   S    
C40   C42   S    
O23   Zn4   S    
O20   Zn3   S    
C40   H17   S    
C12   C32   A    
C28   O15   A    
O24   Zn5   S    
O6    Zn5   S    
O5    Zn6   S    
C1    O4    A    
C17   O22   A    
C19   O5    A    
C14   O18   A    
O11   Zn2   S    
C36   H15   S    
C2    H12   S    
C26   H7    S    
C4    C23   S    
C25   C26   D    
O7    Zn6   S    
C1    O1    A    
C7    C28   S    
C20   O7    A    
C9    H25   S    
C4    O10   A    
C15   O21   A    
O13   Zn1   S    
C11   C16   S    
C21   O8    A    
C23   C34   A    
O19   Zn4   S    
C16   O14   A    
C20   O6    A    
C11   H2    S    
C18   C29   S    
O16   Zn2   S    
C31   H11   S    
C42   H19   S    
C4    O11   A    
C40   C41   D    
C22   C24   D    
C13   C26   S    
C21   O9    A    
C29   H9    S    
C3    H20   S    
C30   H10   S    
C35   H14   S    
C34   C38   A    
C24   H5    S    
C32   H4    S    
C7    H23   S    
C34   H1    S    
C41   H18   S    
C3    C5    D    
C15   C31   S    
C6    C7    D    
C10   H26   S    
C18   O2    A    
C18   O24   A    
C32   C33   A    
O21   Zn4   S    
O8    Zn5   S    
C37   C39   A    
O17   Zn3   S    
C9    C21   S    
C30   C31   D    
O18   Zn3   S    
C2    C42   D    
C16   O13   A    
C33   C35   A    
C13   O12   A    
C10   C11   D    
O2    Zn6   S    
C22   H3    S    
C5    C17   S    
C8    C10   S    
C13   O17   A    
C25   H6    S    
C19   C41   S    
C15   O20   A    
C27   C30   S    
