data_mof_unit_37997.cif
_audit_creation_date              2012-12-11T15:36:31-0500
_audit_creation_method            fapswitch 2.2
_symmetry_space_group_name_H-M    P1
_symmetry_Int_Tables_number       1
_space_group_crystal_system       triclinic
_cell_length_a                    15.050051
_cell_length_b                    15.063662
_cell_length_c                    34.860678
_cell_angle_alpha                 91.465791
_cell_angle_beta                  91.915611
_cell_angle_gamma                 60.10242
_cell_volume                      6847.25501779

loop_
_atom_site_label
_atom_site_type_symbol
_atom_type_description
_atom_site_fract_x
_atom_site_fract_y
_atom_site_fract_z
_atom_type_partial_charge
C1    C     C_R   0.610890 0.302075 0.444053 0.541954
C2    C     C_R   0.591865 0.100241 0.763409 -0.107115
C3    C     C_R   0.093210 0.766015 0.886595 -0.181894
C4    C     C_R   0.122935 0.754366 0.848649 -0.141949
C5    C     C_R   0.127586 0.673831 0.826149 -0.032615
C6    C     C_R   0.109621 0.600708 0.842816 -0.078804
C7    C     C_R   0.080004 0.611913 0.880824 0.381728
C8    C     C_R   0.206095 0.578255 0.765873 -0.113937
C9    C     C_R   0.215767 0.575810 0.726278 -0.113475
C10   C     C_R   0.161677 0.666144 0.705169 0.026533
C11   C     C_R   0.097076 0.758844 0.723703 -0.089704
C12   C     C_R   0.087202 0.761363 0.763283 -0.099963
C13   C     C_R   0.592765 0.173312 0.789167 0.030991
C14   C     C_R   0.645495 0.757458 0.162309 -0.002306
C15   C     C_R   0.141996 0.671147 0.784640 0.029327
C16   C     C_R   0.227445 0.712717 0.648829 -0.003799
C17   C     C_R   0.257756 0.694278 0.610841 -0.138908
C18   C     C_R   0.184221 0.583021 0.602120 -0.020511
C19   C     C_R   0.153639 0.601886 0.640202 -0.137146
C20   C     C_R   0.178114 0.663385 0.663948 -0.002442
C21   C     C_R   0.241356 0.625614 0.587706 -0.005150
C22   C     C_R   0.672213 0.079307 0.906103 0.028729
C23   C     C_R   0.594861 0.067600 0.886764 0.374451
C24   C     C_R   0.538182 0.208227 0.641674 -0.187612
C25   C     C_R   0.564411 0.103463 0.849319 -0.077771
C26   C     C_1   0.547420 0.375523 0.279938 0.262871
C27   C     C_1   0.773221 0.996622 0.290357 0.212163
C28   C     C_1   0.821070 0.176755 0.411830 0.232596
C29   C     C_1   0.509696 0.193766 0.155922 0.234732
C30   C     C_1   0.828440 0.464770 0.853369 0.208047
C31   C     C_1   0.256043 0.775050 0.672543 0.188264
C32   C     C_1   0.549178 0.815888 0.181528 0.201363
C33   C     C_1   0.158023 0.517982 0.579041 0.221944
C34   C     C_1   0.786554 0.244995 0.607627 0.297093
C35   C     C_R   0.826089 0.627821 0.161939 -0.132651
C36   C     C_R   0.542479 0.231207 0.603553 -0.151904
C37   C     C_R   0.700210 0.234307 0.618043 -0.009244
C38   C     C_R   0.694485 0.212291 0.656385 0.370420
C39   C     C_R   0.611350 0.203442 0.668544 0.020226
C40   C     C_R   0.620249 0.249655 0.591471 -0.054181
C41   C     C_R   0.045569 0.739160 0.048591 0.541670
C42   C     C_R   0.735923 0.687308 0.182237 0.012497
C43   C     C_R   0.747336 0.746639 0.064036 0.539280
C44   C     C_R   0.751279 0.040444 0.050655 0.540585
C45   C     C_R   0.017024 0.722210 0.939765 0.567847
C46   C     C_R   0.717152 0.729975 0.954905 0.548760
C47   C     C_R   0.828349 0.642262 0.122715 -0.126368
C48   C     C_R   0.721283 0.024238 0.941987 0.566290
C49   C     C_R   0.762615 0.582780 0.240110 -0.100822
C50   C     C_R   0.754622 0.575491 0.279483 -0.100407
C51   C     C_R   0.722417 0.662216 0.303426 0.026734
C52   C     C_R   0.703208 0.755071 0.287581 -0.094196
C53   C     C_R   0.610016 0.151826 0.830758 -0.028172
C54   C     C_R   0.711256 0.762251 0.248201 -0.090140
C55   C     C_R   0.737966 0.676896 0.224171 0.022552
C56   C     C_R   0.606358 0.734798 0.359040 -0.103998
C57   C     C_R   0.593356 0.610075 0.449395 0.544988
C58   C     C_R   0.574629 0.722319 0.394633 -0.114235
C59   C     C_R   0.730703 0.558636 0.401548 -0.117142
C60   C     C_R   0.762354 0.571164 0.365972 -0.113011
C61   C     C_R   0.698824 0.657659 0.343836 0.032223
C62   C     C_R   0.634826 0.632394 0.415568 0.019003
C63   C     C_R   0.102719 0.728835 0.084974 -0.036072
C64   C     C_R   0.681599 0.169841 0.851166 -0.134300
C65   C     C_R   0.149790 0.634692 0.104123 -0.140664
C66   C     C_R   0.174186 0.630469 0.143141 -0.170600
C67   C     C_R   0.153215 0.719896 0.163557 0.034944
C68   C     C_R   0.116366 0.812238 0.143784 0.385151
C69   C     C_R   0.304063 0.591289 0.442312 0.549644
C70   C     C_R   0.091366 0.816552 0.104608 -0.088681
C71   C     C_R   0.220946 0.746534 0.226676 -0.045112
C72   C     C_R   0.228777 0.738067 0.266626 -0.043086
C73   C     C_R   0.172611 0.702184 0.286127 0.064997
C74   C     C_R   0.106984 0.677007 0.265075 -0.107534
C75   C     C_R   0.712241 0.134074 0.888390 -0.178877
C76   C     C_R   0.100085 0.684397 0.225224 -0.113472
C77   C     C_R   0.158047 0.717805 0.205761 0.060568
C78   C     C_R   0.207620 0.587467 0.341619 -0.167055
C79   C     C_R   0.237642 0.560860 0.379792 -0.139658
C80   C     C_R   0.226551 0.725198 0.391663 -0.079022
C81   C     C_R   0.605521 0.301056 0.554055 0.541459
C82   C     C_R   0.195922 0.752207 0.353469 0.388919
C83   C     C_R   0.189699 0.681915 0.327772 0.044281
C84   C     C_R   0.250974 0.627990 0.404840 -0.035084
C85   C     C_R   0.724376 0.098620 0.086986 0.003713
C86   C     C_R   0.589780 0.260826 0.774553 -0.105892
C87   C     C_R   0.801208 0.102045 0.109828 -0.118832
C88   C     C_R   0.783716 0.131648 0.148257 -0.107834
C89   C     C_R   0.688839 0.159888 0.164149 0.056021
C90   C     C_R   0.608520 0.165103 0.140569 0.021684
C91   C     C_R   0.626815 0.134374 0.102127 -0.131686
C92   C     C_R   0.618264 0.266450 0.223145 0.387846
C93   C     C_R   0.587220 0.606302 0.559242 0.539324
C94   C     C_R   0.608270 0.274798 0.263024 0.000244
C95   C     C_R   0.659491 0.185989 0.285971 -0.062483
C96   C     C_R   0.720912 0.089673 0.268336 -0.020085
C97   C     C_R   0.592878 0.271650 0.735142 -0.057959
C98   C     C_R   0.730642 0.082861 0.228564 -0.175697
C99   C     C_R   0.679518 0.170670 0.206006 0.006701
C100  C     C_R   0.738550 0.174177 0.350848 -0.097858
C101  C     C_R   0.729106 0.199421 0.389941 -0.018271
C102  C     C_R   0.546157 0.260163 0.383966 -0.130772
C103  C     C_R   0.556704 0.233855 0.345175 -0.109348
C104  C     C_R   0.651926 0.195266 0.328138 0.018220
C105  C     C_R   0.297823 0.589494 0.551693 0.545699
C106  C     C_R   0.630779 0.248446 0.406439 0.004482
C107  C     C_R   0.691569 0.688977 0.919963 -0.001066
C108  C     C_R   0.597967 0.195742 0.709685 0.064382
C109  C     C_R   0.762987 0.592396 0.905216 -0.109491
C110  C     C_R   0.752390 0.564147 0.867500 -0.003091
C111  C     C_R   0.669694 0.633667 0.843946 0.004183
C112  C     C_R   0.593368 0.725598 0.860101 -0.127527
C113  C     C_R   0.603913 0.752839 0.897765 -0.104681
C114  C     C_R   0.576467 0.636006 0.782819 -0.114338
C115  C     C_R   0.570195 0.635916 0.742793 -0.107376
C116  C     C_R   0.654591 0.618656 0.721142 0.027790
C117  C     C_R   0.740208 0.716449 0.103174 0.007976
C118  C     C_R   0.746218 0.598693 0.740108 -0.103525
C119  C     C_R   0.593898 0.111730 0.723870 -0.107877
C120  C     C_R   0.752142 0.599822 0.780131 -0.087441
C121  C     C_R   0.667169 0.618989 0.801840 0.028482
C122  C     C_R   0.721079 0.545149 0.656271 -0.107771
C123  C     C_R   0.706270 0.543815 0.616526 -0.118434
C124  C     C_R   0.545060 0.703073 0.621254 -0.122389
C125  C     C_R   0.559504 0.703847 0.660921 -0.119056
C126  C     C_R   0.645880 0.623238 0.678863 0.020695
C127  C     C_R   0.616279 0.620917 0.598795 0.014467
C128  C     C_R   0.067687 0.697260 0.902607 0.026829
C129  C     C_R   0.648276 0.771567 0.123029 -0.121644
Cr1   Cr    Cr6+3 0.426010 0.422500 0.497000 1.040334
Cr2   Cr    Cr6+3 0.651300 0.426310 0.501970 1.058918
Cr3   Cr    Cr6+3 0.422670 0.651170 0.501050 1.031766
Cr4   Cr    Cr6+3 0.905130 0.911420 0.992650 1.023705
Cr5   Cr    Cr6+3 0.911860 0.682710 0.002320 1.063526
Cr6   Cr    Cr6+3 0.682710 0.906840 0.004710 1.077554
F1    F     F_    0.174687 0.845962 0.341478 -0.628814
F2    F     F_    0.095349 0.899840 0.162993 -0.635792
F3    F     F_    0.569430 0.351445 0.201016 -0.618740
F4    F     F_    0.056697 0.543191 0.895132 -0.613266
F5    F     F_    0.553598 0.015631 0.902824 -0.632286
F6    F     F_    0.768569 0.202307 0.682244 -0.628151
H1    H     H_    0.579273 0.828199 0.108229 0.142311
H2    H     H_    0.062389 0.649917 0.279431 0.119507
H3    H     H_    0.900400 0.598984 0.108169 0.138727
H4    H     H_    0.050069 0.663176 0.209448 0.111217
H5    H     H_    0.203908 0.531700 0.322401 0.124912
H6    H     H_    0.256302 0.485248 0.389002 0.145704
H7    H     H_    0.235209 0.778859 0.410487 0.155691
H8    H     H_    0.877264 0.074239 0.098926 0.150959
H9    H     H_    0.566770 0.132512 0.084648 0.130425
H10   H     H_    0.489462 0.249032 0.327921 0.124025
H11   H     H_    0.834704 0.511393 0.355086 0.114843
H12   H     H_    0.500495 0.780554 0.404725 0.144499
H13   H     H_    0.845962 0.127293 0.166186 0.157320
H14   H     H_    0.777183 0.008767 0.214945 0.136436
H15   H     H_    0.812702 0.142374 0.337646 0.140221
H16   H     H_    0.469987 0.296338 0.395620 0.137155
H17   H     H_    0.829948 0.541126 0.922341 0.158714
H18   H     H_    0.547211 0.827471 0.908387 0.190921
H19   H     H_    0.501571 0.765948 0.677770 0.136392
H20   H     H_    0.768573 0.503320 0.290880 0.120941
H21   H     H_    0.499146 0.650030 0.728696 0.128226
H22   H     H_    0.509916 0.651418 0.798972 0.114214
H23   H     H_    0.895866 0.573048 0.176811 0.116983
H24   H     H_    0.811895 0.585989 0.723971 0.112531
H25   H     H_    0.821917 0.589621 0.794122 0.129046
H26   H     H_    0.788514 0.482343 0.669549 0.138130
H27   H     H_    0.762456 0.479495 0.600016 0.153661
H28   H     H_    0.528957 0.780021 0.842699 0.128287
H29   H     H_    0.474873 0.763695 0.608575 0.138851
H30   H     H_    0.085836 0.831511 0.902852 0.144328
H31   H     H_    0.783690 0.516233 0.221872 0.130567
H32   H     H_    0.113944 0.565544 0.651926 0.122398
H33   H     H_    0.266808 0.503946 0.712129 0.114362
H34   H     H_    0.779296 0.488901 0.417205 0.141062
H35   H     H_    0.249240 0.508005 0.781864 0.112619
H36   H     H_    0.138671 0.810382 0.836442 0.134405
H37   H     H_    0.054854 0.828906 0.707524 0.137668
H38   H     H_    0.035601 0.833445 0.777142 0.123098
H39   H     H_    0.301075 0.728099 0.600288 0.140171
H40   H     H_    0.112544 0.538169 0.825793 0.138880
H41   H     H_    0.771276 0.144950 0.902610 0.149954
H42   H     H_    0.593771 0.338146 0.724487 0.137567
H43   H     H_    0.588517 0.319228 0.793678 0.111185
H44   H     H_    0.507934 0.090038 0.834322 0.135025
H45   H     H_    0.160311 0.565663 0.089707 0.154190
H46   H     H_    0.597220 0.052833 0.704491 0.114035
H47   H     H_    0.595348 0.031451 0.773831 0.112272
H48   H     H_    0.474387 0.200108 0.650648 0.129219
H49   H     H_    0.679520 0.822570 0.305517 0.130501
H50   H     H_    0.480981 0.240554 0.584018 0.156970
H51   H     H_    0.718969 0.205942 0.837571 0.142593
H52   H     H_    0.693978 0.835029 0.236280 0.122227
H53   H     H_    0.555483 0.801879 0.342400 0.124410
H54   H     H_    0.054995 0.890183 0.090597 0.147542
H55   H     H_    0.281678 0.755801 0.282108 0.168828
H56   H     H_    0.266381 0.772108 0.212014 0.163075
H57   H     H_    0.203861 0.558398 0.157943 0.144901
N1    N     N_1   0.498706 0.456094 0.293468 -0.286609
N2    N     N_1   0.815209 0.922054 0.307961 -0.292457
N3    N     N_1   0.894882 0.158460 0.429312 -0.259285
N4    N     N_1   0.430548 0.216732 0.168254 -0.271447
N5    N     N_1   0.889370 0.385124 0.842048 -0.268485
N6    N     N_1   0.279047 0.824850 0.691538 -0.312554
N7    N     N_1   0.472042 0.862652 0.196932 -0.266648
N8    N     N_1   0.136918 0.465885 0.560589 -0.278958
N9    N     N_1   0.855874 0.253389 0.599414 -0.268247
O1    O     O_R   0.324990 0.503440 0.453910 -0.510511
O2    O     O_R   0.675430 0.831160 0.051290 -0.516809
O3    O     O_R   0.698870 0.998880 0.039560 -0.503005
O4    O     O_R   0.522030 0.339050 0.458320 -0.505740
O5    O     O_R   0.811290 0.006780 0.950620 -0.529112
O6    O     O_R   0.980960 0.812920 0.953200 -0.517436
O7    O     O_R   0.001480 0.656720 0.955830 -0.431785
O8    O     O_R   0.809240 0.683250 0.968050 -0.494175
O9    O     O_R   0.652500 0.818540 0.967340 -0.481615
O10   O     O_R   0.677620 0.987170 0.961730 -0.428995
O11   O     O_3   0.833240 0.833660 0.999890 -0.259415
O12   O     O_R   0.639980 0.519500 0.542640 -0.497713
O13   O     O_R   0.676180 0.324490 0.458320 -0.494260
O14   O     O_R   0.643570 0.521510 0.464260 -0.499551
O15   O     O_R   0.504630 0.675350 0.460920 -0.513051
O16   O     O_R   0.339850 0.642450 0.459830 -0.499851
O17   O     O_R   0.321120 0.501280 0.538470 -0.494582
O18   O     O_R   0.518440 0.337050 0.536710 -0.498895
O19   O     O_R   0.672300 0.322330 0.542880 -0.498509
O20   O     O_R   0.500750 0.673190 0.545480 -0.518720
O21   O     O_R   0.336260 0.640450 0.538210 -0.505598
O22   O     O_3   0.499990 0.499990 0.500010 -0.249903
O23   O     O_R   0.834210 0.019400 0.034570 -0.517107
O24   O     O_R   0.002210 0.824620 0.031030 -0.504168
O25   O     O_R   0.024400 0.669340 0.039790 -0.514654
O26   O     O_R   0.830490 0.694950 0.045870 -0.505163

loop_
_geom_bond_atom_site_label_1
_geom_bond_atom_site_label_2
_ccdc_geom_bond_type
C58   C62   A    
C22   C48   S    
C74   H2    S    
C63   C65   A    
C26   C94   S    
C1    O4    A    
C34   C37   S    
C73   C74   A    
C111  C112  A    
C51   C61   S    
C4    H36   S    
C80   C84   A    
C35   C47   A    
Cr3   O22   S    
C118  C120  A    
C93   C127  S    
C114  C115  A    
C85   C91   A    
C125  H19   S    
C120  H25   S    
C57   C62   S    
C57   O14   A    
C120  C121  A    
C16   C31   S    
C30   N5    T    
C24   C36   A    
C74   C76   A    
C89   C99   S    
Cr3   O15   S    
C28   N3    T    
C25   C53   A    
C37   C40   A    
C59   H34   S    
Cr3   O21   S    
C38   C39   A    
C42   C55   S    
C53   C64   A    
C111  C121  S    
C45   C128  S    
C115  C116  A    
C36   H50   S    
C100  C104  A    
C24   C39   A    
Cr2   O12   S    
C18   C19   A    
C60   H11   S    
C105  O21   A    
C35   C42   A    
C86   C97   A    
C44   O23   A    
Cr4   O23   S    
C107  C113  A    
C21   C105  S    
C3    H30   S    
C54   C55   A    
C97   C108  A    
C28   C101  S    
Cr5   O26   S    
C41   O24   A    
Cr1   O18   S    
C10   C20   S    
C70   H54   S    
C59   C62   A    
C96   C98   A    
C13   C86   A    
C45   O6    A    
C63   C70   A    
C97   H42   S    
C24   H48   S    
C122  H26   S    
Cr5   O25   S    
C7    C128  A    
C117  C129  A    
C9    C10   A    
C65   H45   S    
C44   O3    A    
C103  H10   S    
C1    C106  S    
C14   C42   A    
Cr2   O22   S    
C23   C25   A    
C66   C67   A    
C92   F3    S    
C59   C60   A    
C54   H52   S    
C116  C126  S    
C50   H20   S    
C86   H43   S    
C107  C109  A    
C108  C119  A    
Cr1   O4    S    
C94   C95   A    
C22   C75   A    
C109  H17   S    
C78   C83   A    
C102  H16   S    
C29   C90   S    
C64   H51   S    
C52   C54   A    
C71   H56   S    
C13   C53   S    
C48   O10   A    
C85   C87   A    
C27   C96   S    
C39   C108  S    
C68   F2    S    
C33   N8    T    
C81   O19   A    
C6    H40   S    
C67   C68   A    
C48   O5    A    
C23   F5    S    
C36   C40   A    
C101  C106  A    
C76   C77   A    
C80   C82   A    
C43   O26   A    
Cr3   O20   S    
C78   H5    S    
C78   C79   A    
C16   C17   A    
C79   H6    S    
C129  H1    S    
Cr1   O22   S    
C50   C51   A    
Cr5   O11   S    
Cr6   O11   S    
C47   H3    S    
C82   C83   A    
C17   C21   A    
Cr5   O8    S    
C110  C111  A    
C60   C61   A    
C69   O16   A    
C88   H13   S    
C122  C126  A    
Cr4   O24   S    
C43   C117  S    
C37   C38   A    
C58   H12   S    
C67   C77   S    
C91   H9    S    
C93   O20   A    
C123  C127  A    
C112  H28   S    
C41   O25   A    
C80   H7    S    
C16   C20   A    
C46   C107  S    
Cr6   O3    S    
C92   C94   A    
C45   O7    A    
C8    C9    A    
C124  H29   S    
C9    H33   S    
Cr2   O14   S    
C11   H37   S    
C52   H49   S    
C113  H18   S    
C26   N1    T    
C2    C13   A    
C31   N6    T    
C66   H57   S    
C25   H44   S    
C116  C118  A    
Cr6   O9    S    
C56   H53   S    
C123  H27   S    
C17   H39   S    
Cr6   O2    S    
C30   C110  S    
C76   H4    S    
C49   C50   A    
C8    C15   A    
C46   O9    A    
C124  C127  A    
C46   O8    A    
C125  C126  A    
C38   F6    S    
C41   C63   S    
C90   C91   A    
C44   C85   S    
C71   C77   A    
C95   C104  S    
C57   O15   A    
C18   C21   A    
C98   H14   S    
C69   O1    A    
C29   N4    T    
Cr3   O16   S    
C3    C128  A    
C40   C81   S    
C22   C23   A    
C27   N2    T    
C35   H23   S    
C14   C32   S    
C72   C73   A    
C72   H55   S    
C49   H31   S    
C19   H32   S    
C8    H35   S    
C92   C99   A    
C122  C123  A    
C6    C7    A    
C34   N9    T    
C105  O17   A    
C118  H24   S    
Cr4   O11   S    
Cr5   O7    S    
C93   O12   A    
Cr4   O6    S    
C19   C20   A    
Cr1   O17   S    
C12   C15   A    
C89   C90   A    
C51   C52   A    
C69   C84   S    
C49   C55   A    
C109  C110  A    
C7    F4    S    
Cr2   O19   S    
C100  H15   S    
C114  H22   S    
C79   C84   A    
C115  H21   S    
C4    C5    A    
C2    C119  A    
C100  C101  A    
C64   C75   A    
C81   O18   A    
C102  C106  A    
C1    O13   A    
C112  C113  A    
C65   C66   A    
C82   F1    S    
C102  C103  A    
C43   O2    A    
C18   C33   S    
C2    H47   S    
C5    C15   S    
Cr1   O1    S    
C10   C11   A    
C114  C121  A    
C47   C117  A    
C12   H38   S    
C71   C72   A    
C88   C89   A    
C56   C58   A    
C87   C88   A    
C68   C70   A    
C98   C99   A    
C87   H8    S    
C103  C104  A    
C5    C6    A    
Cr4   O5    S    
C56   C61   A    
Cr2   O13   S    
C119  H46   S    
C32   N7    T    
C75   H41   S    
C73   C83   S    
C95   C96   A    
C3    C4    A    
C11   C12   A    
C124  C125  A    
C14   C129  A    
Cr6   O10   S    
