data_mof_unit_46384.cif
_audit_creation_date              2012-12-11T14:17:48-0500
_audit_creation_method            fapswitch 2.2
_symmetry_space_group_name_H-M    P1
_symmetry_Int_Tables_number       1
_space_group_crystal_system       triclinic
_cell_length_a                    6.942718
_cell_length_b                    13.626724
_cell_length_c                    20.398153
_cell_angle_alpha                 101.988898
_cell_angle_beta                  90.446988
_cell_angle_gamma                 90.590921
_cell_volume                      1887.50696138

loop_
_atom_site_label
_atom_site_type_symbol
_atom_type_description
_atom_site_fract_x
_atom_site_fract_y
_atom_site_fract_z
_atom_type_partial_charge
O1    O     O_R   0.506860 0.599390 0.449240 -0.527992
O2    O     O_R   0.180220 0.594600 0.586780 -0.559137
O3    O     O_R   0.004500 0.400610 0.550760 -0.540125
C1    C     C_R   0.349583 0.612368 0.614525 0.654831
O4    O     O_R   0.177490 0.611290 0.451970 -0.544769
O5    O     O_R   0.001750 0.417420 0.414990 -0.545232
C2    C     C_R   0.346119 0.637997 0.435060 0.816878
O6    O     O_R   0.509610 0.582580 0.585010 -0.516592
O7    O     O_3   0.337420 0.436370 0.488020 -0.376809
V1    V     V_3+5 0.064680 0.511800 0.502220 1.565079
O8    O     O_R   0.671710 0.405400 0.413220 -0.533300
C3    C     C_R   0.839238 0.383939 0.386574 0.800664
O9    O     O_R   0.674440 0.388710 0.548030 -0.541281
C4    C     C_R   0.843228 0.361987 0.564785 0.748015
V2    V     V_3+5 0.564010 0.488200 0.497780 1.605441
O10   O     O_3   0.841140 0.563630 0.511980 -0.370589
C5    C     C_R   0.905273 0.111993 0.611377 0.733915
H1    H     H_    0.908018 0.165369 0.519590 0.186909
C6    C     C_R   0.853610 0.284306 0.604387 -0.186183
C7    C     C_R   0.860200 0.316878 0.928678 0.291686
C8    C     C_R   0.871537 0.392232 0.892303 -0.193654
C9    C     C_R   0.880438 0.369331 0.822586 0.585841
C10   C     C_R   0.868809 0.267962 0.786425 -0.013966
C11   C     C_R   0.868434 0.190939 0.824140 -0.131789
C12   C     C_R   0.865945 0.240052 0.714657 -0.012209
C13   C     C_R   0.889307 0.137229 0.682192 -0.134459
C14   C     C_R   0.893911 0.063073 0.721324 0.458591
C15   C     C_R   0.878694 0.090090 0.790569 -0.172754
C16   C     C_R   0.835590 0.310719 0.673809 -0.120770
C17   C     C_R   0.891795 0.185682 0.573501 -0.201537
C18   C     C_R   0.862490 0.216041 0.895230 -0.148675
H2    H     H_    0.792570 0.386540 0.693970 0.218562
H3    H     H_    0.879343 0.469949 0.918521 0.189072
H4    H     H_    0.879070 0.030292 0.818208 0.151278
C19   C     C_2   0.004872 0.288641 0.285998 -0.121344
C20   C     C_2   0.841063 0.315329 0.319930 -0.330345
H5    H     H_    0.141482 0.317618 0.308740 0.197009
H6    H     H_    0.702488 0.286874 0.299247 0.178091
C21   C     C_2   0.016475 0.220427 0.218618 0.687474
C22   C     C_2   0.861320 0.183398 0.180557 -0.359592
H7    H     H_    0.717196 0.202426 0.198321 0.141442
C23   C     C_2   0.215147 0.774009 0.787382 -0.162920
C24   C     C_2   0.361710 0.834041 0.815149 0.535169
H8    H     H_    0.086928 0.767923 0.816515 0.132119
C25   C     C_2   0.214110 0.720245 0.716009 -0.063849
C26   C     C_2   0.363429 0.666693 0.685289 0.298356
H9    H     H_    0.079877 0.721661 0.688570 0.173999
C27   C     C_R   0.304666 0.890675 0.390037 0.488057
H10   H     H_    0.275643 0.832566 0.479761 0.206898
C28   C     C_R   0.352024 0.716897 0.396067 -0.254042
C29   C     C_R   0.328655 0.686213 0.073601 -0.269298
C30   C     C_R   0.293949 0.612824 0.110285 -0.143968
C31   C     C_R   0.292903 0.637156 0.180148 0.736343
C32   C     C_R   0.338989 0.736227 0.215343 -0.019433
C33   C     C_R   0.358192 0.812127 0.177384 -0.080704
C34   C     C_R   0.351062 0.763760 0.286847 -0.126019
C35   C     C_R   0.337051 0.867154 0.319522 -0.141406
C36   C     C_R   0.358298 0.941165 0.280180 0.465132
C37   C     C_R   0.373933 0.912801 0.210840 -0.199678
C38   C     C_R   0.381344 0.691980 0.327068 0.668304
C39   C     C_R   0.306744 0.814797 0.426618 -0.271912
C40   C     C_R   0.355970 0.786042 0.106332 -0.062156
H11   H     H_    0.324500 0.665931 0.019337 0.154275
H12   H     H_    0.259683 0.536944 0.084240 0.196591
H13   H     H_    0.393576 0.971574 0.182899 0.165208
O11   O     O_R   0.203230 0.917310 0.915020 -0.570975
O12   O     O_R   0.535500 0.888690 0.048040 -0.547352
O13   O     O_R   0.711080 0.082610 0.085000 -0.540622
C41   C     C_R   0.366675 0.862469 0.065291 0.704435
O14   O     O_R   0.532630 0.905370 0.913230 -0.517808
O15   O     O_R   0.708190 0.099410 0.949230 -0.536010
C42   C     C_R   0.363966 0.887485 0.885754 0.601274
O16   O     O_R   0.206120 0.900510 0.050790 -0.544729
O17   O     O_3   0.375360 0.063570 0.011990 -0.353208
V3    V     V_3+5 0.648170 0.988200 0.997780 1.552473
O18   O     O_R   0.038240 0.111390 0.951940 -0.540493
C43   C     C_R   0.869623 0.137902 0.935082 0.789310
O19   O     O_R   0.041120 0.094710 0.086750 -0.498876
C44   C     C_R   0.873301 0.115675 0.113631 0.826169
V4    V     V_3+5 0.148810 0.011930 0.002180 1.564766
O20   O     O_3   0.871750 0.936430 0.988010 -0.389156
F1    F     F_    0.196752 0.196448 0.195385 -0.639014
F2    F     F_    0.513283 0.851382 0.776986 -0.607287
Cl1   Cl    Cl    0.571895 0.644012 0.730338 -0.531824
Cl2   Cl    Cl    0.389623 0.070866 0.312854 -0.557217
Cl3   Cl    Cl    0.237548 0.009518 0.436057 -0.501180
Cl4   Cl    Cl    0.911119 0.933307 0.687349 -0.498371
F3    F     F_    0.452924 0.599874 0.300933 -0.629152
F4    F     F_    0.222821 0.566067 0.211579 -0.613298
F5    F     F_    0.937211 0.016900 0.577685 -0.593695
Cl5   Cl    Cl    0.853669 0.351480 0.016866 -0.608320
F6    F     F_    0.918148 0.447552 0.792922 -0.672582

loop_
_geom_bond_atom_site_label_1
_geom_bond_atom_site_label_2
_ccdc_geom_bond_type
C24   C42   S    
C33   C37   A    
C24   F2    S    
O2    C1    A    
C19   C20   D    
C1    O6    A    
C38   F3    S    
C27   C35   A    
C1    C26   S    
C25   C26   D    
O13   V3    S    
C13   C14   A    
C5    C13   A    
C19   H5    S    
C16   H2    S    
O5    C3    A    
O19   V4    S    
C8    H3    S    
V2    O10   S    
C33   C40   A    
C34   C35   A    
O8    V2    S    
O11   C42   A    
C10   C11   A    
C41   O16   A    
O1    V2    S    
C3    C20   S    
O7    V1    S    
O13   C44   A    
C15   H4    S    
O17   V4    S    
C8    C9    A    
C5    C17   A    
C29   C40   A    
C23   H8    S    
C18   C43   S    
C35   C36   A    
C25   H9    S    
C12   C16   A    
C7    Cl5   S    
C32   C34   A    
H10   C39   S    
O17   V3    S    
C29   C30   A    
C11   C15   A    
C29   H11   S    
O18   C43   A    
C2    C28   S    
C30   H12   S    
C21   C22   D    
O4    C2    A    
O19   C44   A    
V3    O20   S    
C36   C37   A    
C31   C32   A    
C34   C38   A    
C40   C41   S    
O12   C41   A    
C23   C25   S    
C19   C21   S    
C22   C44   S    
C14   Cl4   S    
O3    C4    A    
H1    C17   S    
C22   H7    S    
O6    V2    S    
O9    V2    S    
C31   F4    S    
C27   Cl3   S    
O12   V3    S    
C23   C24   D    
O2    V1    S    
C36   Cl2   S    
O15   C43   A    
C30   C31   A    
C32   C33   A    
O1    C2    A    
C4    C6    S    
C5    F5    S    
O18   V4    S    
C21   F1    S    
V4    O20   S    
O5    V1    S    
O8    C3    A    
O11   V4    S    
C28   C38   A    
C20   H6    S    
C12   C13   A    
C11   C18   A    
O4    V1    S    
O3    V1    S    
V1    O10   S    
C37   H13   S    
O15   V3    S    
C27   C39   A    
O16   V4    S    
C26   Cl1   S    
C10   C12   A    
O7    V2    S    
C7    C8    A    
O14   V3    S    
C28   C39   A    
C9    F6    S    
C9    C10   A    
O14   C42   A    
O9    C4    A    
C6    C17   A    
C14   C15   A    
C7    C18   A    
C6    C16   A    
