data_mof_unit_60161.cif
_audit_creation_date              2012-12-10T18:55:27-0500
_audit_creation_method            fapswitch 2.2
_symmetry_space_group_name_H-M    P1
_symmetry_Int_Tables_number       1
_space_group_crystal_system       triclinic
_cell_length_a                    19.45339
_cell_length_b                    18.249221
_cell_length_c                    17.729106
_cell_angle_alpha                 89.928777
_cell_angle_beta                  90.175233
_cell_angle_gamma                 90.078754
_cell_volume                      6293.95576184

loop_
_atom_site_label
_atom_site_type_symbol
_atom_type_description
_atom_site_fract_x
_atom_site_fract_y
_atom_site_fract_z
_atom_type_partial_charge
C1    C     C_R   0.367636 0.499955 0.499888 0.798321
C2    C     C_R   0.632363 0.500045 0.500112 0.798121
C3    C     C_R   0.852192 0.500170 0.500387 0.088500
C4    C     C_R   0.147807 0.499831 0.499614 0.088388
C5    C     C_R   0.707884 0.500126 0.500278 -0.054446
C6    C     C_R   0.292116 0.499874 0.499723 -0.054581
C7    C     C_R   0.964088 0.548810 0.453592 -0.147100
C8    C     C_R   0.035912 0.451191 0.546408 -0.147048
C9    C     C_R   0.035666 0.548666 0.453339 -0.145700
C10   C     C_R   0.964334 0.451335 0.546662 -0.145869
C11   C     C_R   0.072123 0.499859 0.499748 0.086351
C12   C     C_R   0.927877 0.500142 0.500253 0.086324
C13   C     C_R   0.463267 0.719793 0.446505 -0.004200
C14   C     C_R   0.536482 0.280206 0.553705 -0.003559
C15   C     C_R   0.547605 0.719886 0.541841 0.003825
C16   C     C_R   0.452522 0.280136 0.457966 0.003464
C17   C     C_R   0.469566 0.795896 0.438144 0.313739
C18   C     C_R   0.530065 0.204119 0.562104 0.315671
C19   C     C_R   0.555189 0.796032 0.535267 0.319787
C20   C     C_R   0.444836 0.204005 0.464569 0.319312
C21   C     C_R   0.506116 0.837341 0.493283 0.015372
C22   C     C_R   0.493708 0.162676 0.506815 0.015162
C23   C     C_R   0.537386 0.962062 0.553984 0.361626
C24   C     C_R   0.462447 0.037928 0.446205 0.361423
C25   C     C_R   0.452951 0.962316 0.455810 0.359359
C26   C     C_R   0.546823 0.037702 0.544451 0.359596
C27   C     C_R   0.501034 0.079147 0.499148 -0.161879
C28   C     C_R   0.498775 0.920861 0.501041 -0.161647
C29   C     C_R   0.500694 0.500038 0.355480 0.819520
C30   C     C_R   0.499355 0.499947 0.644519 0.820051
C31   C     C_R   0.486445 0.566461 0.845908 -0.009785
C32   C     C_R   0.513467 0.432885 0.154362 -0.025492
C33   C     C_R   0.512423 0.567227 0.154016 -0.012856
C34   C     C_R   0.490035 0.432122 0.845790 -0.012600
C35   C     C_R   0.491396 0.565867 0.767137 -0.204951
C36   C     C_R   0.507973 0.433779 0.233059 -0.205318
C37   C     C_R   0.506991 0.566380 0.232764 -0.203167
C38   C     C_R   0.494896 0.433315 0.767088 -0.198461
C39   C     C_R   0.496207 0.499754 0.727471 -0.090288
C40   C     C_R   0.504157 0.500078 0.272538 -0.085207
C41   C     C_R   0.488462 0.499255 0.885677 -0.027274
C42   C     C_R   0.513051 0.499992 0.114398 -0.020841
C43   C     C_1   0.496860 0.499460 0.966412 0.124820
C44   C     C_1   0.504921 0.499712 0.033642 0.128958
C45   C     C_R   0.744221 0.433701 0.499949 -0.153977
C46   C     C_R   0.255779 0.566300 0.500055 -0.153776
C47   C     C_R   0.255660 0.433411 0.499230 -0.149976
C48   C     C_R   0.744340 0.566590 0.500766 -0.150340
C49   C     C_R   0.815793 0.433747 0.500016 -0.139502
C50   C     C_R   0.184207 0.566253 0.499988 -0.139283
C51   C     C_R   0.184070 0.433416 0.499217 -0.135287
C52   C     C_R   0.815930 0.566584 0.500780 -0.135590
Cu1   Cu    Cu3+1 0.500000 0.573360 0.500000 0.972687
Cu2   Cu    Cu3+1 0.500000 0.426640 0.500000 0.972576
H1    H     H_    0.490106 0.617307 0.736546 0.193924
H2    H     H_    0.508075 0.382371 0.263741 0.192583
H3    H     H_    0.506284 0.617818 0.263254 0.197420
H4    H     H_    0.496458 0.381989 0.736450 0.202867
H5    H     H_    0.717440 0.381633 0.499422 0.170537
H6    H     H_    0.282560 0.618367 0.500586 0.170577
H7    H     H_    0.282358 0.381368 0.498692 0.176764
H8    H     H_    0.717641 0.618632 0.501301 0.176648
H9    H     H_    0.842713 0.381854 0.498802 0.149863
H10   H     H_    0.157287 0.618147 0.501205 0.149933
H11   H     H_    0.157024 0.381514 0.497997 0.153352
H12   H     H_    0.842975 0.618487 0.501997 0.153261
H13   H     H_    0.937013 0.586198 0.416508 0.148072
H14   H     H_    0.062988 0.413803 0.583493 0.148077
H15   H     H_    0.062539 0.585972 0.416086 0.148780
H16   H     H_    0.937462 0.414029 0.583915 0.148642
H17   H     H_    0.434325 0.688535 0.405410 0.174571
H18   H     H_    0.565283 0.311458 0.594921 0.175038
H19   H     H_    0.584207 0.688692 0.574838 0.173287
H20   H     H_    0.416063 0.311352 0.424800 0.173607
N1    N     N_R   0.500000 0.683620 0.500000 -0.231117
N2    N     N_R   0.500000 0.316380 0.500000 -0.231402
O1    O     O_R   0.400190 0.561980 0.499990 -0.579028
O2    O     O_R   0.599810 0.438020 0.500010 -0.578955
O3    O     O_R   0.599810 0.561980 0.500010 -0.583682
O4    O     O_R   0.400190 0.438020 0.499990 -0.583481
O5    O     O_R   0.500000 0.561980 0.391260 -0.583070
O6    O     O_R   0.500000 0.438020 0.608740 -0.583414
O7    O     O_R   0.500000 0.561980 0.608740 -0.577242
O8    O     O_R   0.500000 0.438020 0.391260 -0.577686
C53   C     C_2   0.477112 0.637851 0.884761 0.882390
O9    O     O_2   0.502316 0.693620 0.858213 -0.543538
O10   O     O_R   0.437237 0.641943 0.950107 -0.743747
H21   H     H_    0.433501 0.693738 0.970289 0.362773
C54   C     C_2   0.521760 0.361229 0.115800 0.906747
O11   O     O_2   0.494591 0.306242 0.141731 -0.531163
O12   O     O_R   0.562962 0.355932 0.051561 -0.739777
H22   H     H_    0.565834 0.304017 0.031521 0.362124
C55   C     C_2   0.519475 0.638982 0.115053 0.884879
O13   O     O_2   0.492470 0.693693 0.141489 -0.530369
O14   O     O_R   0.559235 0.644719 0.049732 -0.743357
H23   H     H_    0.561293 0.696646 0.029459 0.363107
C56   C     C_2   0.485151 0.359816 0.884027 0.879953
O15   O     O_2   0.452152 0.353250 0.942239 -0.562251
O16   O     O_R   0.516218 0.298362 0.851730 -0.713567
H24   H     H_    0.508731 0.252169 0.882478 0.367821
Cl1   Cl    Cl    0.455883 0.828510 0.345506 -0.443656
Cl2   Cl    Cl    0.543294 0.171547 0.654841 -0.454291
Cl3   Cl    Cl    0.638780 0.829217 0.554168 -0.476611
Cl4   Cl    Cl    0.361260 0.170931 0.445380 -0.475435
Cl5   Cl    Cl    0.549496 0.930240 0.647245 -0.384363
Cl6   Cl    Cl    0.450641 0.069567 0.352837 -0.380705
Cl7   Cl    Cl    0.368353 0.931303 0.438158 -0.403813
Cl8   Cl    Cl    0.631294 0.068877 0.562551 -0.404832

loop_
_geom_bond_atom_site_label_1
_geom_bond_atom_site_label_2
_ccdc_geom_bond_type
C15   N1    A    
O10   H21   S    
C55   O13   D    
C31   C53   S    
C1    O1    A    
C14   C18   A    
Cu1   O1    S    
O14   H23   S    
C24   C27   A    
Cu2   O8    S    
C56   O15   D    
C3    C49   A    
Cu1   Cu2   S    
C25   C28   A    
C15   C19   A    
C26   C27   A    
C49   H9    S    
C33   C42   A    
C32   C36   A    
Cu1   O3    S    
C9    H15   S    
C37   C40   A    
C18   Cl2   S    
C38   C39   A    
C23   Cl5   S    
C34   C56   S    
C50   H10   S    
Cu1   O5    S    
C51   H11   S    
C23   C26   A    
C30   O7    A    
C17   Cl1   S    
C2    O3    A    
C38   H4    S    
C19   Cl3   S    
C13   N1    A    
C3    C12   S    
C54   O12   S    
C6    C46   A    
C46   H6    S    
C55   O14   S    
C34   C38   A    
C41   C43   S    
Cu1   N1    S    
C34   C41   A    
C42   C44   S    
C56   O16   S    
Cu2   O4    S    
C53   O10   S    
C7    C12   A    
C5    C48   A    
C6    C47   A    
C4    C51   A    
C35   H1    S    
C1    C6    S    
C36   C40   A    
C24   C25   A    
C29   O8    A    
C26   Cl8   S    
O12   H22   S    
C47   C51   A    
C13   H17   S    
C53   O9    D    
C5    C45   A    
C33   C37   A    
C4    C50   A    
C14   N2    A    
C30   O6    A    
C35   C39   A    
C43   C44   T    
C29   O5    A    
C36   H2    S    
C48   H8    S    
O16   H24   S    
C45   C49   A    
C16   C20   A    
C23   C28   A    
C4    C11   S    
C9    C11   A    
C10   C12   A    
Cu2   N2    S    
C10   H16   S    
C15   H19   S    
C21   C28   S    
C20   C22   A    
C8    H14   S    
C22   C27   S    
C32   C54   S    
C16   H20   S    
C2    C5    S    
C24   Cl6   S    
Cu2   O6    S    
C52   H12   S    
C2    O2    A    
C25   Cl7   S    
C7    C9    A    
C45   H5    S    
C31   C41   A    
C19   C21   A    
C16   N2    A    
C14   H18   S    
C33   C55   S    
C47   H7    S    
C3    C52   A    
C20   Cl4   S    
C46   C50   A    
C13   C17   A    
Cu1   O7    S    
C18   C22   A    
C8    C11   A    
C29   C40   S    
C30   C39   S    
C31   C35   A    
C17   C21   A    
C7    H13   S    
C48   C52   A    
C8    C10   A    
C1    O4    A    
C32   C42   A    
C54   O11   D    
C37   H3    S    
Cu2   O2    S    
