data_mof_unit_63822.cif
_audit_creation_date              2013-03-05T15:40:30-0500
_audit_creation_method            fapswitch 2.2
_symmetry_space_group_name_H-M    P1
_symmetry_Int_Tables_number       1
_space_group_crystal_system       triclinic
_cell_length_a                    10.87449
_cell_length_b                    10.873482
_cell_length_c                    16.066173
_cell_angle_alpha                 91.318541
_cell_angle_beta                  97.77179
_cell_angle_gamma                 98.830848
_cell_volume                      1858.09951259

loop_
_atom_site_label
_atom_site_type_symbol
_atom_site_description
_atom_site_fract_x
_atom_site_fract_y
_atom_site_fract_z
_atom_type_partial_charge
Zn1   Zn    Zn3+2 0.408180 0.591840 0.569080 0.994912
Zn2   Zn    Zn3+2 0.608390 0.616500 0.442190 1.032077
Zn3   Zn    Zn3+2 0.381900 0.393170 0.419650 1.019044
Zn4   Zn    Zn3+2 0.601540 0.398480 0.569080 1.007375
O1    O     O_3   0.500000 0.500000 0.500000 -0.503587
O2    O     O_R   0.777820 0.443700 0.559450 -0.626289
O3    O     O_R   0.228980 0.549520 0.537250 -0.642885
O4    O     O_R   0.592170 0.786730 0.470640 -0.633996
O5    O     O_R   0.401030 0.220040 0.432660 -0.642456
O6    O     O_R   0.566290 0.591070 0.323460 -0.618287
O7    O     O_R   0.580640 0.419420 0.684420 -0.628587
O8    O     O_R   0.407770 0.434760 0.307690 -0.625991
O9    O     O_R   0.445300 0.554750 0.684430 -0.642782
O10   O     O_R   0.452040 0.769470 0.559450 -0.626815
O11   O     O_R   0.554760 0.223750 0.537250 -0.642177
O12   O     O_R   0.782610 0.596300 0.470630 -0.631560
O13   O     O_R   0.210590 0.410470 0.432660 -0.645210
C1    C     C_R   0.838716 0.526141 0.519465 0.945828
C2    C     C_R   0.160020 0.474762 0.481442 0.764370
C3    C     C_R   0.529062 0.835922 0.519507 0.943131
C4    C     C_R   0.472171 0.162596 0.481511 0.770225
C5    C     C_R   0.483627 0.515541 0.275838 0.842281
C6    C     C_R   0.515861 0.484189 0.723831 0.811973
C7    C     C_1   0.477867 0.519293 0.186355 -0.072307
C8    C     C_2   0.469430 0.521164 0.021020 -0.298051
C9    C     C_2   0.537041 0.454621 0.977931 0.327371
C10   C     C_1   0.528334 0.467326 0.888120 -0.047250
C11   C     C_1   0.473760 0.520779 0.111088 0.129927
C12   C     C_1   0.521975 0.476178 0.813124 -0.096452
H1    H     H_    0.409897 0.580972 0.987594 0.153090
C13   C     C_2   0.022550 0.462607 0.474196 0.281280
C14   C     C_2   0.973017 0.534578 0.524947 -0.325011
H2    H     H_    0.031032 0.602268 0.570345 0.118521
C15   C     C_2   0.458805 0.026171 0.474475 0.280939
C16   C     C_2   0.538521 0.969453 0.524897 -0.322222
H3    H     H_    0.613412 0.021053 0.569767 0.120417
N1    N     N_R   0.618326 0.372652 0.017196 0.232859
O14   O     O_R   0.698899 0.331218 0.975156 -0.355195
O15   O     O_R   0.605616 0.329802 0.091030 -0.366768
O16   O     O_3   0.943542 0.379306 0.416646 -0.746489
H4    H     H_    0.994916 0.333060 0.384719 0.360888
O17   O     O_3   0.366575 0.955307 0.417425 -0.754889
H5    H     H_    0.315305 0.011186 0.385789 0.358752

loop_
_geom_bond_atom_site_label_1
_geom_bond_atom_site_label_2
_geom_bond_distance
_ccdc_geom_bond_type
C9    N1    1.445903 S    
N1    O14   1.301594 A    
Zn3   O5    1.938417 S    
O8    C5    1.275253 A    
C10   C12   1.204431 T    
Zn2   O12   1.935101 S    
C13   C14   1.336499 D    
C15   O17   1.386126 S    
C2    C13   1.468795 S    
C14   H2    1.086274 S    
Zn4   O11   1.928261 S    
N1    O15   1.301291 A    
O6    C5    1.275269 A    
Zn4   O7    1.909909 S    
O5    C4    1.269384 A    
C9    C10   1.444404 S    
O4    C3    1.269864 A    
C15   C16   1.336145 D    
Zn1   O1    1.944444 S    
C6    C12   1.432417 S    
O7    C6    1.282801 A    
O16   H4    0.989925 S    
O13   C2    1.270731 A    
Zn3   O13   1.939227 S    
O3    C2    1.274566 A    
O2    C1    1.270465 A    
C5    C7    1.432316 S    
Zn2   O1    1.936082 S    
C1    C14   1.439730 S    
O17   H5    0.989923 S    
Zn2   O6    1.904053 S    
O10   C3    1.271355 A    
Zn1   O10   1.932049 S    
O11   C4    1.273742 A    
Zn1   O9    1.908434 S    
C13   O16   1.386065 S    
O9    C6    1.284484 A    
O12   C1    1.269167 A    
Zn4   O2    1.932546 S    
C8    H1    1.087080 S    
Zn3   O8    1.911663 S    
Zn3   O1    1.920869 S    
C8    C9    1.349554 D    
Zn1   O3    1.927448 S    
C3    C16   1.439505 S    
C4    C15   1.468355 S    
Zn2   O4    1.936315 S    
C7    C11   1.204615 T    
Zn4   O1    1.941326 S    
C8    C11   1.441552 S    
C16   H3    1.086294 S    
