data_mof_unit_60710.cif
_audit_creation_date              2012-12-10T20:55:24-0500
_audit_creation_method            fapswitch 2.2
_symmetry_space_group_name_H-M    P1
_symmetry_Int_Tables_number       1
_space_group_crystal_system       triclinic
_cell_length_a                    26.0306
_cell_length_b                    27.734045
_cell_length_c                    19.016522
_cell_angle_alpha                 90.000267
_cell_angle_beta                  133.167666
_cell_angle_gamma                 89.999723
_cell_volume                      10013.0721395

loop_
_atom_site_label
_atom_site_type_symbol
_atom_type_description
_atom_site_fract_x
_atom_site_fract_y
_atom_site_fract_z
_atom_type_partial_charge
C1    C     C_R   1.000000 0.879263 0.500000 0.838979
C2    C     C_R   0.000000 0.120736 0.500000 0.829140
C3    C     C_R   0.500000 0.379263 0.500000 0.829141
C4    C     C_R   0.500000 0.620737 0.500000 0.838979
C5    C     C_R   0.215989 0.652198 0.602747 -0.256187
C6    C     C_R   0.814857 0.363147 0.468209 -0.254757
C7    C     C_R   0.784014 0.652257 0.397144 -0.256169
C8    C     C_R   0.185083 0.363156 0.531675 -0.254742
C9    C     C_R   0.685144 0.136853 0.531793 -0.254756
C10   C     C_R   0.284034 0.847805 0.397275 -0.256161
C11   C     C_R   0.314910 0.136836 0.468336 -0.254759
C12   C     C_R   0.715981 0.847740 0.602855 -0.256163
C13   C     C_R   0.208154 0.658824 0.522509 0.226107
C14   C     C_R   0.822056 0.340119 0.540388 0.251489
C15   C     C_R   0.791769 0.658833 0.477327 0.225988
C16   C     C_R   0.177899 0.340110 0.459523 0.251516
C17   C     C_R   0.677945 0.159881 0.459614 0.251486
C18   C     C_R   0.291849 0.841179 0.477497 0.226099
C19   C     C_R   0.322109 0.159892 0.540493 0.251545
C20   C     C_R   0.708234 0.841167 0.522678 0.225979
C21   C     C_R   0.182301 0.620677 0.457090 -0.156938
C22   C     C_R   0.864859 0.361045 0.632398 -0.145134
C23   C     C_R   0.817508 0.620640 0.542620 -0.156942
C24   C     C_R   0.135085 0.361011 0.367491 -0.145160
C25   C     C_R   0.635145 0.138952 0.367606 -0.145131
C26   C     C_R   0.317690 0.879327 0.542911 -0.156943
C27   C     C_R   0.364942 0.139002 0.632538 -0.145174
C28   C     C_R   0.682506 0.879364 0.457395 -0.156944
C29   C     C_R   0.164273 0.576742 0.471556 -0.202915
C30   C     C_R   0.901035 0.403913 0.652431 -0.258506
C31   C     C_R   0.835503 0.576710 0.528087 -0.202915
C32   C     C_R   0.098881 0.403872 0.347409 -0.258558
C33   C     C_R   0.598973 0.096082 0.347576 -0.258507
C34   C     C_R   0.335726 0.923262 0.528457 -0.202914
C35   C     C_R   0.401150 0.096143 0.652627 -0.258540
C36   C     C_R   0.664514 0.923294 0.471932 -0.202914
C37   C     C_R   0.171940 0.570576 0.551315 0.725106
C38   C     C_R   0.894536 0.426252 0.580785 0.730792
C39   C     C_R   0.827922 0.570596 0.448392 0.725130
C40   C     C_R   0.105361 0.426227 0.419027 0.730948
C41   C     C_R   0.605472 0.073744 0.419223 0.730781
C42   C     C_R   0.328079 0.929428 0.448716 0.725104
C43   C     C_R   0.394654 0.073777 0.581003 0.730956
C44   C     C_R   0.672087 0.929405 0.551621 0.725140
C45   C     C_R   0.279708 0.706529 0.504740 0.584248
C46   C     C_R   0.733894 0.291941 0.522722 0.585792
C47   C     C_R   0.720244 0.706531 0.495164 0.584182
C48   C     C_R   0.266086 0.291936 0.477239 0.585787
C49   C     C_R   0.766106 0.208059 0.477278 0.585791
C50   C     C_R   0.220289 0.793472 0.495255 0.584238
C51   C     C_R   0.233917 0.208065 0.522766 0.585798
C52   C     C_R   0.779757 0.793469 0.504837 0.584175
C53   C     C_R   0.302704 0.750547 0.498082 -0.274265
C54   C     C_R   0.697208 0.248958 0.501724 -0.285969
C55   C     C_R   0.697294 0.750545 0.501914 -0.274184
C56   C     C_R   0.302793 0.248958 0.498279 -0.285988
C57   C     C_R   0.802791 0.251042 0.498276 -0.285968
C58   C     C_R   0.197294 0.749454 0.501914 -0.274262
C59   C     C_R   0.197209 0.251042 0.501724 -0.285989
C60   C     C_R   0.802706 0.749455 0.498087 -0.274182
C61   C     C_R   0.272551 0.794443 0.492370 -0.181987
C62   C     C_R   0.713620 0.206523 0.479255 -0.190431
C63   C     C_R   0.727492 0.794438 0.507719 -0.181933
C64   C     C_R   0.286405 0.206529 0.520793 -0.190439
C65   C     C_R   0.786380 0.293477 0.520745 -0.190434
C66   C     C_R   0.227447 0.705559 0.507626 -0.181994
C67   C     C_R   0.213599 0.293473 0.479214 -0.190426
C68   C     C_R   0.772509 0.705562 0.492283 -0.181941
C69   C     C_1   1.000000 0.931040 0.499999 -0.114296
C70   C     C_1   0.000000 0.068960 0.500000 -0.113630
C71   C     C_1   0.500000 0.431040 0.499999 -0.113630
C72   C     C_1   0.500000 0.568960 0.500000 -0.114295
C73   C     C_1   1.000000 0.974530 0.500000 0.024573
C74   C     C_1   0.000000 0.025470 0.500000 0.024396
C75   C     C_1   0.500000 0.474530 0.500000 0.024397
C76   C     C_1   0.500000 0.525470 0.500000 0.024574
C77   C     C_R   0.999999 0.620712 0.499999 0.801295
C78   C     C_R   0.999999 0.379287 0.499999 0.795294
C79   C     C_R   0.500001 0.120713 0.500000 0.795303
C80   C     C_R   0.500001 0.879287 0.500001 0.801289
C81   C     C_R   0.859649 0.749999 0.499887 0.914864
C82   C     C_R   0.140642 0.250404 0.500669 0.896297
C83   C     C_R   0.140353 0.749997 0.500117 0.914809
C84   C     C_R   0.859358 0.250404 0.499330 0.896329
C85   C     C_R   0.359358 0.249596 0.499331 0.896304
C86   C     C_R   0.640351 0.750001 0.500113 0.914860
C87   C     C_R   0.640642 0.249596 0.500669 0.896329
C88   C     C_R   0.359646 0.750004 0.499882 0.914802
C89   C     C_R   0.870723 0.749962 0.241445 0.817013
C90   C     C_R   0.129268 0.250029 0.758555 0.816393
C91   C     C_R   0.129277 0.749963 0.758554 0.817017
C92   C     C_R   0.870732 0.250029 0.241445 0.816393
C93   C     C_R   0.370732 0.249971 0.241445 0.816393
C94   C     C_R   0.629277 0.750037 0.758555 0.817012
C95   C     C_R   0.629268 0.249971 0.758555 0.816393
C96   C     C_R   0.370723 0.750037 0.241445 0.817014
C97   C     C_1   0.181042 0.749962 0.862096 -0.131479
C98   C     C_1   0.818967 0.250031 0.137903 -0.132449
C99   C     C_1   0.818957 0.749962 0.137903 -0.131485
C100  C     C_1   0.181033 0.250031 0.862097 -0.132453
C101  C     C_1   0.681033 0.249969 0.862097 -0.132449
C102  C     C_1   0.318957 0.750038 0.137904 -0.131478
C103  C     C_1   0.318967 0.249969 0.137903 -0.132454
C104  C     C_1   0.681043 0.750038 0.862097 -0.131484
C105  C     C_1   0.224529 0.749983 0.949064 0.010818
C106  C     C_1   0.775476 0.250014 0.050936 0.009072
C107  C     C_1   0.775471 0.749983 0.050936 0.010819
C108  C     C_1   0.224524 0.250014 0.949064 0.009069
C109  C     C_1   0.724524 0.249986 0.949064 0.009072
C110  C     C_1   0.275471 0.750017 0.050936 0.010818
C111  C     C_1   0.275475 0.249986 0.050936 0.009068
C112  C     C_1   0.724529 0.750017 0.949064 0.010819
C113  C     C_1   0.999996 0.568947 0.499996 -0.100564
C114  C     C_1   0.999997 0.431054 0.499997 -0.118870
C115  C     C_1   0.500003 0.068946 0.500003 -0.118870
C116  C     C_1   0.500004 0.931053 0.500004 -0.100565
C117  C     C_1   0.999995 0.525463 0.499995 0.175757
C118  C     C_1   0.999996 0.474535 0.499995 0.166466
C119  C     C_1   0.500004 0.025465 0.500005 0.166456
C120  C     C_1   0.500005 0.974536 0.500005 0.175760
C121  C     C_R   0.197642 0.608319 0.616710 -0.260465
C122  C     C_R   0.851136 0.406038 0.488557 -0.184558
C123  C     C_R   0.802335 0.608384 0.383121 -0.260467
C124  C     C_R   0.148774 0.406039 0.511278 -0.184472
C125  C     C_R   0.648868 0.093960 0.511448 -0.184559
C126  C     C_R   0.302389 0.891685 0.383325 -0.260462
C127  C     C_R   0.351222 0.093953 0.488740 -0.184507
C128  C     C_R   0.697663 0.891613 0.616881 -0.260469
H1    H     H_    0.203624 0.603549 0.678489 0.164162
H2    H     H_    0.846099 0.423320 0.433056 0.186521
H3    H     H_    0.796420 0.603654 0.321391 0.164154
H4    H     H_    0.153798 0.423333 0.566758 0.186504
H5    H     H_    0.653906 0.076679 0.566950 0.186526
H6    H     H_    0.296424 0.896454 0.321560 0.164148
H7    H     H_    0.346187 0.076652 0.433255 0.186538
H8    H     H_    0.703571 0.896340 0.678606 0.164152
H9    H     H_    0.236446 0.680979 0.654541 0.149090
H10   H     H_    0.781944 0.347536 0.396820 0.144180
H11   H     H_    0.763639 0.681071 0.345439 0.149068
H12   H     H_    0.218004 0.347564 0.603081 0.144166
H13   H     H_    0.718054 0.152465 0.603181 0.144178
H14   H     H_    0.263586 0.819024 0.345483 0.149073
H15   H     H_    0.281975 0.152419 0.396920 0.144181
H16   H     H_    0.736347 0.818923 0.654552 0.149063
H17   H     H_    0.175749 0.625072 0.394742 0.180530
H18   H     H_    0.871068 0.343727 0.688887 0.167990
H19   H     H_    0.823997 0.624996 0.604923 0.180624
H20   H     H_    0.128888 0.343679 0.311022 0.167997
H21   H     H_    0.628936 0.156270 0.311117 0.167993
H22   H     H_    0.324227 0.874931 0.605247 0.180545
H23   H     H_    0.371151 0.156341 0.689011 0.167974
H24   H     H_    0.676024 0.875011 0.395097 0.180637
H25   H     H_    0.144416 0.547504 0.420904 0.200115
H26   H     H_    0.934566 0.419585 0.723788 0.171841
H27   H     H_    0.855267 0.547437 0.578639 0.200118
H28   H     H_    0.065340 0.419524 0.276035 0.171848
H29   H     H_    0.565445 0.080408 0.276222 0.171842
H30   H     H_    0.355573 0.952499 0.579107 0.200102
H31   H     H_    0.434706 0.080499 0.724011 0.171846
H32   H     H_    0.644760 0.952570 0.421388 0.200121
O1    O     O_3   0.000000 0.749990 0.500000 -0.501853
O2    O     O_3   0.000000 0.250010 0.500000 -0.502093
O3    O     O_3   0.500000 0.249990 0.500000 -0.502093
O4    O     O_3   0.500000 0.750010 0.500000 -0.501854
O5    O     O_R   0.058230 0.856270 0.555710 -0.619755
O6    O     O_R   0.941770 0.143730 0.444290 -0.618281
O7    O     O_R   0.941770 0.856270 0.444290 -0.619775
O8    O     O_R   0.058230 0.143730 0.555710 -0.618280
O9    O     O_R   0.558230 0.356270 0.555710 -0.618281
O10   O     O_R   0.441770 0.643730 0.444290 -0.619754
O11   O     O_R   0.441770 0.356270 0.444290 -0.618280
O12   O     O_R   0.558230 0.643730 0.555710 -0.619774
O13   O     O_R   0.997500 0.643710 0.555730 -0.630792
O14   O     O_R   0.002500 0.356290 0.444270 -0.631526
O15   O     O_R   0.002500 0.643710 0.444270 -0.630802
O16   O     O_R   0.997500 0.356290 0.555730 -0.631531
O17   O     O_R   0.497500 0.143710 0.555730 -0.631524
O18   O     O_R   0.502500 0.856290 0.444270 -0.630792
O19   O     O_R   0.502500 0.143710 0.444270 -0.631534
O20   O     O_R   0.497500 0.856290 0.555730 -0.630797
O21   O     O_R   0.856330 0.777850 0.444260 -0.602163
O22   O     O_R   0.143670 0.222150 0.555740 -0.580625
O23   O     O_R   0.143670 0.777850 0.555740 -0.602084
O24   O     O_R   0.856330 0.222150 0.444260 -0.580650
O25   O     O_R   0.356330 0.277850 0.444260 -0.580626
O26   O     O_R   0.643670 0.722150 0.555740 -0.602163
O27   O     O_R   0.643670 0.277850 0.555740 -0.580650
O28   O     O_R   0.356330 0.722150 0.444260 -0.602081
O29   O     O_R   0.087950 0.722120 0.444280 -0.644839
O30   O     O_R   0.912050 0.277880 0.555720 -0.653383
O31   O     O_R   0.912050 0.722120 0.555720 -0.644802
O32   O     O_R   0.087950 0.277880 0.444280 -0.653396
O33   O     O_R   0.587950 0.222120 0.444280 -0.653382
O34   O     O_R   0.412050 0.777880 0.555720 -0.644836
O35   O     O_R   0.412050 0.222120 0.555720 -0.653401
O36   O     O_R   0.587950 0.777880 0.444280 -0.644799
O37   O     O_R   0.863370 0.777840 0.287440 -0.636074
O38   O     O_R   0.136630 0.222160 0.712560 -0.632773
O39   O     O_R   0.136630 0.777840 0.712560 -0.636067
O40   O     O_R   0.863370 0.222160 0.287440 -0.632783
O41   O     O_R   0.363370 0.277840 0.287440 -0.632774
O42   O     O_R   0.636630 0.722160 0.712560 -0.636074
O43   O     O_R   0.636630 0.277840 0.712560 -0.632783
O44   O     O_R   0.363370 0.722160 0.287440 -0.636067
O45   O     O_R   0.924090 0.722120 0.287440 -0.630761
O46   O     O_R   0.075910 0.277880 0.712560 -0.632695
O47   O     O_R   0.075910 0.722120 0.712560 -0.630758
O48   O     O_R   0.924090 0.277880 0.287440 -0.632687
O49   O     O_R   0.424090 0.222120 0.287440 -0.632694
O50   O     O_R   0.575910 0.777880 0.712560 -0.630760
O51   O     O_R   0.575910 0.222120 0.712560 -0.632689
O52   O     O_R   0.424090 0.777880 0.287440 -0.630758
Zn1   Zn    Zn3+2 0.996430 0.710180 0.579620 0.990549
Zn2   Zn    Zn3+2 0.003570 0.289820 0.420380 0.977925
Zn3   Zn    Zn3+2 0.003570 0.710180 0.420380 0.990509
Zn4   Zn    Zn3+2 0.996430 0.289820 0.579620 0.977933
Zn5   Zn    Zn3+2 0.496430 0.210180 0.579620 0.977925
Zn6   Zn    Zn3+2 0.503570 0.789820 0.420380 0.990548
Zn7   Zn    Zn3+2 0.503570 0.210180 0.420380 0.977934
Zn8   Zn    Zn3+2 0.496430 0.789820 0.579620 0.990510
Zn9   Zn    Zn3+2 0.916810 0.789800 0.420370 1.021930
Zn10  Zn    Zn3+2 0.083190 0.210200 0.579630 1.026589
Zn11  Zn    Zn3+2 0.083190 0.789800 0.579630 1.021974
Zn12  Zn    Zn3+2 0.916810 0.210200 0.420370 1.026576
Zn13  Zn    Zn3+2 0.416810 0.289800 0.420370 1.026588
Zn14  Zn    Zn3+2 0.583190 0.710200 0.579630 1.021930
Zn15  Zn    Zn3+2 0.583190 0.289800 0.579630 1.026577
Zn16  Zn    Zn3+2 0.416810 0.710200 0.420370 1.021974
F1    F     F_    0.154878 0.527937 0.565679 -0.667845
F2    F     F_    0.930827 0.467280 0.601104 -0.659849
F3    F     F_    0.844960 0.527963 0.433968 -0.667810
F4    F     F_    0.069038 0.467245 0.398657 -0.659758
F5    F     F_    0.569185 0.032714 0.398906 -0.659852
F6    F     F_    0.345149 0.972067 0.434363 -0.667863
F7    F     F_    0.430981 0.032759 0.601379 -0.659738
F8    F     F_    0.655052 0.972037 0.566049 -0.667808
F9    F     F_    0.310983 0.664686 0.513568 -0.653048
F10   F     F_    0.716426 0.333218 0.540904 -0.641408
F11   F     F_    0.688920 0.664695 0.486241 -0.653122
F12   F     F_    0.283532 0.333209 0.459016 -0.641393
F13   F     F_    0.783574 0.166782 0.459096 -0.641410
F14   F     F_    0.189013 0.835315 0.486425 -0.653056
F15   F     F_    0.216472 0.166792 0.540992 -0.641384
F16   F     F_    0.811082 0.835305 0.513762 -0.653128

loop_
_geom_bond_atom_site_label_1
_geom_bond_atom_site_label_2
_ccdc_geom_bond_type
C71   C75   T    
C105  C110  S    
C96   O52   A    
C79   C115  S    
C107  C112  S    
C16   C24   A    
O13   Zn1   S    
C34   C42   A    
C59   C82   S    
C81   O21   A    
C72   C76   T    
C93   C103  S    
O43   Zn15  S    
C56   C85   S    
C58   C83   S    
C92   C98   S    
C38   F2    S    
O2    Zn4   S    
O30   Zn4   S    
O41   Zn13  S    
C11   C19   A    
C4    O10   A    
C52   C60   A    
C89   C99   S    
C80   O20   A    
C25   H21   S    
O38   Zn10  S    
C127  H7    S    
O10   Zn16  S    
C128  H8    S    
C10   H14   S    
C54   C87   S    
O3    Zn15  S    
C9    C125  A    
O9    Zn15  S    
C1    O7    A    
C95   O43   A    
C5    C121  A    
O47   Zn1   S    
C49   C57   A    
C124  H4    S    
C103  C111  T    
C73   C74   S    
C90   C100  S    
C38   C122  A    
C81   O31   A    
O29   Zn3   S    
C59   C67   A    
C32   H28   S    
O12   Zn14  S    
C26   C34   A    
C18   C61   S    
O7    Zn9   S    
O2    Zn10  S    
C55   C63   A    
C70   C74   T    
C27   H23   S    
C79   O17   A    
C84   O30   A    
C34   H30   S    
C94   O42   A    
C40   F4    S    
C93   O41   A    
C2    O6    A    
C5    C13   A    
C48   C56   A    
C36   C44   A    
O46   Zn4   S    
O11   Zn13  S    
C58   C66   A    
C97   C105  T    
C121  H1    S    
O4    Zn8   S    
C7    C15   A    
O1    Zn3   S    
C45   C53   A    
C8    C16   A    
C90   O46   A    
C78   O16   A    
C12   C20   A    
C78   C114  S    
C88   O28   A    
C82   O32   A    
C99   C107  T    
C77   C113  S    
C94   C104  S    
C126  H6    S    
O32   Zn2   S    
C19   C27   A    
C48   F12   S    
C33   H29   S    
C96   O44   A    
C51   C59   A    
C45   F9    S    
C13   C66   S    
C123  H3    S    
O23   Zn11  S    
C85   O25   A    
O51   Zn5   S    
C89   O45   A    
C100  C108  T    
O22   Zn10  S    
C39   C123  A    
O21   Zn9   S    
O40   Zn12  S    
C55   C86   S    
C22   H18   S    
C84   O24   A    
C86   O36   A    
C92   O40   A    
C87   O33   A    
C46   C65   A    
O42   Zn14  S    
C24   H20   S    
O50   Zn8   S    
C7    C123  A    
C104  C112  T    
C9    H13   S    
C3    O9    A    
O34   Zn8   S    
C20   C28   A    
C27   C35   A    
C21   C29   A    
C1    C69   S    
C116  C120  T    
O1    Zn9   S    
O14   Zn2   S    
C80   O18   A    
C6    H10   S    
C80   C116  S    
C3    C71   S    
C75   C76   S    
C24   C32   A    
C39   F3    S    
C92   O48   A    
C41   C125  A    
C17   C62   S    
C6    C14   A    
C86   O26   A    
O27   Zn15  S    
C60   C81   S    
C41   F5    S    
O49   Zn7   S    
C91   O47   A    
O26   Zn14  S    
C1    O5    A    
C19   C64   S    
C26   H22   S    
C125  H5    S    
C18   C26   A    
C46   C54   A    
C44   F8    S    
O16   Zn4   S    
C102  C110  T    
C57   C84   S    
C83   O23   A    
O4    Zn16  S    
C16   C67   S    
C43   C127  A    
C91   C97   S    
C40   C124  A    
C69   C73   T    
C88   O34   A    
O45   Zn3   S    
C114  C118  T    
O3    Zn13  S    
C47   F11   S    
C11   C127  A    
O3    Zn5   S    
C8    C124  A    
C50   C58   A    
O2    Zn12  S    
C94   O50   A    
C115  C119  T    
C93   O49   A    
O25   Zn13  S    
C37   C121  A    
C31   H27   S    
O20   Zn8   S    
O44   Zn16  S    
C4    O12   A    
C6    C122  A    
C42   C126  A    
C53   C61   A    
O17   Zn5   S    
C2    O8    A    
C47   C68   A    
C4    C72   S    
C35   C43   A    
O36   Zn6   S    
C23   H19   S    
C47   C55   A    
O2    Zn2   S    
C113  C117  T    
C9    C17   A    
C89   O37   A    
O24   Zn12  S    
O1    Zn1   S    
C44   C128  A    
C77   O13   A    
C49   C62   A    
C22   C30   A    
O19   Zn7   S    
C83   O29   A    
C85   O35   A    
C51   C64   A    
O8    Zn10  S    
C50   F14   S    
C52   C63   A    
O31   Zn1   S    
C87   O27   A    
C119  C120  S    
O48   Zn2   S    
C28   H24   S    
C12   C128  A    
O4    Zn6   S    
C95   O51   A    
C54   C62   A    
O18   Zn6   S    
C82   O22   A    
O37   Zn9   S    
C98   C106  T    
C108  C111  S    
C8    H12   S    
C60   C68   A    
C33   C41   A    
C14   C22   A    
C20   C63   S    
C52   F16   S    
C29   H25   S    
C17   C25   A    
C5    H9    S    
C43   F7    S    
C117  C118  S    
C13   C21   A    
C7    H11   S    
C49   F13   S    
C42   F6    S    
C91   O39   A    
C3    O11   A    
C56   C64   A    
O52   Zn6   S    
C10   C126  A    
C10   C18   A    
O5    Zn11  S    
O6    Zn12  S    
C15   C68   S    
O1    Zn11  S    
C15   C23   A    
C46   F10   S    
C14   C65   S    
C31   C39   A    
O33   Zn7   S    
C53   C88   S    
C79   O19   A    
C90   O38   A    
C32   C40   A    
C48   C67   A    
O28   Zn16  S    
C96   C102  S    
C35   H31   S    
O35   Zn5   S    
C11   H15   S    
C36   H32   S    
C51   F15   S    
C23   C31   A    
C12   H16   S    
C30   H26   S    
O39   Zn11  S    
C28   C36   A    
C77   O15   A    
C25   C33   A    
C37   F1    S    
C29   C37   A    
C45   C66   A    
C78   O14   A    
C50   C61   A    
O4    Zn14  S    
C30   C38   A    
C2    C70   S    
C101  C109  T    
C122  H2    S    
C21   H17   S    
C95   C101  S    
O15   Zn3   S    
C57   C65   A    
C106  C109  S    
O3    Zn7   S    
