data_mof_unit_47245.cif
_audit_creation_date              2012-12-10T17:14:45-0500
_audit_creation_method            fapswitch 2.2
_symmetry_space_group_name_H-M    P1
_symmetry_Int_Tables_number       1
_space_group_crystal_system       triclinic
_cell_length_a                    10.644869
_cell_length_b                    13.000808
_cell_length_c                    11.689771
_cell_angle_alpha                 99.399651
_cell_angle_beta                  93.07929
_cell_angle_gamma                 91.611429
_cell_volume                      1592.62557477

loop_
_atom_site_label
_atom_site_type_symbol
_atom_type_description
_atom_site_fract_x
_atom_site_fract_y
_atom_site_fract_z
_atom_type_partial_charge
C1    C     C_R   0.500229 0.299646 0.479047 0.904948
C2    C     C_R   0.499771 0.700354 0.520953 0.904948
C3    C     C_R   0.437267 0.132672 0.538269 0.159300
C4    C     C_R   0.562733 0.867328 0.461730 0.159300
C5    C     C_R   0.456279 0.026067 0.537265 0.035938
C6    C     C_R   0.543721 0.973933 0.462734 0.035938
C7    C     C_R   0.381995 0.400242 0.022794 -0.423934
C8    C     C_R   0.618005 0.599757 0.977206 -0.423934
C9    C     C_R   0.393506 0.407772 0.145950 0.671929
C10   C     C_R   0.606494 0.592228 0.854050 0.671929
C11   C     C_R   0.551385 0.542803 0.155845 0.021852
C12   C     C_R   0.448615 0.457197 0.844155 0.021852
C13   C     C_R   0.542909 0.535976 0.033531 0.015825
C14   C     C_R   0.457091 0.464024 0.966469 0.015825
C15   C     C_R   0.259439 0.498013 0.500701 0.922441
C16   C     C_R   0.740561 0.501987 0.499299 0.922442
C17   C     C_3   0.042572 0.479513 0.602811 0.400334
C18   C     C_3   0.957428 0.520487 0.397189 0.400334
C19   C     C_3   0.953877 0.407420 0.515112 0.369820
C20   C     C_3   0.046123 0.592580 0.484888 0.369820
C21   C     C_3   0.877002 0.502634 0.498097 -0.189493
C22   C     C_3   0.122998 0.497366 0.501903 -0.189493
C23   C     C_3   0.966211 0.576018 0.587359 -0.417011
C24   C     C_3   0.033789 0.423982 0.412641 -0.417011
C25   C     C_R   0.491190 0.812691 0.531703 -0.163353
C26   C     C_R   0.508809 0.187309 0.468297 -0.163354
C27   C     C_R   0.609616 0.029346 0.390126 -0.197795
C28   C     C_R   0.390384 0.970653 0.609874 -0.197795
C29   C     C_R   0.593489 0.135017 0.392892 0.203148
C30   C     C_R   0.406511 0.864983 0.607108 0.203148
Cu1   Cu    Cu3+1 0.509400 0.507730 0.615930 1.053001
Cu2   Cu    Cu3+1 0.490600 0.492270 0.384070 1.053001
H1    H     H_    0.936254 0.636591 0.657610 0.187139
H2    H     H_    0.063746 0.363409 0.342390 0.187139
H3    H     H_    0.675761 0.992177 0.331193 0.216356
H4    H     H_    0.324239 0.007823 0.668807 0.216356
H5    H     H_    0.382010 0.402229 0.791911 0.201341
H6    H     H_    0.617990 0.597771 0.208089 0.201341
H7    H     H_    0.315095 0.345649 0.970435 0.153254
H8    H     H_    0.684905 0.654351 0.029565 0.153254
N1    N     N_R   0.523540 0.519360 0.790140 -0.218047
N2    N     N_R   0.476460 0.480640 0.209860 -0.218047
O1    O     O_R   0.506670 0.354460 0.582000 -0.571286
O2    O     O_R   0.493330 0.645540 0.418000 -0.571286
O3    O     O_R   0.490800 0.341410 0.386200 -0.529859
O4    O     O_R   0.509200 0.658590 0.613800 -0.529859
O5    O     O_R   0.324790 0.506500 0.597880 -0.539799
O6    O     O_R   0.675210 0.493500 0.402120 -0.539799
O7    O     O_R   0.308910 0.493440 0.402080 -0.569995
O8    O     O_R   0.691090 0.506560 0.597920 -0.569996
O9    O     O_3   0.893147 0.313031 0.530252 -0.571482
C31   C     C_3   0.983908 0.238620 0.544582 0.121912
H9    H     H_    0.044271 0.264352 0.625100 0.206555
H10   H     H_    0.043630 0.224512 0.468665 0.164205
C32   C     C_3   0.917937 0.135923 0.556310 -0.747486
H11   H     H_    0.865727 0.102311 0.473372 0.264778
H12   H     H_    0.988702 0.079818 0.577764 0.213093
H13   H     H_    0.851157 0.148453 0.626670 0.252482
O10   O     O_3   0.106853 0.686969 0.469748 -0.571483
C33   C     C_3   0.016092 0.761380 0.455418 0.121911
H14   H     H_    0.956370 0.775488 0.531335 0.164205
H15   H     H_    0.955729 0.735647 0.374899 0.206554
C34   C     C_3   0.082063 0.864077 0.443690 -0.747485
H16   H     H_    0.148843 0.851548 0.373330 0.252482
H17   H     H_    0.011298 0.920182 0.422236 0.213093
H18   H     H_    0.134273 0.897689 0.526628 0.264777
O11   O     O_3   0.096537 0.456099 0.707928 -0.557827
C35   C     C_3   0.002460 0.454232 0.788197 0.100237
H19   H     H_    0.916653 0.407922 0.748989 0.173019
H20   H     H_    0.975824 0.535089 0.822525 0.164131
C36   C     C_3   0.053741 0.403969 0.888800 -0.825251
H21   H     H_    0.132473 0.453371 0.936818 0.252858
H22   H     H_    0.978379 0.395494 0.948978 0.214570
H23   H     H_    0.088176 0.325404 0.855830 0.260964
O12   O     O_3   0.903463 0.543901 0.292072 -0.557827
C37   C     C_3   0.997540 0.545768 0.211803 0.100237
H24   H     H_    0.024176 0.464911 0.177475 0.164131
H25   H     H_    0.083347 0.592078 0.251011 0.173019
C38   C     C_3   0.946259 0.596031 0.111200 -0.825250
H26   H     H_    0.911823 0.674596 0.144170 0.260963
H27   H     H_    0.021620 0.604506 0.051021 0.214569
H28   H     H_    0.867527 0.546629 0.063182 0.252858
Br1   Br    Br    0.690935 0.796749 0.370108 -0.644732
Br2   Br    Br    0.309065 0.203251 0.629892 -0.644732
Br3   Br    Br    0.304234 0.795606 0.704532 -0.486526
Br4   Br    Br    0.695766 0.204394 0.295468 -0.486526
O13   O     O_3   0.681606 0.652182 0.793918 -0.567525
C39   C     C_3   0.714153 0.752561 0.857217 0.025158
H29   H     H_    0.794984 0.747857 0.920254 0.148891
H30   H     H_    0.632919 0.788277 0.903257 0.169999
C40   C     C_3   0.754992 0.824305 0.774347 -0.722860
H31   H     H_    0.676297 0.832751 0.711041 0.253294
H32   H     H_    0.782850 0.902611 0.824022 0.209160
H33   H     H_    0.836446 0.792454 0.726795 0.232330
O14   O     O_3   0.318394 0.347817 0.206082 -0.567525
C41   C     C_3   0.285847 0.247439 0.142782 0.025159
H34   H     H_    0.367080 0.211723 0.096743 0.169999
H35   H     H_    0.205016 0.252143 0.079746 0.148891
C42   C     C_3   0.245008 0.175695 0.225653 -0.722860
H36   H     H_    0.163554 0.207546 0.273205 0.232330
H37   H     H_    0.217150 0.097389 0.175978 0.209161
H38   H     H_    0.323703 0.167249 0.288959 0.253294

loop_
_geom_bond_atom_site_label_1
_geom_bond_atom_site_label_2
_ccdc_geom_bond_type
O13   C39   S    
C34   H17   S    
C18   O12   S    
C27   C29   A    
C18   C21   S    
Cu2   O3    S    
O14   C41   S    
C37   C38   S    
C15   O5    A    
C32   H11   S    
C16   O6    A    
C4    C25   A    
C2    O4    A    
C9    N2    A    
C16   C21   S    
Cu1   O1    S    
C33   C34   S    
C18   C24   S    
C37   H25   S    
C19   C21   S    
C16   O8    A    
C5    C6    A    
C41   C42   S    
C11   N2    A    
C33   H15   S    
C12   H5    S    
C36   H23   S    
C1    O1    A    
C15   C22   S    
Cu1   Cu2   S    
C2    O2    A    
C35   H19   S    
C23   H1    S    
Cu1   O4    S    
C41   H35   S    
C20   C23   S    
C9    O14   S    
C31   C32   S    
C34   H18   S    
O10   C33   S    
Cu1   O5    S    
C13   C14   A    
C10   N1    A    
Cu2   O6    S    
C31   H10   S    
C7    C14   A    
C10   O13   S    
C17   O11   S    
O11   C35   S    
C37   H24   S    
C4    C6    A    
C40   H31   S    
C36   H22   S    
C27   H3    S    
C24   H2    S    
O9    C31   S    
C33   H14   S    
C20   O10   S    
C11   H6    S    
O12   C37   S    
C12   N1    A    
C40   H32   S    
C5    C28   A    
C6    C27   A    
C39   C40   S    
C41   H34   S    
Cu2   O2    S    
C17   C23   S    
C30   Br3   S    
C29   Br4   S    
C35   H20   S    
C42   H37   S    
C39   H30   S    
C21   C23   S    
C1    C26   S    
C22   C24   S    
Cu1   O8    S    
C31   H9    S    
C38   H27   S    
C25   C30   A    
C7    C9    A    
Cu2   N2    S    
Cu1   N1    S    
C3    C26   A    
C20   C22   S    
C34   H16   S    
C3    C5    A    
C38   H28   S    
C17   C22   S    
C42   H36   S    
C32   H12   S    
C19   C24   S    
C12   C14   A    
C36   H21   S    
C40   H33   S    
C11   C13   A    
C1    O3    A    
C4    Br1   S    
C35   C36   S    
C28   C30   A    
C17   C19   S    
C2    C25   S    
C18   C20   S    
C15   O7    A    
Cu2   O7    S    
C38   H26   S    
C8    C13   A    
C19   O9    S    
C42   H38   S    
C39   H29   S    
C28   H4    S    
C26   C29   A    
C8    C10   A    
C32   H13   S    
C3    Br2   S    
C7    H7    S    
C8    H8    S    
