data_mof_unit_8920.cif
_audit_creation_date              2012-12-11T15:09:46-0500
_audit_creation_method            fapswitch 2.2
_symmetry_space_group_name_H-M    P1
_symmetry_Int_Tables_number       1
_space_group_crystal_system       triclinic
_cell_length_a                    21.02238
_cell_length_b                    7.126847
_cell_length_c                    14.032306
_cell_angle_alpha                 89.99993
_cell_angle_beta                  98.568358
_cell_angle_gamma                 90.0
_cell_volume                      2078.9012889

loop_
_atom_site_label
_atom_site_type_symbol
_atom_type_description
_atom_site_fract_x
_atom_site_fract_y
_atom_site_fract_z
_atom_type_partial_charge
O1    O     O_R   0.447130 0.507140 0.597350 -0.538685
O2    O     O_R   0.552870 0.007140 0.402650 -0.538685
O3    O     O_R   0.578910 0.181280 0.586990 -0.543987
O4    O     O_R   0.421090 0.681280 0.413010 -0.543986
C1    C     C_R   0.604464 0.344511 0.607436 0.729120
C2    C     C_R   0.395536 0.844512 0.392564 0.729120
O5    O     O_R   0.449230 0.177860 0.608640 -0.544431
O6    O     O_R   0.550770 0.677860 0.391360 -0.544431
O7    O     O_R   0.422260 0.000770 0.424450 -0.533991
O8    O     O_R   0.577740 0.500770 0.575550 -0.533992
C3    C     C_R   0.430348 0.346181 0.631177 0.720480
C4    C     C_R   0.569652 0.846181 0.368823 0.720480
O9    O     O_3   0.491310 0.336980 0.439550 -0.375721
O10   O     O_3   0.508690 0.836980 0.560450 -0.375721
V1    V     V_3+5 0.501610 0.064760 0.511210 1.397579
V2    V     V_3+5 0.498390 0.564760 0.488790 1.397579
C5    C     C_R   0.627088 0.952659 0.136724 -0.166427
C6    C     C_R   0.372912 0.452657 0.863276 -0.166427
H1    H     H_    0.535962 0.922919 0.184584 0.115317
H2    H     H_    0.464038 0.422918 0.815416 0.115317
H3    H     H_    0.711592 0.049554 0.023644 0.126013
H4    H     H_    0.288408 0.549553 0.976356 0.126013
H5    H     H_    0.605367 0.001710 0.066210 0.121129
H6    H     H_    0.394633 0.501708 0.933790 0.121129
C7    C     C_R   0.614004 0.859205 0.298106 -0.034847
C8    C     C_R   0.385996 0.359205 0.701894 -0.034847
C9    C     C_R   0.922307 0.743137 0.296582 0.147743
C10   C     C_R   0.077693 0.243137 0.703418 0.147744
C11   C     C_R   0.881270 0.654016 0.351898 -0.133162
C12   C     C_R   0.118730 0.154016 0.648101 -0.133162
C13   C     C_R   0.815210 0.679917 0.331783 -0.229470
C14   C     C_R   0.184790 0.179917 0.668217 -0.229469
C15   C     C_R   0.788373 0.812800 0.262962 0.076638
C16   C     C_R   0.211627 0.312800 0.737038 0.076638
C17   C     C_R   0.828034 0.881567 0.197049 0.047030
C18   C     C_R   0.171966 0.381568 0.802951 0.047030
C19   C     C_R   0.721732 0.862044 0.250763 0.041147
C20   C     C_R   0.278268 0.362044 0.749237 0.041147
C21   C     C_R   0.693751 0.933962 0.159591 0.119389
C22   C     C_R   0.306249 0.433961 0.840409 0.119389
C23   C     C_R   0.732596 0.988808 0.091973 -0.192076
C24   C     C_R   0.267404 0.488808 0.908027 -0.192076
C25   C     C_R   0.798966 0.971517 0.112291 -0.188314
C26   C     C_R   0.201034 0.471517 0.887709 -0.188314
C27   C     C_R   0.681971 0.848354 0.325248 0.068133
C28   C     C_R   0.318029 0.348354 0.674752 0.068133
C29   C     C_R   0.587584 0.908303 0.204177 -0.215012
C30   C     C_R   0.412416 0.408302 0.795823 -0.215011
C31   C     C_R   0.895215 0.846292 0.213968 -0.119241
C32   C     C_R   0.104785 0.346292 0.786032 -0.119241
H7    H     H_    0.785315 0.595352 0.371280 0.129930
H8    H     H_    0.214685 0.095352 0.628720 0.129929
H9    H     H_    0.900488 0.559956 0.409753 0.129142
H10   H     H_    0.099512 0.059957 0.590247 0.129141
H11   H     H_    0.826854 0.022238 0.058767 0.133355
H12   H     H_    0.173146 0.522238 0.941233 0.133355
C33   C     C_1   0.166469 0.857111 0.168647 -0.190744
C34   C     C_1   0.833531 0.357111 0.831353 -0.190744
C35   C     C_1   0.218845 0.854826 0.219851 0.002363
C36   C     C_1   0.781155 0.354826 0.780149 0.002363
C37   C     C_1   0.280620 0.853436 0.279796 -0.002878
C38   C     C_1   0.719379 0.353436 0.720204 -0.002878
C39   C     C_1   0.333058 0.851161 0.330826 -0.203352
C40   C     C_1   0.666942 0.351161 0.669174 -0.203351
O11   O     O_R   0.922300 0.202240 0.924350 -0.536605
O12   O     O_R   0.077700 0.702240 0.075650 -0.536605
O13   O     O_R   0.050780 0.535130 0.891350 -0.543673
O14   O     O_R   0.949220 0.035130 0.108650 -0.543673
C41   C     C_R   0.066790 0.366927 0.864985 0.682075
C42   C     C_R   0.933210 0.866927 0.135015 0.682076
O15   O     O_R   0.921100 0.531560 0.912990 -0.534460
O16   O     O_R   0.078900 0.031560 0.087010 -0.534460
O17   O     O_R   0.947120 0.708470 0.097370 -0.537692
O18   O     O_R   0.052880 0.208470 0.902630 -0.537692
C43   C     C_R   0.895919 0.363564 0.893336 0.707810
C44   C     C_R   0.104081 0.863564 0.106664 0.707810
O19   O     O_3   0.008710 0.375800 0.060400 -0.373991
O20   O     O_3   0.991290 0.875800 0.939600 -0.373991
V3    V     V_3+5 0.998380 0.648080 0.988790 1.420354
V4    V     V_3+5 0.001620 0.148080 0.011210 1.420353
C45   C     C_3   0.711336 0.842052 0.432367 -0.422498
C46   C     C_3   0.689063 0.998138 0.494204 -0.693461
H13   H     H_    0.675025 0.126121 0.450918 0.225146
H14   H     H_    0.648898 0.945627 0.529551 0.238637
H15   H     H_    0.728236 0.036864 0.553194 0.201245
H16   H     H_    0.701491 0.703225 0.463220 0.175511
H17   H     H_    0.763853 0.863654 0.442280 0.205519
C47   C     C_3   0.288664 0.342053 0.567633 -0.422498
C48   C     C_3   0.310937 0.498138 0.505796 -0.693460
H18   H     H_    0.324975 0.626122 0.549082 0.225147
H19   H     H_    0.351102 0.445626 0.470449 0.238637
H20   H     H_    0.271764 0.536865 0.446806 0.201245
H21   H     H_    0.298508 0.203225 0.536780 0.175511
H22   H     H_    0.236147 0.363656 0.557720 0.205519
C49   C     C_3   0.994230 0.713077 0.323651 -0.341205
C50   C     C_3   0.019576 0.810718 0.418646 -0.778872
H23   H     H_    0.010201 0.963931 0.412314 0.226477
H24   H     H_    0.996288 0.753500 0.478444 0.225487
H25   H     H_    0.072287 0.788160 0.436302 0.218945
H26   H     H_    0.004489 0.560241 0.330456 0.178402
H27   H     H_    0.021819 0.768442 0.268294 0.164677
C51   C     C_3   0.005769 0.213078 0.676350 -0.341206
C52   C     C_3   0.980423 0.310721 0.581355 -0.778876
H28   H     H_    0.989798 0.463933 0.587688 0.226477
H29   H     H_    0.003712 0.253507 0.521556 0.225488
H30   H     H_    0.927713 0.288160 0.563698 0.218946
H31   H     H_    0.995511 0.060241 0.669543 0.178402
H32   H     H_    0.978181 0.268440 0.731707 0.164678

loop_
_geom_bond_atom_site_label_1
_geom_bond_atom_site_label_2
_ccdc_geom_bond_type
O14   V4    S    
C12   C14   A    
C9    C11   A    
C9    C49   S    
C49   C50   S    
O1    C3    A    
O16   C44   A    
O2    C4    A    
C2    O7    A    
O15   V3    S    
C45   C46   S    
O3    V1    S    
C21   C23   A    
O5    C3    A    
O12   V3    S    
C12   H10   S    
C5    H5    S    
C6    H6    S    
C33   C44   S    
C20   C22   A    
C32   C41   S    
O20   V4    S    
C33   C35   T    
C34   C36   T    
C50   H25   S    
C36   C38   S    
C5    C21   A    
C37   C39   T    
C6    C22   A    
C14   H8    S    
C38   C40   T    
C10   C32   A    
C50   H24   S    
C17   C31   A    
C13   C15   A    
C51   H32   S    
C48   H19   S    
C17   C25   A    
C7    C29   A    
C45   H16   S    
C8    C30   A    
O5    V1    S    
O6    V2    S    
O11   V4    S    
O18   V4    S    
C11   C13   A    
C23   C25   A    
C24   C26   A    
C34   C43   S    
C28   C47   S    
O19   V3    S    
C47   H22   S    
C35   C37   S    
C51   H31   S    
O13   V3    S    
O4    C2    A    
C49   H26   S    
C16   C20   A    
C3    C8    S    
C15   C19   A    
C1    C40   S    
O13   C41   A    
C14   C16   A    
C2    C39   S    
O4    V2    S    
C26   H12   S    
O6    C4    A    
O12   C44   A    
C50   H23   S    
C42   O17   A    
O17   V3    S    
C41   O18   A    
C52   H29   S    
O1    V2    S    
H2    C30   S    
C48   H20   S    
O2    V1    S    
C45   H17   S    
H3    C23   S    
C25   H11   S    
C46   H14   S    
C31   C42   S    
C18   C26   A    
C19   C27   A    
C7    C27   A    
C18   C32   A    
O19   V4    S    
C47   H21   S    
O20   V3    S    
C27   C45   S    
C5    C29   A    
C13   H7    S    
O3    C1    A    
C6    C30   A    
O9    V2    S    
C46   H15   S    
C49   H27   S    
O11   C43   A    
C4    C7    S    
C10   C12   A    
O7    V1    S    
C1    O8    A    
C19   C21   A    
O8    V2    S    
O15   C43   A    
H4    C24   S    
C11   H9    S    
C22   C24   A    
C15   C17   A    
C52   H30   S    
C16   C18   A    
C51   C52   S    
C20   C28   A    
C8    C28   A    
C10   C51   S    
C47   C48   S    
O16   V4    S    
C46   H13   S    
H1    C29   S    
C52   H28   S    
O14   C42   A    
O10   V1    S    
C48   H18   S    
C9    C31   A    
