data_mof_unit_45905.cif
_audit_creation_date              2012-12-10T18:18:16-0500
_audit_creation_method            fapswitch 2.2
_symmetry_space_group_name_H-M    P1
_symmetry_Int_Tables_number       1
_space_group_crystal_system       triclinic
_cell_length_a                    14.133377
_cell_length_b                    15.017979
_cell_length_c                    15.533104
_cell_angle_alpha                 88.684103
_cell_angle_beta                  67.047139
_cell_angle_gamma                 90.887771
_cell_volume                      3034.06927217

loop_
_atom_site_label
_atom_site_type_symbol
_atom_type_description
_atom_site_fract_x
_atom_site_fract_y
_atom_site_fract_z
_atom_type_partial_charge
C1    C     C_R   0.500528 0.673303 0.499981 0.890924
C2    C     C_R   0.500997 0.769187 0.500378 -0.078126
C3    C     C_R   0.408119 0.183508 0.513805 -0.252279
C4    C     C_R   0.591762 0.816470 0.486542 -0.252159
C5    C     C_R   0.406571 0.090747 0.514349 0.109114
C6    C     C_R   0.593273 0.909223 0.486131 0.108863
C7    C     C_R   0.499159 0.046343 0.500247 0.014941
C8    C     C_R   0.500676 0.953624 0.500262 0.014978
C9    C     C_R   0.590475 0.094824 0.486098 0.079496
C10   C     C_R   0.409368 0.905141 0.514384 0.079705
C11   C     C_R   0.315309 0.041355 0.528658 0.192504
C12   C     C_R   0.499452 0.326692 0.500067 0.891988
C13   C     C_R   0.684520 0.958609 0.471883 0.192771
C14   C     C_R   0.318072 0.948599 0.528416 -0.214291
C15   C     C_R   0.681757 0.051364 0.472123 -0.213547
C16   C     C_R   0.435556 0.500074 0.676256 0.870303
C17   C     C_R   0.564490 0.502046 0.323716 0.873602
C18   C     C_R   0.172478 0.446617 0.564057 0.308534
C19   C     C_R   0.827460 0.553547 0.436063 0.310210
C20   C     C_R   0.230214 0.552899 0.437035 -0.100110
C21   C     C_R   0.769751 0.447295 0.563106 -0.104345
C22   C     C_R   0.130234 0.556067 0.436205 -0.086212
C23   C     C_R   0.390165 0.577057 0.095485 -0.207182
C24   C     C_R   0.869676 0.444316 0.564058 -0.091517
C25   C     C_R   0.050371 0.500770 0.500443 0.002407
C26   C     C_R   0.949538 0.499590 0.499801 0.002779
C27   C     C_R   0.071112 0.446584 0.565522 -0.042192
C28   C     C_R   0.928783 0.553764 0.434728 -0.040369
C29   C     C_R   0.107785 0.611307 0.371892 0.430727
C30   C     C_R   0.892029 0.389284 0.628549 0.431426
C31   C     C_R   0.009571 0.607775 0.370432 -0.214763
C32   C     C_R   0.990249 0.392770 0.629988 -0.217006
C33   C     C_R   0.396730 0.510287 0.777425 -0.063284
C34   C     C_R   0.628452 0.528081 0.890635 -0.203580
C35   C     C_R   0.604645 0.511943 0.221707 -0.061534
C36   C     C_R   0.270052 0.559736 0.923192 -0.194935
C37   C     C_R   0.741654 0.512217 0.068090 -0.191431
C38   C     C_R   0.296942 0.537633 0.829875 -0.194825
C39   C     C_R   0.709188 0.505815 0.165256 -0.198965
C40   C     C_R   0.467680 0.503164 0.819191 -0.244491
C41   C     C_R   0.534221 0.528850 0.180834 -0.253689
C42   C     C_R   0.445893 0.533161 0.908902 0.096086
C43   C     C_R   0.564847 0.537312 0.084188 0.094135
C44   C     C_R   0.344078 0.558241 0.962885 0.156710
C45   C     C_R   0.317952 0.581863 0.055320 -0.207446
C46   C     C_R   0.669796 0.525326 0.027212 0.168788
C47   C     C_R   0.522455 0.536587 0.946599 0.063229
C48   C     C_R   0.492101 0.550633 0.043217 0.052947
C49   C     C_3   0.192766 0.385717 0.633336 -0.886603
C50   C     C_3   0.807149 0.614500 0.366827 -0.888627
C51   C     C_3   0.214882 0.085477 0.544236 -0.918853
C52   C     C_3   0.784937 0.914484 0.456338 -0.919650
C53   C     C_R   0.700966 0.524266 0.930475 -0.214337
C54   C     C_R   0.589618 0.186747 0.486042 -0.234686
C55   C     C_R   0.410262 0.813221 0.514311 -0.235837
C56   C     C_R   0.498916 0.230793 0.499858 -0.079515
H1    H     H_    0.240919 0.602758 0.097312 0.175759
H2    H     H_    0.240950 0.543600 0.798493 0.158590
H3    H     H_    0.192371 0.580086 0.963578 0.137483
H4    H     H_    0.822333 0.504570 0.024900 0.137077
H5    H     H_    0.364919 0.597529 0.166928 0.175016
H6    H     H_    0.658013 0.526773 0.815293 0.158395
H7    H     H_    0.660055 0.223974 0.474843 0.161643
H8    H     H_    0.339839 0.775989 0.525467 0.161039
H9    H     H_    0.338981 0.219657 0.524707 0.178523
H10   H     H_    0.660913 0.780326 0.475591 0.178352
H11   H     H_    0.248710 0.909888 0.539203 0.149243
H12   H     H_    0.781235 0.517073 0.885556 0.156283
H13   H     H_    0.751118 0.090074 0.461343 0.149657
H14   H     H_    0.271906 0.385314 0.626640 0.293857
H15   H     H_    0.145929 0.405656 0.705729 0.212878
H16   H     H_    0.173114 0.315743 0.623799 0.209038
H17   H     H_    0.728093 0.614653 0.373261 0.294048
H18   H     H_    0.826419 0.684498 0.376663 0.208906
H19   H     H_    0.854310 0.594857 0.294407 0.210883
H20   H     H_    0.224041 0.694236 0.337994 0.321921
H21   H     H_    0.776077 0.306115 0.662436 0.323335
H22   H     H_    0.223630 0.129066 0.482739 0.245588
H23   H     H_    0.293914 0.591368 0.387074 0.143591
H24   H     H_    0.152042 0.035932 0.554104 0.245575
H25   H     H_    0.191316 0.125805 0.607922 0.240140
H26   H     H_    0.776142 0.870848 0.517816 0.245164
H27   H     H_    0.808563 0.874204 0.392617 0.239975
H28   H     H_    0.847757 0.964025 0.446555 0.245763
H29   H     H_    0.706065 0.408830 0.613088 0.148620
H30   H     H_    0.997672 0.650282 0.318647 0.181158
H31   H     H_    0.002095 0.350381 0.681881 0.184023
H32   H     H_    0.453947 0.530637 0.225575 0.159794
H33   H     H_    0.540815 0.474307 0.779909 0.157285
H34   H     H_    0.764961 0.493971 0.195905 0.158837
N1    N     N_R   0.249980 0.499930 0.499960 -0.099746
N2    N     N_R   0.750020 0.500070 0.500040 -0.099883
O1    O     O_R   0.419720 0.632140 0.499980 -0.623522
O2    O     O_3   0.820831 0.331168 0.691910 -0.773420
O3    O     O_R   0.580280 0.367860 0.500020 -0.622010
O4    O     O_R   0.580270 0.632160 0.499970 -0.629848
O5    O     O_R   0.419730 0.367840 0.500030 -0.629009
O6    O     O_R   0.373870 0.499980 0.632250 -0.626145
O7    O     O_R   0.626130 0.500020 0.367750 -0.625369
O8    O     O_R   0.534420 0.500000 0.632240 -0.615584
O9    O     O_R   0.465580 0.500000 0.367760 -0.616258
O10   O     O_3   0.178809 0.669712 0.308756 -0.793416
Zn1   Zn    Zn3+2 0.392800 0.499980 0.500010 0.937715
Zn2   Zn    Zn3+2 0.607200 0.500020 0.499990 0.938270

loop_
_geom_bond_atom_site_label_1
_geom_bond_atom_site_label_2
_ccdc_geom_bond_type
C30   C32   A    
C23   C45   A    
C22   C29   A    
C2    C4    A    
C34   H6    S    
C36   H3    S    
O1    Zn1   S    
C7    C8    A    
C44   C45   A    
C45   H1    S    
C18   N1    A    
C24   C26   A    
C5    C11   A    
C2    C55   A    
C50   H18   S    
C11   C14   A    
C54   H7    S    
O6    Zn1   S    
H21   O2    S    
O8    Zn2   S    
C1    C2    S    
C52   H28   S    
C53   H12   S    
C17   O9    A    
C51   H24   S    
C19   N2    A    
C38   H2    S    
C22   C25   A    
C14   H11   S    
C12   O3    A    
C40   H33   S    
C43   C48   A    
C51   H25   S    
C39   H34   S    
C30   O2    S    
C40   C42   A    
O7    Zn2   S    
O9    Zn1   S    
C31   H30   S    
C41   C43   A    
C3    H9    S    
C42   C44   A    
C54   C56   A    
H20   O10   S    
C15   H13   S    
C20   N1    A    
C21   H29   S    
C33   C40   A    
C4    C6    A    
C10   C14   A    
C50   H17   S    
C5    C7    A    
C16   O8    A    
C6    C8    A    
C25   C26   A    
C32   H31   S    
C49   H16   S    
C1    O1    A    
C52   H27   S    
C35   C39   A    
C19   C28   A    
C16   C33   S    
C13   C52   S    
C3    C56   A    
C47   C48   A    
C55   H8    S    
C12   C56   S    
C52   H26   S    
C10   C55   A    
C17   O7    A    
C12   O5    A    
O5    Zn1   S    
C8    C10   A    
C20   C22   A    
C49   H14   S    
C13   C15   A    
C36   C44   A    
O3    Zn2   S    
C7    C9    A    
C41   H32   S    
C23   C48   A    
C20   H23   S    
C27   C32   A    
C28   C31   A    
C18   C27   A    
N1    Zn1   S    
C3    C5    A    
C9    C54   A    
C25   C27   A    
C26   C28   A    
C33   C38   A    
O4    Zn2   S    
C9    C15   A    
C51   H22   S    
C29   C31   A    
C50   H19   S    
C6    C13   A    
C4    H10   S    
C19   C50   S    
C16   O6    A    
C1    O4    A    
C46   C53   A    
C36   C38   A    
C29   O10   S    
C42   C47   A    
C35   C41   A    
C43   C46   A    
C24   C30   A    
C37   H4    S    
C11   C51   S    
N2    Zn2   S    
C23   H5    S    
C34   C53   A    
C37   C39   A    
C49   H15   S    
C21   C24   A    
C34   C47   A    
C17   C35   S    
C37   C46   A    
C18   C49   S    
C21   N2    A    
