data_mof_unit_56055.cif
_audit_creation_date              2012-10-26T20:32:56-0400
_audit_creation_method            fapswitch 2.2
_symmetry_space_group_name_H-M    P1
_symmetry_Int_Tables_number       1
_space_group_crystal_system       triclinic
_cell_length_a                    27.721161
_cell_length_b                    10.846463
_cell_length_c                    9.545596
_cell_angle_alpha                 90.098338
_cell_angle_beta                  90.013789
_cell_angle_gamma                 89.695825
_cell_volume                      2870.09209528

loop_
_atom_site_label
_atom_site_type_symbol
_atom_type_description
_atom_site_fract_x
_atom_site_fract_y
_atom_site_fract_z
_atom_type_partial_charge
C1    C     C_R   0.500156 0.262591 0.499671 0.561778
C2    C     C_R   0.974209 0.391224 0.391353 0.022856
C3    C     C_R   0.975751 0.487081 0.626035 0.019745
C4    C     C_R   0.407687 0.500120 0.500055 0.632153
C5    C     C_R   0.949678 0.443573 0.508068 0.039445
C6    C     C_R   0.946097 0.342842 0.280259 -0.138125
C7    C     C_R   0.896057 0.349994 0.281613 -0.110657
C8    C     C_R   0.871835 0.406019 0.393119 0.023056
C9    C     C_R   0.898461 0.452979 0.506642 -0.028398
C10   C     C_R   0.873749 0.509643 0.618611 0.026026
C11   C     C_R   0.823252 0.520077 0.613888 0.406879
C12   C     C_R   0.284482 0.360503 0.506936 -0.055626
C13   C     C_R   0.821292 0.415479 0.394118 0.436708
C14   C     C_R   0.722572 0.552614 0.397875 0.330300
C15   C     C_R   0.671753 0.560170 0.400731 -0.149789
C16   C     C_R   0.497913 0.737644 0.499451 0.578564
C17   C     C_R   0.669469 0.426265 0.603417 -0.138674
C18   C     C_R   0.719596 0.419690 0.603253 -0.119438
C19   C     C_R   0.746319 0.482495 0.501456 0.252313
C20   C     C_R   0.025635 0.389709 0.389208 -0.003281
C21   C     C_R   0.051636 0.430623 0.508341 0.032244
C22   C     C_R   0.026774 0.474365 0.629118 0.020580
C23   C     C_R   0.254504 0.463712 0.495174 0.152109
C24   C     C_R   0.052043 0.348021 0.271608 -0.144589
C25   C     C_R   0.103973 0.501218 0.747736 -0.063339
C26   C     C_R   0.949767 0.544776 0.736007 -0.139188
C27   C     C_R   0.899853 0.555722 0.732060 -0.108729
C28   C     C_R   0.592457 0.499799 0.500240 0.547763
C29   C     C_R   0.054012 0.504100 0.749586 -0.120165
C30   C     C_R   0.514821 0.062677 0.614906 0.005432
C31   C     C_R   0.501760 0.129647 0.496692 -0.009895
C32   C     C_R   0.490012 0.066817 0.373036 -0.163337
C33   C     C_R   0.485369 0.938727 0.372447 0.011578
C34   C     C_R   0.103011 0.429380 0.506595 -0.043492
C35   C     C_R   0.496971 0.871563 0.496271 -0.022680
C36   C     C_R   0.513159 0.935694 0.614182 -0.019010
C37   C     C_3   0.493986 0.932650 0.760564 -0.255773
C38   C     C_3   0.495844 0.072118 0.760677 -0.237418
C39   C     C_R   0.541740 0.517947 0.073560 0.130534
C40   C     C_R   0.179411 0.407111 0.383550 0.459826
C41   C     C_R   0.459737 0.469993 0.074187 0.008142
C42   C     C_R   0.459721 0.470154 0.925615 -0.011399
C43   C     C_R   0.541864 0.516781 0.926300 0.214225
C44   C     C_3   0.574368 0.625432 0.918893 0.137269
C45   C     C_R   0.128653 0.391533 0.385389 0.008728
C46   C     C_3   0.573565 0.628282 0.078347 -0.240232
C47   C     C_R   0.179238 0.472709 0.621998 0.426291
C48   C     C_R   0.274417 0.583132 0.485779 0.065731
C49   C     C_R   0.325311 0.597038 0.488266 -0.041983
C50   C     C_R   0.334544 0.372958 0.507650 0.217572
C51   C     C_3   0.366247 0.204164 0.399751 -0.088011
C52   C     C_2   0.241530 0.691855 0.479304 0.649794
C53   C     C_2   0.463489 0.882787 0.245625 0.584803
C54   C     C_3   0.646608 0.696599 0.833174 -0.122438
C55   C     C_2   0.125644 0.285570 0.146615 0.633597
C56   C     C_R   0.102448 0.345376 0.269387 0.054914
C57   C     C_3   0.731444 0.614995 0.166923 -0.075308
C58   C     C_2   0.347517 0.721029 0.476609 0.634113
C59   C     C_R   0.128831 0.467600 0.626334 0.033329
C60   C     C_R   0.355012 0.491002 0.500426 -0.016473
C61   C     C_R   0.645289 0.495488 0.501359 -0.025443
Cu1   Cu    Cu3+1 0.500000 0.499980 0.640670 1.002406
Cu2   Cu    Cu3+1 0.500000 0.500020 0.359330 0.990623
H1    H     H_    0.123104 0.527500 0.842091 0.200546
H2    H     H_    0.520070 0.891218 0.835144 0.143503
H3    H     H_    0.459588 0.116332 0.765922 0.170067
H4    H     H_    0.523028 0.109965 0.834563 0.156819
H5    H     H_    0.426916 0.446776 0.128835 0.135057
H6    H     H_    0.426873 0.447156 0.870863 0.151517
H7    H     H_    0.556716 0.705194 0.866295 0.112135
H8    H     H_    0.609093 0.606801 0.125962 0.136313
H9    H     H_    0.555023 0.711028 0.121892 0.132168
H10   H     H_    0.652785 0.619015 0.327954 0.101662
H11   H     H_    0.876386 0.311791 0.193704 0.167406
H12   H     H_    0.966989 0.586012 0.825546 0.115074
H13   H     H_    0.961310 0.296879 0.190537 0.115889
H14   H     H_    0.034441 0.315281 0.178368 0.130482
H15   H     H_    0.383162 0.260562 0.315909 0.120173
H16   H     H_    0.330161 0.171121 0.365696 0.156007
H17   H     H_    0.389236 0.121485 0.416120 0.155024
H18   H     H_    0.181308 0.768271 0.397443 0.349116
H19   H     H_    0.459208 0.880139 0.035398 0.335883
H20   H     H_    0.650318 0.758072 0.926023 0.104941
H21   H     H_    0.629866 0.747376 0.744235 0.126985
H22   H     H_    0.683391 0.667942 0.800348 0.175282
H23   H     H_    0.649523 0.376012 0.682240 0.163408
H24   H     H_    0.172270 0.156627 0.075181 0.359741
H25   H     H_    0.702718 0.685705 0.153298 0.101138
H26   H     H_    0.717882 0.521626 0.138733 0.149178
H27   H     H_    0.760719 0.637339 0.092091 0.172839
H28   H     H_    0.394725 0.844059 0.554486 0.333699
H29   H     H_    0.881785 0.601035 0.818795 0.167659
H30   H     H_    0.737855 0.364934 0.682039 0.145534
H31   H     H_    0.037824 0.528853 0.848317 0.121793
H32   H     H_    0.480020 0.118205 0.279985 0.163660
H33   H     H_    0.456717 0.895539 0.766515 0.166988
H34   H     H_    0.268649 0.269929 0.517828 0.163285
N1    N     N_R   0.203192 0.446386 0.500731 -0.385068
N2    N     N_R   0.798081 0.473161 0.502730 -0.370721
N3    N     N_R   0.500300 0.500930 0.147930 -0.239348
N4    N     N_R   0.500310 0.500890 0.852020 -0.269589
O1    O     O_R   0.500000 0.319640 0.618810 -0.498817
O2    O     O_R   0.569730 0.499960 0.618810 -0.470246
O3    O     O_R   0.569740 0.500000 0.381220 -0.513585
O4    O     O_2   0.204820 0.388935 0.264838 -0.420587
O5    O     O_3   0.363673 0.270332 0.526817 -0.566086
O6    O     O_2   0.249263 0.782384 0.552327 -0.457529
O7    O     O_R   0.201193 0.689735 0.391395 -0.663841
O8    O     O_2   0.431706 0.805690 0.256680 -0.458570
O9    O     O_R   0.477472 0.923430 0.113003 -0.732437
O10   O     O_3   0.619922 0.590207 0.865475 -0.562678
O11   O     O_2   0.113548 0.314954 0.028012 -0.521369
O12   O     O_2   0.795511 0.366603 0.287892 -0.493510
O13   O     O_R   0.159527 0.191268 0.166771 -0.638946
O14   O     O_3   0.750453 0.619750 0.304159 -0.539695
O15   O     O_2   0.334018 0.792448 0.385477 -0.444766
O16   O     O_R   0.383497 0.756456 0.570778 -0.681104
O17   O     O_2   0.204229 0.506388 0.737165 -0.452112
O18   O     O_2   0.799497 0.577283 0.719159 -0.516386
O19   O     O_R   0.500010 0.319680 0.381230 -0.514599
O20   O     O_R   0.430260 0.500000 0.618780 -0.471947
O21   O     O_R   0.430270 0.500040 0.381190 -0.501734
O22   O     O_R   0.499990 0.680320 0.618770 -0.500964
O23   O     O_R   0.500000 0.680360 0.381190 -0.473271

loop_
_geom_bond_atom_site_label_1
_geom_bond_atom_site_label_2
_ccdc_geom_bond_type
C10   C27   A    
C53   O9    S    
C55   C56   S    
C8    C13   A    
C22   C29   A    
C12   H34   S    
C55   O11   D    
C41   C42   A    
C35   C36   A    
C11   O18   S    
C54   H21   S    
Cu2   O23   S    
C7    C8    A    
C57   O14   S    
C12   C23   A    
C26   C27   A    
C37   C38   S    
C47   N1    A    
C57   H26   S    
H19   O9    S    
C36   C37   S    
C16   O22   A    
C16   C35   S    
C40   N1    A    
C30   C31   A    
C14   O14   S    
C1    C31   S    
C30   C38   S    
C25   C29   A    
C11   N2    A    
C18   C19   A    
C51   H17   S    
Cu1   O22   S    
H24   O13   S    
C17   C61   A    
C47   O17   S    
C38   H3    S    
C52   O6    D    
C8    C9    A    
C37   H2    S    
C4    O20   A    
H28   O16   S    
C44   H7    S    
C7    H11   S    
C9    C10   A    
C46   H9    S    
Cu1   N4    S    
C28   C61   S    
H18   O7    S    
C21   C22   A    
C58   O15   D    
C23   N1    S    
C2    C6    A    
C54   H20   S    
C44   C46   S    
C17   C18   A    
C41   H5    S    
C33   C53   S    
C40   C45   A    
C57   H27   S    
C2    C20   A    
C17   H23   S    
C20   C24   A    
C45   C56   A    
C19   N2    S    
C39   C43   A    
C21   C34   A    
Cu2   N3    S    
C42   H6    S    
C49   C58   S    
C37   H33   S    
C1    O19   A    
C13   N2    A    
C43   C44   S    
C43   N4    A    
C5    C9    A    
Cu1   Cu2   S    
C28   O3    A    
C31   C32   A    
C4    C60   S    
C26   H12   S    
C15   C61   A    
C41   N3    A    
C4    O21   A    
C27   H29   S    
C34   C45   A    
C38   H4    S    
C49   C60   A    
C46   H8    S    
C39   C46   S    
C48   C49   A    
C15   H10   S    
C34   C59   A    
C2    C5    A    
C42   N4    A    
Cu2   O21   S    
Cu1   O2    S    
C53   O8    D    
C23   C48   A    
C14   C19   A    
C3    C26   A    
Cu2   O3    S    
C3    C5    A    
C54   H22   S    
C12   C50   A    
C6    H13   S    
C6    C7    A    
C55   O13   S    
C24   C56   A    
C57   H25   S    
C30   C36   A    
C50   C60   A    
C32   C33   A    
C16   O23   A    
C51   H15   S    
Cu2   O19   S    
C28   O2    A    
C39   N3    A    
C29   H31   S    
C51   O5    S    
C33   C35   A    
C54   O10   S    
C58   O16   S    
C51   H16   S    
C10   C11   A    
C47   C59   A    
C44   O10   S    
C24   H14   S    
C48   C52   S    
C32   H32   S    
C20   C21   A    
C52   O7    S    
C50   O5    S    
C18   H30   S    
C14   C15   A    
C3    C22   A    
C25   C59   A    
C1    O1    A    
C25   H1    S    
Cu1   O20   S    
C13   O12   S    
C40   O4    S    
Cu1   O1    S    
