data_mof_unit_25201.cif
_audit_creation_date              2012-12-10T17:10:25-0500
_audit_creation_method            fapswitch 2.2
_symmetry_space_group_name_H-M    P1
_symmetry_Int_Tables_number       1
_space_group_crystal_system       triclinic
_cell_length_a                    10.806269
_cell_length_b                    12.991607
_cell_length_c                    11.646536
_cell_angle_alpha                 100.365765
_cell_angle_beta                  93.224023
_cell_angle_gamma                 90.757084
_cell_volume                      1605.38197486

loop_
_atom_site_label
_atom_site_type_symbol
_atom_type_description
_atom_site_fract_x
_atom_site_fract_y
_atom_site_fract_z
_atom_type_partial_charge
C1    C     C_R   0.502685 0.298972 0.477911 0.785460
C2    C     C_R   0.499119 0.701122 0.522126 0.837548
C3    C     C_R   0.494599 0.814983 0.535965 -0.092331
C4    C     C_R   0.507884 0.185226 0.464303 -0.095454
C5    C     C_R   0.548506 0.013894 0.352765 -0.250902
C6    C     C_R   0.458342 0.986817 0.648849 -0.269718
C7    C     C_R   0.541211 0.122062 0.359031 0.250916
C8    C     C_R   0.460525 0.878360 0.641058 0.251682
C9    C     C_R   0.481061 0.139453 0.560266 -0.310403
C10   C     C_R   0.524385 0.861000 0.440924 -0.307019
C11   C     C_R   0.486542 0.031906 0.553011 0.132462
C12   C     C_R   0.520001 0.968703 0.448494 0.126150
C13   C     C_R   0.365693 0.419433 0.024033 -0.331788
C14   C     C_R   0.635161 0.580544 0.975420 -0.336784
C15   C     C_R   0.379904 0.426028 0.145665 0.098731
C16   C     C_R   0.619386 0.575611 0.853889 0.085304
C17   C     C_R   0.561611 0.531545 0.155435 0.001708
C18   C     C_R   0.439702 0.467218 0.844325 -0.003316
C19   C     C_R   0.550510 0.527963 0.032952 0.077503
C20   C     C_R   0.451198 0.470847 0.966579 0.059671
C21   C     C_R   0.261112 0.494485 0.501262 0.785028
C22   C     C_R   0.736588 0.485580 0.497099 0.797680
C23   C     C_R   0.114887 0.536027 0.720897 -0.258107
C24   C     C_R   0.874661 0.403329 0.274860 -0.198855
C25   C     C_R   0.055741 0.525111 0.822585 0.266018
C26   C     C_R   0.939729 0.351959 0.181029 0.283333
C27   C     C_R   0.946759 0.463579 0.811257 -0.187548
C28   C     C_R   0.058655 0.316709 0.203686 -0.230142
C29   C     C_R   0.888951 0.425915 0.700776 0.138585
C30   C     C_R   0.115952 0.340425 0.316384 0.138757
C31   C     C_R   0.937320 0.457664 0.601377 0.047202
C32   C     C_R   0.061403 0.414936 0.401774 0.051165
C33   C     C_R   0.061948 0.490950 0.608741 0.024657
C34   C     C_R   0.932425 0.428455 0.389122 0.002706
C35   C     C_R   0.868628 0.456604 0.493688 -0.196090
C36   C     C_R   0.127044 0.470313 0.504053 -0.184544
Cu1   Cu    Cu3+1 0.509250 0.507730 0.615930 0.925791
Cu2   Cu    Cu3+1 0.490750 0.492270 0.384070 0.934541
H1    H     H_    0.103439 0.265218 0.135396 0.124754
H2    H     H_    0.907961 0.442531 0.887543 0.167957
H3    H     H_    0.287483 0.375580 0.975701 0.148325
H4    H     H_    0.712785 0.625154 0.023806 0.136404
H5    H     H_    0.200551 0.580626 0.732549 0.169556
H6    H     H_    0.780303 0.420326 0.255001 0.186490
H7    H     H_    0.551235 0.812853 0.360501 0.162671
H8    H     H_    0.454807 0.187578 0.640928 0.166075
H9    H     H_    0.576614 0.965232 0.273288 0.141618
H10   H     H_    0.432021 0.035548 0.729071 0.132695
H11   H     H_    0.364539 0.422301 0.792327 0.131105
H12   H     H_    0.637002 0.576110 0.207427 0.121214
H13   H     H_    0.685268 0.616277 0.810401 0.136396
H14   H     H_    0.311648 0.388609 0.188531 0.124394
N1    N     N_R   0.523180 0.519350 0.790130 -0.183867
N2    N     N_R   0.476820 0.480650 0.209870 -0.180638
O1    O     O_R   0.506570 0.354460 0.582000 -0.607394
O2    O     O_R   0.493430 0.645540 0.418000 -0.586397
O3    O     O_R   0.490940 0.341410 0.386200 -0.560537
O4    O     O_R   0.509060 0.658590 0.613800 -0.543212
O5    O     O_R   0.327470 0.506520 0.597900 -0.593021
O6    O     O_R   0.672530 0.493480 0.402100 -0.598847
O7    O     O_R   0.311840 0.493460 0.402100 -0.579081
O8    O     O_R   0.688160 0.506540 0.597900 -0.594037
N3    N     N_2   0.114321 0.565394 0.935004 -0.428051
H15   H     H_    0.198730 0.603143 0.933790 0.250500
C37   C     C_3   0.036088 0.619233 0.022472 -0.696547
H16   H     H_    0.093717 0.651114 0.103366 0.230878
H17   H     H_    0.965850 0.564709 0.045882 0.238719
H18   H     H_    0.989378 0.685094 0.990085 0.218482
N4    N     N_2   0.884531 0.331315 0.064807 -0.442974
H19   H     H_    0.945674 0.304445 0.001941 0.242271
C38   C     C_3   0.768083 0.272608 0.047233 -0.720468
H20   H     H_    0.736025 0.260346 0.953425 0.231905
H21   H     H_    0.694970 0.315991 0.097402 0.244059
H22   H     H_    0.780191 0.194980 0.073170 0.228701
C39   C     C_3   0.791670 0.338715 0.689334 -0.333147
C40   C     C_3   0.849567 0.237017 0.711570 -0.890689
H23   H     H_    0.918984 0.211202 0.646126 0.258896
H24   H     H_    0.895719 0.247282 0.800373 0.251135
H25   H     H_    0.776182 0.175023 0.703563 0.251066
H26   H     H_    0.718714 0.361894 0.751885 0.219304
H27   H     H_    0.746945 0.320640 0.599926 0.205243
C41   C     C_3   0.213903 0.267289 0.350442 -0.371326
C42   C     C_3   0.159928 0.157277 0.346212 -0.860240
H28   H     H_    0.081550 0.160133 0.404432 0.258217
H29   H     H_    0.126946 0.121536 0.255614 0.248222
H30   H     H_    0.232652 0.106938 0.376389 0.253322
H31   H     H_    0.290016 0.262089 0.290456 0.214271
H32   H     H_    0.252636 0.294089 0.440989 0.197403
N5    N     N_2   0.426217 0.834112 0.738295 -0.408911
H33   H     H_    0.452446 0.879815 0.818141 0.240222
C43   C     C_3   0.297502 0.800423 0.731896 -0.663246
H34   H     H_    0.279963 0.762658 0.807894 0.215848
H35   H     H_    0.274662 0.742750 0.650501 0.226645
H36   H     H_    0.236255 0.868723 0.734047 0.212030
N6    N     N_2   0.574480 0.167671 0.262469 -0.406650
H37   H     H_    0.668260 0.165059 0.250477 0.244785
C44   C     C_3   0.499707 0.133851 0.154807 -0.704875
H38   H     H_    0.515595 0.188474 0.093727 0.228778
H39   H     H_    0.399554 0.133799 0.171562 0.234385
H40   H     H_    0.525480 0.054013 0.112620 0.209621

loop_
_geom_bond_atom_site_label_1
_geom_bond_atom_site_label_2
_ccdc_geom_bond_type
N3    C37   S    
C27   C29   A    
C19   C20   A    
C16   H13   S    
C13   H3    S    
C44   H38   S    
C21   C36   S    
C22   C35   S    
C5    H9    S    
C6    H10   S    
C32   C36   A    
C40   H24   S    
C21   O5    A    
C22   O6    A    
C43   H35   S    
C41   H31   S    
C33   C36   A    
C23   H5    S    
C18   C20   A    
C34   C35   A    
C25   N3    S    
N4    C38   S    
C16   N1    A    
C18   N1    A    
N6    H37   S    
C37   H17   S    
C31   C33   A    
N5    C43   S    
C39   H26   S    
C21   O7    A    
Cu1   O4    S    
C14   H4    S    
Cu2   O7    S    
Cu1   N1    S    
C9    H8    S    
C4    C7    A    
C44   H39   S    
Cu1   O8    S    
C15   N2    A    
C40   H23   S    
C5    C12   A    
C3    C8    A    
C43   H34   S    
C5    C7    A    
C39   H27   S    
C6    C8    A    
C28   H1    S    
C23   C33   A    
C24   C34   A    
C32   C34   A    
C30   C41   S    
C39   C40   S    
Cu1   Cu2   S    
C1    O3    A    
C22   O8    A    
Cu2   O3    S    
C42   H28   S    
Cu2   N2    S    
C27   H2    S    
C37   H18   S    
C10   H7    S    
C2    O4    A    
C15   H14   S    
C4    C9    A    
C9    C11   A    
Cu1   O5    S    
C10   C12   A    
Cu2   O6    S    
C42   H29   S    
C41   C42   S    
C13   C15   A    
C24   H6    S    
C31   C35   A    
C6    C11   A    
C44   H40   S    
C40   H25   S    
C38   H21   S    
C13   C20   A    
C14   C19   A    
C24   C26   A    
C17   H12   S    
C38   H22   S    
C11   C12   A    
N6    C44   S    
C29   C39   S    
C25   C27   A    
C7    N6    S    
C26   C28   A    
C1    C4    S    
C28   C30   A    
C2    C3    S    
C1    O1    A    
C38   H20   S    
C29   C31   A    
C3    C10   A    
C2    O2    A    
C43   H36   S    
C30   C32   A    
C41   H32   S    
C17   C19   A    
C14   C16   A    
C23   C25   A    
N4    H19   S    
N3    H15   S    
Cu1   O1    S    
C42   H30   S    
Cu2   O2    S    
C37   H16   S    
C26   N4    S    
C8    N5    S    
N5    H33   S    
C17   N2    A    
C18   H11   S    
