data_mof_unit_19812.cif
_audit_creation_date              2012-12-10T17:02:32-0500
_audit_creation_method            fapswitch 2.2
_symmetry_space_group_name_H-M    P1
_symmetry_Int_Tables_number       1
_space_group_crystal_system       triclinic
_cell_length_a                    10.771858
_cell_length_b                    11.049577
_cell_length_c                    9.827022
_cell_angle_alpha                 111.016055
_cell_angle_beta                  100.01188
_cell_angle_gamma                 90.967674
_cell_volume                      1071.22180641

loop_
_atom_site_label
_atom_site_type_symbol
_atom_type_description
_atom_site_fract_x
_atom_site_fract_y
_atom_site_fract_z
_atom_type_partial_charge
C1    C     C_R   0.490753 0.253969 0.440391 0.757597
C2    C     C_R   0.509247 0.746031 0.559609 0.757587
C3    C     C_2   0.485648 0.114697 0.405848 0.506240
C4    C     C_2   0.514352 0.885303 0.594152 0.506236
C5    C     C_2   0.502354 0.069475 0.515880 -0.201076
C6    C     C_2   0.497647 0.930525 0.484119 -0.201072
C7    C     C_2   0.511001 0.510575 0.082224 0.023693
C8    C     C_2   0.488997 0.489426 0.917776 0.023700
C9    C     C_R   0.262432 0.514488 0.500982 0.858213
C10   C     C_R   0.737569 0.485520 0.499020 0.858215
C11   C     C_R   0.157520 0.669715 0.763646 0.454781
C12   C     C_R   0.842490 0.330300 0.236360 0.454775
C13   C     C_R   0.121683 0.697513 0.900555 0.474334
C14   C     C_R   0.878327 0.302498 0.099450 0.474317
C15   C     C_R   0.014761 0.630999 0.909768 0.473709
C16   C     C_R   0.985243 0.369022 0.090233 0.473689
C17   C     C_R   0.937700 0.544459 0.780871 0.506023
C18   C     C_R   0.062302 0.455569 0.219131 0.506048
C19   C     C_R   0.962920 0.529438 0.638648 -0.228321
C20   C     C_R   0.037083 0.470590 0.361355 -0.228316
C21   C     C_R   0.083209 0.577074 0.632779 -0.236527
C22   C     C_R   0.916795 0.422951 0.367224 -0.236531
C23   C     C_R   0.874101 0.468505 0.503043 0.084526
C24   C     C_R   0.125903 0.531518 0.496960 0.084520
Cu1   Cu    Cu3+1 0.521920 0.521810 0.644910 1.098838
Cu2   Cu    Cu3+1 0.478080 0.478190 0.355090 1.098827
H1    H     H_    0.480245 0.864006 0.368850 0.216806
H2    H     H_    0.519755 0.135994 0.631149 0.216801
H3    H     H_    0.414887 0.416556 0.842751 0.153680
H4    H     H_    0.585109 0.583448 0.157249 0.153678
H5    H     H_    0.624810 0.622853 0.936581 0.240966
H6    H     H_    0.375194 0.377143 0.063418 0.240964
N1    N     N_2   0.445130 0.445420 0.137360 -0.232719
N2    N     N_2   0.554870 0.554580 0.862640 -0.232713
O1    O     O_R   0.511700 0.332340 0.577400 -0.620432
O2    O     O_R   0.488300 0.667660 0.422600 -0.620431
O3    O     O_R   0.474680 0.295500 0.332650 -0.486911
O4    O     O_R   0.525320 0.704500 0.667350 -0.486903
O5    O     O_R   0.338170 0.518410 0.622370 -0.565150
O6    O     O_R   0.661830 0.481590 0.377630 -0.565167
O7    O     O_R   0.301150 0.481570 0.377630 -0.537627
O8    O     O_R   0.698850 0.518430 0.622370 -0.537610
F1    F     F_    0.015287 0.349000 0.955874 -0.548596
F2    F     F_    0.984717 0.651016 0.044126 -0.548597
F3    F     F_    0.260059 0.739765 0.757994 -0.568104
F4    F     F_    0.739968 0.260226 0.242020 -0.568096
F5    F     F_    0.193626 0.785638 0.025363 -0.512724
F6    F     F_    0.806396 0.214349 0.974643 -0.512719
F7    F     F_    0.848811 0.465096 0.797665 -0.553219
F8    F     F_    0.151192 0.534932 0.202337 -0.553209
F9    F     F_    0.536211 0.967487 0.739054 -0.557998
F10   F     F_    0.463789 0.032513 0.260946 -0.557995

loop_
_geom_bond_atom_site_label_1
_geom_bond_atom_site_label_2
_ccdc_geom_bond_type
Cu1   O8    S    
C19   C23   A    
C3    F10   S    
Cu2   O3    S    
C10   C23   S    
C10   O8    A    
C5    H2    S    
C11   C13   A    
C2    O4    A    
Cu2   N1    S    
C2    C4    S    
C6    H1    S    
C1    O3    A    
Cu1   N2    S    
C3    C5    D    
H6    N1    S    
H5    N2    S    
C7    C8    S    
C9    C24   S    
C7    H4    S    
C8    N2    D    
Cu1   O5    S    
C7    N1    D    
C16   F1    S    
Cu2   O6    S    
Cu1   O1    S    
C8    H3    S    
C4    C6    D    
C19   C21   A    
C12   C14   A    
C15   F2    S    
C18   C20   A    
C13   C15   A    
C5    C6    S    
Cu1   O4    S    
C14   C16   A    
C11   F3    S    
C4    F9    S    
C2    O2    A    
C12   C22   A    
C9    O5    A    
C18   F8    S    
C16   C18   A    
C21   C24   A    
C17   F7    S    
C15   C17   A    
C1    O1    A    
C20   C24   A    
C22   C23   A    
C10   O6    A    
C14   F6    S    
C9    O7    A    
C17   C19   A    
Cu1   Cu2   S    
C13   F5    S    
C11   C21   A    
Cu2   O2    S    
Cu2   O7    S    
C20   C22   A    
C1    C3    S    
C12   F4    S    
