data_mof_unit_12872.cif
_audit_creation_date              2012-12-10T18:12:38-0500
_audit_creation_method            fapswitch 2.2
_symmetry_space_group_name_H-M    P1
_symmetry_Int_Tables_number       1
_space_group_crystal_system       triclinic
_cell_length_a                    12.642823
_cell_length_b                    12.983311
_cell_length_c                    15.67875
_cell_angle_alpha                 91.541203
_cell_angle_beta                  102.744898
_cell_angle_gamma                 81.317843
_cell_volume                      2481.37183026

loop_
_atom_site_label
_atom_site_type_symbol
_atom_type_description
_atom_site_fract_x
_atom_site_fract_y
_atom_site_fract_z
_atom_type_partial_charge
C1    C     C_R   0.438065 0.691900 0.492917 0.882363
C2    C     C_3   0.500318 0.507942 0.917152 0.067158
C3    C     C_3   0.569144 0.423941 0.039498 -0.387052
C4    C     C_3   0.494771 0.505314 0.082197 0.077892
C5    C     C_3   0.597837 0.515354 0.992896 0.515542
C6    C     C_3   0.526035 0.596698 0.037065 -0.202025
C7    C     C_1   0.503096 0.505757 0.826622 0.060682
C8    C     C_1   0.493573 0.503761 0.172905 -0.039804
C9    C     C_R   0.688685 0.072014 0.640821 -0.184913
C10   C     C_R   0.599960 0.198185 0.527173 -0.143660
C11   C     C_R   0.299059 0.839589 0.428322 -0.192579
C12   C     C_R   0.501490 0.499721 0.661824 0.927399
C13   C     C_R   0.270368 0.945705 0.410518 -0.117503
C14   C     C_R   0.343630 0.013478 0.446381 -0.114384
C15   C     C_R   0.444519 0.975472 0.503538 0.116307
C16   C     C_R   0.458135 0.874432 0.538294 -0.007119
C17   C     C_R   0.529975 0.035869 0.530057 0.030224
C18   C     C_R   0.611516 0.006371 0.606759 0.144218
C19   C     C_R   0.611231 0.914797 0.651315 -0.273251
C20   C     C_R   0.533579 0.849084 0.619186 -0.137870
C21   C     C_R   0.536948 0.124919 0.483118 -0.095631
C22   C     C_R   0.679619 0.169714 0.603459 -0.208253
C23   C     C_R   0.561560 0.308164 0.509224 0.895099
C24   C     C_R   0.395541 0.802997 0.489734 -0.121563
C25   C     C_R   0.084706 0.369656 0.354869 -0.088470
C26   C     C_R   0.797876 0.635502 0.598805 0.056380
C27   C     C_R   0.897271 0.672849 0.610655 -0.288768
C28   C     C_R   0.976342 0.624779 0.567579 -0.128915
C29   C     C_R   0.957342 0.536820 0.514585 0.026305
C30   C     C_R   0.852662 0.506374 0.500000 0.164785
C31   C     C_R   0.037746 0.480192 0.474185 -0.193190
C32   C     C_R   0.006066 0.411838 0.403680 -0.057894
C33   C     C_R   0.900138 0.382775 0.388475 0.464473
C34   C     C_R   0.498617 0.500016 0.338169 0.919234
C35   C     C_R   0.827593 0.426678 0.440399 -0.319408
C36   C     C_R   0.150597 0.483169 0.505620 0.580644
C37   C     C_R   0.192008 0.389931 0.382022 -0.177644
C38   C     C_3   0.394221 0.498160 0.007315 -0.237200
C39   C     C_3   0.426424 0.588533 0.960091 -0.255801
C40   C     C_1   0.503470 0.502730 0.751239 -0.091416
C41   C     C_1   0.494940 0.501933 0.248542 -0.182598
C42   C     C_3   0.469306 0.419172 0.963821 0.481033
H1    H     H_    0.369037 0.655170 0.925407 0.181180
H2    H     H_    0.247667 0.786092 0.392562 0.159491
H3    H     H_    0.320797 0.095183 0.429187 0.147667
H4    H     H_    0.194676 0.974615 0.364923 0.167554
H5    H     H_    0.252540 0.362425 0.344156 0.208001
H6    H     H_    0.735121 0.673905 0.630201 0.176014
H7    H     H_    0.310798 0.490648 0.015703 0.145831
H8    H     H_    0.050210 0.659390 0.574214 0.199617
H9    H     H_    0.912125 0.739903 0.651625 0.162262
H10   H     H_    0.752276 0.396390 0.433741 0.213712
H11   H     H_    0.549235 0.669352 0.069848 0.145790
H12   H     H_    0.627828 0.357331 0.072508 0.141033
H13   H     H_    0.729967 0.225261 0.637150 0.166339
H14   H     H_    0.669295 0.896494 0.712986 0.171172
H15   H     H_    0.750050 0.051453 0.700306 0.141508
N1    N     N_R   0.222180 0.444680 0.455580 -0.148899
N2    N     N_R   0.776980 0.554790 0.543960 -0.121498
O1    O     O_R   0.366730 0.627160 0.478790 -0.594530
O2    O     O_R   0.544830 0.662520 0.507160 -0.610896
O3    O     O_R   0.410960 0.482330 0.609040 -0.600211
O4    O     O_R   0.589060 0.517690 0.637410 -0.593443
O5    O     O_R   0.455170 0.337480 0.492840 -0.583863
O6    O     O_R   0.633270 0.372840 0.521210 -0.649152
O7    O     O_R   0.410940 0.482310 0.362590 -0.596959
O8    O     O_R   0.589040 0.517670 0.390960 -0.635153
Zn1   Zn    Zn3+2 0.381080 0.476390 0.481050 0.988458
Zn2   Zn    Zn3+2 0.618920 0.523610 0.518950 0.953754
C43   C     C_2   0.493320 0.133960 0.386315 0.863124
O9    O     O_2   0.463001 0.219004 0.350368 -0.645263
O10   O     O_R   0.489212 0.043425 0.335924 -0.793035
H16   H     H_    0.453048 0.058166 0.272162 0.340621
C44   C     C_2   0.521762 0.765804 0.678694 0.919500
O11   O     O_2   0.602681 0.721414 0.728962 -0.599176
O12   O     O_R   0.418915 0.741281 0.682796 -0.796173
H17   H     H_    0.355271 0.791201 0.648745 0.303845
O13   O     O_3   0.878994 0.295333 0.338262 -0.634773
C45   C     C_3   0.775870 0.310205 0.278556 0.082467
H18   H     H_    0.791211 0.305788 0.211469 0.187858
H19   H     H_    0.724378 0.387001 0.282731 0.119369
C46   C     C_3   0.713163 0.221682 0.290652 -0.311018
H20   H     H_    0.770096 0.146712 0.299168 0.247250
H21   H     H_    0.679970 0.235714 0.350565 0.217288
C47   C     C_3   0.619895 0.211948 0.211877 -0.929049
H22   H     H_    0.558518 0.283632 0.203630 0.276251
H23   H     H_    0.579057 0.144846 0.221427 0.284350
H24   H     H_    0.652291 0.197488 0.151655 0.244254
C48   C     C_2   0.058068 0.313247 0.271585 1.005383
O14   O     O_2   0.113583 0.230331 0.260664 -0.640485
O15   O     O_R   0.973547 0.357744 0.203879 -0.847786
H25   H     H_    0.964672 0.312823 0.149604 0.323170
O16   O     O_3   0.190277 0.517382 0.589253 -0.645560
C49   C     C_3   0.217330 0.431611 0.648526 0.138680
H26   H     H_    0.281249 0.451738 0.704598 0.190111
H27   H     H_    0.253749 0.358615 0.619928 0.127298
C50   C     C_3   0.119234 0.411931 0.685253 -0.410358
H28   H     H_    0.080354 0.486194 0.709412 0.250216
H29   H     H_    0.057894 0.380433 0.633297 0.224094
C51   C     C_3   0.154857 0.333414 0.760616 -0.934546
H30   H     H_    0.193770 0.258169 0.738111 0.262054
H31   H     H_    0.082139 0.319617 0.785045 0.268932
H32   H     H_    0.213890 0.363716 0.815263 0.282292
O17   O     O_3   0.702269 0.525644 0.978851 -0.632776
C52   C     C_3   0.780879 0.520407 0.059019 0.103358
H33   H     H_    0.853917 0.465446 0.050209 0.182368
H34   H     H_    0.753773 0.490408 0.115479 0.131938
C53   C     C_3   0.815166 0.627621 0.081503 -0.346832
H35   H     H_    0.847782 0.655262 0.027340 0.237921
H36   H     H_    0.742725 0.684105 0.089229 0.215485
C54   C     C_3   0.902942 0.623708 0.166157 -0.896059
H37   H     H_    0.871889 0.596713 0.221405 0.272806
H38   H     H_    0.925139 0.702746 0.181320 0.257228
H39   H     H_    0.977742 0.570103 0.159131 0.281395
O18   O     O_3   0.441546 0.327777 0.919355 -0.653721
C55   C     C_3   0.406250 0.263937 0.975632 0.076253
H40   H     H_    0.324633 0.299716 0.986575 0.144994
H41   H     H_    0.465846 0.252017 0.039717 0.153666
C56   C     C_3   0.396079 0.157532 0.933286 -0.322766
H42   H     H_    0.335915 0.167285 0.869589 0.227792
H43   H     H_    0.476892 0.121754 0.920963 0.231246
C57   C     C_3   0.358726 0.084819 0.991834 -0.938222
H44   H     H_    0.418838 0.072492 0.055425 0.266082
H45   H     H_    0.352306 0.008248 0.959365 0.268347
H46   H     H_    0.277094 0.118229 0.003780 0.270706

loop_
_geom_bond_atom_site_label_1
_geom_bond_atom_site_label_2
_ccdc_geom_bond_type
C19   H14   S    
O7    Zn1   S    
C3    C42   S    
O16   C49   S    
C53   H35   S    
C19   C20   A    
C4    C8    S    
C34   O7    A    
C50   H28   S    
C38   H7    S    
C47   H22   S    
C10   C22   A    
C52   H34   S    
C26   C27   A    
C44   O12   S    
C30   C35   A    
C5    C6    S    
O5    Zn1   S    
C28   C29   A    
C38   C42   S    
C36   N1    A    
C38   C39   S    
C3    H12   S    
C9    C22   A    
C47   H24   S    
C15   C16   A    
C11   C24   A    
C55   H40   S    
C18   C19   A    
C2    C7    S    
C25   C37   A    
C28   H8    S    
C36   O16   S    
O4    Zn2   S    
C53   H36   S    
C7    C40   T    
C43   O9    D    
C48   O15   S    
C26   N2    A    
C37   N1    A    
C26   H6    S    
C25   C32   A    
C56   H43   S    
C5    O17   S    
C16   C24   A    
C13   C14   A    
C34   C41   S    
C2    C39   S    
O17   C52   S    
C50   H29   S    
C27   H9    S    
C14   H3    S    
C47   H23   S    
C10   C21   A    
C52   C53   S    
C44   O11   D    
C8    C41   T    
C4    C6    S    
C1    O1    A    
O15   H25   S    
C45   H19   S    
C12   O4    A    
O13   C45   S    
C39   H1    S    
C49   C50   S    
C51   H32   S    
C17   C21   A    
O8    Zn2   S    
C12   C40   S    
C29   C30   A    
C12   O3    A    
C42   O18   S    
C31   C32   A    
C14   C15   A    
C16   C20   A    
C30   N2    A    
C51   H31   S    
C17   C18   A    
C20   C44   S    
C11   H2    S    
C54   H38   S    
O12   H17   S    
C49   H27   S    
N2    Zn2   S    
N1    Zn1   S    
C23   O5    A    
C4    C38   S    
C46   H21   S    
C2    C5    S    
C37   H5    S    
C6    H11   S    
C57   H45   S    
C3    C4    S    
C35   H10   S    
C50   C51   S    
C56   C57   S    
O2    Zn2   S    
C15   C17   A    
C54   H37   S    
C6    C39   S    
O10   H16   S    
C3    C5    S    
C1    O2    A    
C34   O8    A    
C45   C46   S    
C56   H42   S    
C53   C54   S    
C22   H13   S    
C10   C23   S    
C46   C47   S    
C52   H33   S    
C25   C48   S    
C55   C56   S    
O3    Zn1   S    
C21   C43   S    
C32   C33   A    
C23   O6    A    
C57   H46   S    
C48   O14   D    
C29   C31   A    
C11   C13   A    
C13   H4    S    
C2    C42   S    
O6    Zn2   S    
C51   H30   S    
C33   C35   A    
C55   H41   S    
C54   H39   S    
C9    H15   S    
C49   H26   S    
C33   O13   S    
C45   H18   S    
C9    C18   A    
O1    Zn1   S    
C1    C24   S    
C46   H20   S    
C27   C28   A    
C31   C36   A    
C43   O10   S    
C57   H44   S    
O18   C55   S    
