data_mof_unit_50355.cif
_audit_creation_date              2012-12-10T18:58:13-0500
_audit_creation_method            fapswitch 2.2
_symmetry_space_group_name_H-M    P1
_symmetry_Int_Tables_number       1
_space_group_crystal_system       triclinic
_cell_length_a                    11.082744
_cell_length_b                    10.842823
_cell_length_c                    9.551439
_cell_angle_alpha                 90.54658
_cell_angle_beta                  102.305477
_cell_angle_gamma                 90.158879
_cell_volume                      1121.3449407

loop_
_atom_site_label
_atom_site_type_symbol
_atom_type_description
_atom_site_fract_x
_atom_site_fract_y
_atom_site_fract_z
_atom_type_partial_charge
C1    C     C_R   0.497108 0.262474 0.498689 0.795034
C2    C     C_R   0.484752 0.129571 0.495065 -0.082403
C3    C     C_R   0.466108 0.063125 0.365134 -0.221660
C4    C     C_R   0.467319 0.934372 0.366200 -0.228319
C5    C     C_R   0.487624 0.871115 0.497215 -0.085619
C6    C     C_R   0.490527 0.938637 0.623180 0.111514
C7    C     C_3   0.580876 0.938476 0.764602 -0.053934
C8    C     C_3   0.576302 0.078672 0.762849 -0.498333
C9    C     C_R   0.606004 0.523797 0.100161 0.260750
C10   C     C_R   0.399013 0.462736 0.048907 -0.093311
C11   C     C_R   0.399129 0.462502 0.900308 -0.076696
C12   C     C_R   0.263076 0.503386 0.442565 0.878294
C13   C     C_R   0.606328 0.522559 0.952938 0.249853
C14   C     C_3   0.683661 0.636076 0.966762 -0.495837
C15   C     C_3   0.681892 0.638759 0.125159 -0.511274
C16   C     C_R   0.498533 0.737794 0.500001 0.822457
C17   C     C_R   0.736736 0.502014 0.557866 0.873291
C18   C     C_2   0.128382 0.503878 0.412490 -0.352766
C19   C     C_2   0.066211 0.536175 0.513665 0.202106
C20   C     C_2   0.870229 0.514854 0.590930 -0.358570
C21   C     C_2   0.932821 0.513580 0.485706 -0.213871
C22   C     C_R   0.488133 0.065701 0.621710 0.078929
Cu1   Cu    Cu3+1 0.499990 0.499980 0.640670 0.954835
Cu2   Cu    Cu3+1 0.500010 0.500020 0.359330 0.935395
H1    H     H_    0.885464 0.492944 0.376175 0.161018
H2    H     H_    0.664272 0.124755 0.754450 0.195622
H3    H     H_    0.316614 0.433767 0.083142 0.141455
H4    H     H_    0.317195 0.432540 0.824828 0.147288
H5    H     H_    0.776696 0.618098 0.945036 0.196356
H6    H     H_    0.633192 0.713311 0.906997 0.234027
H7    H     H_    0.774395 0.623530 0.194601 0.193388
H8    H     H_    0.630419 0.718503 0.156951 0.213142
H9    H     H_    0.915950 0.529914 0.702036 0.142576
H10   H     H_    0.079321 0.469659 0.308446 0.105799
H11   H     H_    0.456308 0.110008 0.263734 0.163192
H12   H     H_    0.457797 0.885100 0.265229 0.163800
H13   H     H_    0.542333 0.897569 0.851992 0.152876
H14   H     H_    0.531106 0.118186 0.846361 0.184800
N1    N     N_R   0.500780 0.500930 0.148120 -0.184534
N2    N     N_R   0.500790 0.500890 0.852210 -0.184957
O1    O     O_R   0.500000 0.319640 0.618810 -0.581322
O2    O     O_R   0.500010 0.319680 0.381230 -0.588386
O3    O     O_R   0.320680 0.500000 0.575130 -0.554122
O4    O     O_R   0.320690 0.500040 0.337550 -0.602247
O5    O     O_R   0.499990 0.680320 0.618770 -0.565176
O6    O     O_R   0.500000 0.680360 0.381190 -0.591806
O7    O     O_R   0.679310 0.499960 0.662450 -0.584129
O8    O     O_R   0.679320 0.500000 0.424870 -0.579687
N3    N     N_3   0.128267 0.594415 0.645685 -0.553093
H15   H     H_    0.083124 0.677012 0.658303 0.215688
H16   H     H_    0.122461 0.536478 0.730776 0.203007
N4    N     N_3   0.701704 0.888968 0.754295 -0.590022
H17   H     H_    0.734402 0.932904 0.672463 0.232422
H18   H     H_    0.763731 0.909514 0.850527 0.223159

loop_
_geom_bond_atom_site_label_1
_geom_bond_atom_site_label_2
_ccdc_geom_bond_type
C16   O5    A    
C2    C22   A    
C8    C22   S    
Cu1   Cu2   S    
C4    H12   S    
C15   H7    S    
C6    C7    S    
Cu1   O5    S    
C8    H2    S    
C19   N3    S    
Cu1   O1    S    
C10   H3    S    
C3    H11   S    
C17   O8    A    
Cu2   O6    S    
Cu2   N1    S    
C2    C3    A    
C7    H13   S    
Cu1   O3    S    
C15   H8    S    
C12   O4    A    
C13   C14   S    
C20   C21   D    
C18   H10   S    
C11   N2    A    
C8    H14   S    
C11   H4    S    
C14   H6    S    
C20   H9    S    
C1    O1    A    
C19   C21   S    
N4    H18   S    
C7    N4    S    
C18   C19   D    
C12   O3    A    
C9    C15   S    
C5    C6    A    
Cu2   O4    S    
Cu1   O7    S    
C10   C11   A    
C14   H5    S    
C12   C18   S    
C3    C4    A    
Cu2   O8    S    
C1    O2    A    
C7    C8    S    
C17   C20   S    
Cu2   O2    S    
N4    H17   S    
C1    C2    S    
C16   O6    A    
N3    H15   S    
Cu1   N2    S    
C9    C13   A    
C14   C15   S    
C4    C5    A    
C13   N2    A    
C21   H1    S    
N3    H16   S    
C9    N1    A    
C17   O7    A    
C10   N1    A    
C5    C16   S    
C6    C22   A    
