data_mof_unit_34782.cif
_audit_creation_date              2012-12-10T17:40:30-0500
_audit_creation_method            fapswitch 2.2
_symmetry_space_group_name_H-M    P1
_symmetry_Int_Tables_number       1
_space_group_crystal_system       triclinic
_cell_length_a                    13.855162
_cell_length_b                    14.979546
_cell_length_c                    15.843973
_cell_angle_alpha                 88.216544
_cell_angle_beta                  69.444125
_cell_angle_gamma                 91.040577
_cell_volume                      3075.97705337

loop_
_atom_site_label
_atom_site_type_symbol
_atom_type_description
_atom_site_fract_x
_atom_site_fract_y
_atom_site_fract_z
_atom_type_partial_charge
C1    C     C_R   0.500803 0.670966 0.499413 0.807350
C2    C     C_R   0.499323 0.329061 0.500323 0.802759
C3    C     C_R   0.375889 0.503026 0.098005 -0.225500
C4    C     C_R   0.616329 0.455735 0.907397 -0.214630
C5    C     C_R   0.304630 0.508865 0.054771 -0.216381
C6    C     C_R   0.685615 0.442805 0.951660 -0.216829
C7    C     C_R   0.425007 0.183017 0.568924 -0.243884
C8    C     C_R   0.575421 0.817010 0.430497 -0.244213
C9    C     C_R   0.499108 0.232688 0.499803 -0.071457
C10   C     C_R   0.501206 0.767397 0.499625 -0.073487
C11   C     C_R   0.575747 0.190753 0.431734 -0.243199
C12   C     C_R   0.424621 0.809462 0.567549 -0.243654
C13   C     C_R   0.578115 0.097422 0.431005 0.092521
C14   C     C_R   0.422232 0.902737 0.568235 0.092783
C15   C     C_R   0.500641 0.046872 0.499689 0.000505
C16   C     C_R   0.499683 0.953252 0.499531 0.000406
C17   C     C_R   0.424234 0.090070 0.568853 0.096772
C18   C     C_R   0.576136 0.910005 0.430444 0.097524
C19   C     C_R   0.654985 0.053508 0.362820 0.251438
C20   C     C_R   0.345394 0.946599 0.636487 0.253773
C21   C     C_R   0.652393 0.960064 0.362604 -0.289693
C22   C     C_R   0.348004 0.040021 0.636723 -0.289021
C23   C     C_R   0.436671 0.501098 0.672566 0.802107
C24   C     C_R   0.563194 0.495709 0.327800 0.786494
C25   C     C_R   0.230965 0.557129 0.441463 0.342967
C26   C     C_R   0.768951 0.442754 0.558465 0.345132
C27   C     C_R   0.180593 0.441803 0.557211 0.350510
C28   C     C_R   0.819201 0.558591 0.443298 0.337384
C29   C     C_R   0.076098 0.447321 0.563294 -0.017180
C30   C     C_R   0.923721 0.552830 0.436933 -0.014829
C31   C     C_R   0.051581 0.500282 0.499894 0.029635
C32   C     C_R   0.948323 0.499594 0.500103 0.033056
C33   C     C_R   0.130078 0.553365 0.436035 -0.050169
C34   C     C_R   0.869794 0.446522 0.563965 -0.048480
C35   C     C_R   0.995659 0.399233 0.630826 -0.181816
C36   C     C_R   0.004019 0.601106 0.369525 -0.189283
C37   C     C_R   0.894635 0.398644 0.631065 -0.216063
C38   C     C_R   0.105096 0.601496 0.369120 -0.214539
C39   C     C_R   0.398114 0.502909 0.772285 -0.091460
C40   C     C_R   0.600882 0.483448 0.229302 -0.130312
C41   C     C_R   0.263056 0.512668 0.918979 -0.264600
C42   C     C_R   0.726995 0.440338 0.087302 -0.206715
C43   C     C_R   0.292814 0.511688 0.824922 0.250453
C44   C     C_R   0.699350 0.450385 0.180188 0.258856
C45   C     C_R   0.470423 0.495289 0.815496 -0.308792
C46   C     C_R   0.532084 0.501173 0.184169 -0.287104
C47   C     C_R   0.441198 0.493000 0.909870 0.085603
C48   C     C_R   0.555593 0.482948 0.092837 0.086498
C49   C     C_R   0.336101 0.504776 0.961349 0.129551
C50   C     C_R   0.656507 0.456128 0.043653 0.102309
C51   C     C_R   0.513785 0.480692 0.954254 0.079042
C52   C     C_R   0.481674 0.490427 0.049226 0.079195
Cu1   Cu    Cu3+1 0.402580 0.500010 0.499990 0.955326
Cu2   Cu    Cu3+1 0.597420 0.499990 0.500010 0.942260
H1    H     H_    0.224146 0.517269 0.094935 0.141513
H2    H     H_    0.762655 0.421708 0.913441 0.138051
H3    H     H_    0.010456 0.361188 0.684009 0.170163
H4    H     H_    0.989031 0.639440 0.316599 0.170123
H5    H     H_    0.460081 0.530227 0.221786 0.156813
H6    H     H_    0.550398 0.493685 0.773731 0.164575
H7    H     H_    0.369301 0.217025 0.623343 0.135095
H8    H     H_    0.631273 0.782946 0.376218 0.134551
H9    H     H_    0.632403 0.231584 0.379212 0.167135
H10   H     H_    0.367996 0.768811 0.620061 0.162830
N1    N     N_R   0.256170 0.500070 0.500040 -0.222260
N2    N     N_R   0.743830 0.499930 0.499960 -0.221896
O1    O     O_R   0.417730 0.629750 0.499970 -0.550283
O2    O     O_R   0.582270 0.370250 0.500030 -0.554329
O3    O     O_R   0.582270 0.629730 0.499980 -0.585806
O4    O     O_R   0.417730 0.370270 0.500020 -0.588887
O5    O     O_R   0.371590 0.500020 0.629830 -0.572787
O6    O     O_R   0.628410 0.499980 0.370170 -0.607457
O7    O     O_R   0.536130 0.499990 0.629840 -0.566732
O8    O     O_R   0.463870 0.500010 0.370160 -0.556288
N3    N     N_2   0.306591 0.620339 0.386637 -0.370513
H11   H     H_    0.324252 0.613225 0.318444 0.214537
C53   C     C_3   0.288948 0.712372 0.412496 -0.652410
H12   H     H_    0.226289 0.740468 0.392491 0.197911
H13   H     H_    0.360513 0.753293 0.378287 0.226937
H14   H     H_    0.267813 0.717529 0.486592 0.235711
N4    N     N_2   0.693099 0.379761 0.613400 -0.369858
H15   H     H_    0.674499 0.387487 0.681607 0.215345
C54   C     C_3   0.710619 0.287535 0.588239 -0.652598
H16   H     H_    0.732033 0.281884 0.514172 0.235340
H17   H     H_    0.638888 0.246837 0.622490 0.227306
H18   H     H_    0.772989 0.259569 0.608727 0.197836
N5    N     N_2   0.205430 0.371229 0.607762 -0.429436
H19   H     H_    0.265666 0.381362 0.629714 0.303392
C55   C     C_3   0.199097 0.282107 0.576169 -0.719547
H20   H     H_    0.263916 0.272163 0.512252 0.257638
H21   H     H_    0.126003 0.270010 0.563907 0.230904
H22   H     H_    0.201325 0.231745 0.628199 0.216312
N6    N     N_2   0.793991 0.629904 0.393851 -0.444337
H23   H     H_    0.733516 0.620119 0.372095 0.295833
C56   C     C_3   0.800393 0.718530 0.426484 -0.709336
H24   H     H_    0.735379 0.728003 0.490418 0.257446
H25   H     H_    0.798449 0.769570 0.374920 0.214755
H26   H     H_    0.873415 0.730012 0.439073 0.231079
H27   H     H_    0.836509 0.360735 0.684832 0.140270
H28   H     H_    0.163087 0.639621 0.315462 0.142131
N7    N     N_2   0.769032 0.420598 0.222382 -0.427681
H29   H     H_    0.737265 0.391198 0.286099 0.268685
C57   C     C_3   0.857885 0.479138 0.208382 -0.673358
H30   H     H_    0.906421 0.450734 0.244793 0.222716
H31   H     H_    0.833064 0.546136 0.234010 0.232297
H32   H     H_    0.905179 0.486000 0.135460 0.219966
N8    N     N_2   0.216419 0.520412 0.784442 -0.419679
H33   H     H_    0.147320 0.487850 0.820807 0.241201
C58   C     C_3   0.201807 0.611432 0.759168 -0.641283
H34   H     H_    0.147376 0.611630 0.721782 0.218816
H35   H     H_    0.276062 0.643010 0.714652 0.233466
H36   H     H_    0.169469 0.651238 0.820306 0.210728
H37   H     H_    0.182462 0.520797 0.959013 0.131693
H38   H     H_    0.802703 0.416022 0.049705 0.142866
H39   H     H_    0.344498 0.504891 0.170505 0.138028
H40   H     H_    0.644727 0.441441 0.836877 0.128016
N9    N     N_2   0.734724 0.102697 0.293966 -0.434522
H41   H     H_    0.758351 0.072851 0.232476 0.252582
C59   C     C_3   0.821134 0.129065 0.319787 -0.706650
H42   H     H_    0.861216 0.069037 0.331848 0.225617
H43   H     H_    0.795033 0.168138 0.381829 0.230647
H44   H     H_    0.876492 0.171642 0.264784 0.233437
N10   N     N_2   0.265915 0.897367 0.705560 -0.437991
H45   H     H_    0.242231 0.927378 0.766957 0.252039
C60   C     C_3   0.179545 0.870285 0.680008 -0.720361
H46   H     H_    0.138981 0.929987 0.667922 0.229481
H47   H     H_    0.124604 0.827566 0.735161 0.228022
H48   H     H_    0.205744 0.831086 0.618054 0.232824
H49   H     H_    0.711286 0.926503 0.310034 0.141176
H50   H     H_    0.289199 0.073577 0.689371 0.141531

loop_
_geom_bond_atom_site_label_1
_geom_bond_atom_site_label_2
_ccdc_geom_bond_type
N5    H19   S    
C45   H6    S    
N6    H23   S    
C46   H5    S    
C27   C29   A    
C34   C37   A    
N8    C58   S    
C56   H24   S    
N4    H15   S    
C56   H26   S    
N10   H45   S    
C47   C49   A    
C53   H12   S    
C40   C46   A    
N7    H29   S    
C35   C37   A    
C36   H4    S    
C58   H35   S    
C12   H10   S    
C53   H14   S    
Cu2   O2    S    
C15   C16   A    
C18   C21   A    
C15   C17   A    
C45   C47   A    
C7    H7    S    
C20   N10   S    
C1    O1    A    
C2    O2    A    
C26   C34   A    
C31   C32   A    
C7    C17   A    
C60   H48   S    
N8    H33   S    
C31   C33   A    
C55   H21   S    
Cu1   N1    S    
C39   C45   A    
C48   C50   A    
N7    C57   S    
C22   H50   S    
C41   C43   A    
C5    C49   A    
C42   C44   A    
C23   O7    A    
Cu1   O4    S    
C41   C49   A    
N4    C54   S    
C42   H38   S    
C53   H13   S    
C46   C48   A    
C13   C19   A    
C4    C51   A    
C51   C52   A    
C26   N2    A    
C14   C20   A    
C25   N1    A    
C4    C6    A    
C58   H36   S    
C41   H37   S    
C4    H40   S    
C39   C43   A    
Cu1   Cu2   S    
C8    C18   A    
C28   N6    S    
C25   N3    S    
C32   C34   A    
C28   N2    A    
N3    H11   S    
C27   N1    A    
C23   O5    A    
Cu2   O7    S    
N3    C53   S    
C54   H16   S    
C40   C44   A    
C3    C52   A    
C25   C33   A    
C57   H31   S    
C16   C18   A    
C43   N8    S    
C6    C50   A    
C55   H22   S    
C27   N5    S    
C9    C11   A    
C21   H49   S    
C59   H43   S    
C10   C12   A    
C42   C50   A    
C38   H28   S    
C54   H17   S    
C12   C14   A    
C26   N4    S    
C13   C15   A    
C60   H46   S    
C14   C16   A    
C20   C22   A    
C36   C38   A    
Cu1   O5    S    
C37   H27   S    
C24   O6    A    
C59   H44   S    
C7    C9    A    
C19   C21   A    
C5    H1    S    
C1    C10   S    
C33   C38   A    
C6    H2    S    
C3    C5    A    
C47   C51   A    
C44   N7    S    
C56   H25   S    
Cu2   N2    S    
C29   C35   A    
C11   H9    S    
C17   C22   A    
C30   C36   A    
C35   H3    S    
N9    C59   S    
C29   C31   A    
C3    H39   S    
N9    H41   S    
C30   C32   A    
C11   C13   A    
C24   O8    A    
N6    C56   S    
Cu2   O3    S    
C23   C39   S    
C28   C30   A    
C24   C40   S    
C57   H32   S    
Cu1   O1    S    
C1    O3    A    
N10   C60   S    
C48   C52   A    
C54   H18   S    
Cu2   O6    S    
C19   N9    S    
C8    C10   A    
C59   H42   S    
C58   H34   S    
C57   H30   S    
C60   H47   S    
N5    C55   S    
C55   H20   S    
C2    O4    A    
C2    C9    S    
C8    H8    S    
Cu1   O8    S    
