data_mof_unit_40672.cif
_audit_creation_date              2013-03-05T15:56:12-0500
_audit_creation_method            fapswitch 2.2
_symmetry_space_group_name_H-M    P1
_symmetry_Int_Tables_number       1
_space_group_crystal_system       triclinic
_cell_length_a                    6.94197
_cell_length_b                    14.562022
_cell_length_c                    16.279819
_cell_angle_alpha                 89.999846
_cell_angle_beta                  89.996384
_cell_angle_gamma                 90.000194
_cell_volume                      1645.71257095

loop_
_atom_site_label
_atom_site_type_symbol
_atom_site_description
_atom_site_fract_x
_atom_site_fract_y
_atom_site_fract_z
_atom_type_partial_charge
O1    O     O_R   0.638140 0.833910 0.163320 -0.570299
O2    O     O_R   0.361860 0.166090 0.836680 -0.601100
O3    O     O_R   0.361860 0.166090 0.663320 -0.570223
O4    O     O_R   0.638140 0.833910 0.336680 -0.601207
O5    O     O_R   0.138140 0.666090 0.336680 -0.570207
O6    O     O_R   0.861860 0.333910 0.663320 -0.601208
O7    O     O_R   0.861860 0.333910 0.836680 -0.570297
O8    O     O_R   0.138140 0.666090 0.163320 -0.601101
O9    O     O_R   0.308390 0.844930 0.336080 -0.613376
O10   O     O_R   0.691610 0.155070 0.663920 -0.550868
O11   O     O_R   0.691610 0.155070 0.836080 -0.613452
O12   O     O_R   0.308390 0.844930 0.163920 -0.550899
O13   O     O_R   0.808390 0.655070 0.163920 -0.613458
O14   O     O_R   0.191610 0.344930 0.836080 -0.550905
O15   O     O_R   0.191610 0.344930 0.663920 -0.613385
O16   O     O_R   0.808390 0.655070 0.336080 -0.550870
C1    C     C_R   0.477479 0.867941 0.364223 1.155429
C2    C     C_R   0.523400 0.132642 0.635046 1.080947
C3    C     C_R   0.522510 0.132056 0.864219 1.155610
C4    C     C_R   0.476606 0.867352 0.135042 1.081077
C5    C     C_R   0.977489 0.632055 0.135781 1.155606
C6    C     C_R   0.023394 0.367352 0.864959 1.081069
C7    C     C_R   0.022519 0.367947 0.635780 1.155423
C8    C     C_R   0.976600 0.632643 0.364955 1.080938
O17   O     O_3   0.471620 0.691320 0.250000 -0.272600
O18   O     O_3   0.528380 0.308680 0.750000 -0.272653
O19   O     O_3   0.971620 0.808680 0.250000 -0.272645
O20   O     O_3   0.028380 0.191320 0.750000 -0.272603
V1    V     V_3+5 0.196770 0.760880 0.250000 1.294890
V2    V     V_3+5 0.803230 0.239120 0.750000 1.294895
V3    V     V_3+5 0.696770 0.739120 0.250000 1.294901
V4    V     V_3+5 0.303230 0.260880 0.750000 1.294885
C9    C     C_R   0.853853 0.490951 0.441445 0.218929
C10   C     C_R   0.134506 0.515178 0.565190 0.123465
C11   C     C_R   0.146085 0.509069 0.941419 0.218696
C12   C     C_R   0.865588 0.484793 0.065239 0.122794
C13   C     C_R   0.353921 0.009071 0.058584 0.218685
C14   C     C_R   0.634413 0.984794 0.934763 0.122794
C15   C     C_R   0.646124 0.990935 0.558568 0.218907
C16   C     C_R   0.365493 0.015169 0.434814 0.123412
C17   C     C_R   0.867229 0.428471 0.507459 0.489261
C18   C     C_R   0.119382 0.579242 0.499616 0.526395
C19   C     C_R   0.132815 0.571496 0.007474 0.489760
C20   C     C_R   0.880777 0.420711 0.999680 0.526376
C21   C     C_R   0.367188 0.071498 0.992527 0.489761
C22   C     C_R   0.619222 0.920712 0.000321 0.526370
C23   C     C_R   0.632748 0.928455 0.492553 0.489214
C24   C     C_R   0.380647 0.079244 0.500378 0.526424
C25   C     C_R   0.010192 0.438045 0.568359 -0.556380
C26   C     C_R   0.983919 0.566015 0.435513 -0.520190
C27   C     C_R   0.989824 0.561949 0.068369 -0.556301
C28   C     C_R   0.016069 0.433988 0.935511 -0.520513
C29   C     C_R   0.510176 0.061950 0.931632 -0.556305
C30   C     C_R   0.483933 0.933989 0.064490 -0.520519
C31   C     C_R   0.489798 0.938034 0.431648 -0.556441
C32   C     C_R   0.516082 0.066010 0.564490 -0.520206
N1    N     N_R   0.706493 0.475851 0.381083 0.269087
O21   O     O_R   0.689307 0.394669 0.348424 -0.307065
O22   O     O_R   0.558673 0.530726 0.378871 -0.344530
N2    N     N_R   0.265712 0.532967 0.631637 0.240268
O23   O     O_R   0.205575 0.525098 0.706841 -0.363248
O24   O     O_R   0.431590 0.571886 0.618207 -0.369905
N3    N     N_R   0.293354 0.524219 0.881019 0.269162
O25   O     O_R   0.310481 0.605433 0.848417 -0.307233
O26   O     O_R   0.441190 0.469358 0.878728 -0.344780
N4    N     N_R   0.734573 0.466932 0.131755 0.240321
O27   O     O_R   0.794791 0.474989 0.206929 -0.363602
O28   O     O_R   0.569045 0.427639 0.118441 -0.368982
N5    N     N_R   0.206661 0.024224 0.118986 0.269163
O29   O     O_R   0.189551 0.105438 0.151591 -0.307236
O30   O     O_R   0.058818 0.969367 0.121280 -0.344777
N6    N     N_R   0.765429 0.966934 0.868247 0.240323
O31   O     O_R   0.705213 0.974992 0.793073 -0.363604
O32   O     O_R   0.930955 0.927639 0.881562 -0.368978
N7    N     N_R   0.793471 0.975830 0.618934 0.269096
O33   O     O_R   0.810649 0.894644 0.651588 -0.307033
O34   O     O_R   0.941295 0.030703 0.621154 -0.344561
N8    N     N_R   0.234267 0.032955 0.368372 0.240265
O35   O     O_R   0.294373 0.025065 0.293165 -0.363262
O36   O     O_R   0.068437 0.071915 0.381804 -0.369779
O37   O     O_3   0.742500 0.354524 0.510730 -0.612021
C33   C     C_3   0.570581 0.383101 0.549239 -0.033296
H1    H     H_    0.597036 0.425868 0.604584 0.176534
H2    H     H_    0.493320 0.321581 0.571419 0.129996
H3    H     H_    0.476299 0.420004 0.505263 0.144886
O38   O     O_3   0.235141 0.656773 0.498648 -0.584062
C34   C     C_3   0.161333 0.721889 0.554902 -0.030449
H4    H     H_    0.199846 0.704676 0.619148 0.205606
H5    H     H_    0.002013 0.729296 0.550427 0.142542
H6    H     H_    0.228496 0.789373 0.541587 0.131546
O39   O     O_3   0.257879 0.645297 0.010857 -0.612305
C35   C     C_3   0.429584 0.616463 0.049381 -0.034980
H7    H     H_    0.402813 0.573628 0.104664 0.176569
H8    H     H_    0.507134 0.677859 0.071646 0.130671
H9    H     H_    0.523763 0.579535 0.005376 0.145153
O40   O     O_3   0.765576 0.342999 0.998922 -0.584331
C36   C     C_3   0.840592 0.278067 0.055036 -0.030582
H10   H     H_    0.999581 0.270355 0.049554 0.142911
H11   H     H_    0.772432 0.210641 0.042501 0.132858
H12   H     H_    0.804725 0.295794 0.119423 0.204835
O41   O     O_3   0.242125 0.145299 0.989145 -0.612302
C37   C     C_3   0.070419 0.116464 0.950622 -0.034984
H13   H     H_    0.097187 0.073629 0.895339 0.176569
H14   H     H_    0.992868 0.177860 0.928357 0.130669
H15   H     H_    0.976240 0.079536 0.994628 0.145152
O42   O     O_3   0.734421 0.842999 0.001079 -0.584336
C38   C     C_3   0.659402 0.778068 0.944964 -0.030573
H16   H     H_    0.500413 0.770356 0.950448 0.142911
H17   H     H_    0.727563 0.710642 0.957498 0.132863
H18   H     H_    0.695264 0.795796 0.880577 0.204835
O43   O     O_3   0.757473 0.854506 0.489283 -0.611969
C39   C     C_3   0.929396 0.883083 0.450778 -0.033245
H19   H     H_    0.902957 0.925873 0.395445 0.176474
H20   H     H_    0.006628 0.821563 0.428581 0.129967
H21   H     H_    0.023694 0.919967 0.494761 0.144842
O44   O     O_3   0.264991 0.156808 0.501309 -0.584121
C40   C     C_3   0.338950 0.221873 0.445046 -0.030505
H22   H     H_    0.300811 0.204554 0.380793 0.205490
H23   H     H_    0.498213 0.229331 0.449653 0.142590
H24   H     H_    0.271646 0.289350 0.458222 0.131780

loop_
_geom_bond_atom_site_label_1
_geom_bond_atom_site_label_2
_geom_bond_distance
_ccdc_geom_bond_type
O17   V3    1.710971 S    
N4    O28   1.301853 A    
C34   H4    1.108286 S    
N3    O26   1.301094 A    
O18   V4    1.710971 S    
O41   C37   1.410864 S    
C13   N5    1.435469 S    
O12   V1    2.015468 S    
O19   V1    1.710975 S    
O43   C39   1.410827 S    
C10   C18   1.421605 A    
C19   C27   1.409722 A    
C39   H20   1.104787 S    
C36   H10   1.112979 S    
O15   V4    2.015539 S    
O16   V3    2.015538 S    
C14   C29   1.417314 A    
O11   C3    1.303882 A    
O3    C2    1.306371 A    
O8    V1    2.015529 S    
O2    V4    2.015525 S    
C40   H23   1.113453 S    
C12   N4    1.437825 S    
N1    O22   1.301098 A    
O42   C38   1.414162 S    
O1    V3    2.015526 S    
O44   C40   1.414291 S    
C37   H15   1.108946 S    
N2    O24   1.301902 A    
N5    O30   1.301094 A    
C16   C24   1.421603 A    
O11   V2    2.015467 S    
C10   C25   1.417386 A    
C38   H16   1.112979 S    
C18   O38   1.385880 S    
C15   N7    1.435480 S    
C11   C19   1.411136 A    
C1    C31   1.501339 S    
C2    C32   1.504465 S    
C24   O44   1.385858 S    
C3    C29   1.501312 S    
O15   C7    1.303894 A    
N4    O27   1.298583 A    
C23   C31   1.409768 A    
C21   C29   1.409719 A    
O16   C8    1.300482 A    
O7    V2    2.015528 S    
C10   N2    1.437712 S    
C38   H17   1.108858 S    
C22   C30   1.417962 A    
N5    O29   1.301721 A    
C17   C25   1.409768 A    
C39   H19   1.110595 S    
C36   H11   1.108857 S    
O37   C33   1.410830 S    
O5    V1    2.015487 S    
O17   V1    2.160212 S    
C14   N6    1.437823 S    
O19   V3    2.160206 S    
O20   V4    2.160206 S    
C4    C30   1.504459 S    
C40   H24   1.108974 S    
O39   C35   1.410864 S    
O38   C34   1.414319 S    
C9    C26   1.421061 A    
C35   H9    1.108945 S    
C19   O39   1.382662 S    
N2    O23   1.298581 A    
N7    O33   1.301728 A    
C20   O40   1.385758 S    
O10   V2    2.015541 S    
C15   C32   1.421066 A    
C16   C31   1.417381 A    
C17   O37   1.382783 S    
O40   C36   1.414163 S    
O12   C4    1.300467 A    
C35   H8    1.104792 S    
O8    C5    1.300166 A    
O13   C5    1.303884 A    
O3    V4    2.015495 S    
C37   H14   1.104792 S    
N7    O34   1.301098 A    
C8    C26   1.504455 S    
C12   C27   1.417313 A    
C21   O41   1.382662 S    
C18   C26   1.417958 A    
O4    C1    1.300186 A    
N6    O32   1.301854 A    
O6    V2    2.015488 S    
O18   V2    2.160212 S    
C33   H2    1.104789 S    
C34   H5    1.113629 S    
C38   H18   1.107857 S    
C16   N8    1.437734 S    
C12   C20   1.421622 A    
C13   C30   1.421004 A    
C13   C21   1.411134 A    
O7    C6    1.306374 A    
C5    C27   1.501314 S    
C36   H12   1.107856 S    
C15   C23   1.411183 A    
O9    C1    1.303884 A    
C24   C32   1.417952 A    
O1    C4    1.306372 A    
C9    N1    1.435481 S    
O2    C3    1.300166 A    
N8    O35   1.298574 A    
O13   V3    2.015476 S    
O14   V4    2.015475 S    
N6    O31   1.298580 A    
O9    V1    2.015540 S    
C33   H3    1.108952 S    
C9    C17   1.411174 A    
O14   C6    1.300469 A    
O20   V2    1.710975 S    
C40   H22   1.108112 S    
C20   C28   1.417967 A    
N1    O21   1.301725 A    
O5    C8    1.306362 A    
O10   C2    1.300480 A    
C23   O43   1.382785 S    
O6    C7    1.300181 A    
C22   O42   1.385759 S    
C35   H7    1.110673 S    
C6    C28   1.504465 S    
N8    O36   1.301880 A    
C37   H13   1.110676 S    
C14   C22   1.421617 A    
O4    V3    2.015494 S    
C7    C25   1.501352 S    
N3    O25   1.301721 A    
C33   H1    1.110588 S    
C34   H6    1.109068 S    
C11   C28   1.421005 A    
C11   N3    1.435473 S    
C39   H21   1.108953 S    
