data_mof_unit_56223.cif
_audit_creation_date              2012-12-10T18:09:04-0500
_audit_creation_method            fapswitch 2.2
_symmetry_space_group_name_H-M    P1
_symmetry_Int_Tables_number       1
_space_group_crystal_system       triclinic
_cell_length_a                    12.686288
_cell_length_b                    13.136523
_cell_length_c                    13.5975
_cell_angle_alpha                 89.900149
_cell_angle_beta                  95.969024
_cell_angle_gamma                 97.812958
_cell_volume                      2232.68954441

loop_
_atom_site_label
_atom_site_type_symbol
_atom_type_description
_atom_site_fract_x
_atom_site_fract_y
_atom_site_fract_z
_atom_type_partial_charge
C1    C     C_R   0.559544 0.690702 0.511966 1.016799
C2    C     C_1   0.528848 0.496608 0.217190 -0.123116
C3    C     C_R   0.331458 0.068769 0.347991 -0.125178
C4    C     C_R   0.407943 0.200789 0.466658 -0.164893
C5    C     C_R   0.651225 0.822913 0.628487 0.302287
C6    C     C_R   0.630544 0.907746 0.681044 0.407215
C7    C     C_R   0.563862 0.973946 0.635959 -0.215080
C8    C     C_R   0.521836 0.960722 0.535296 -0.024428
C9    C     C_R   0.536196 0.870843 0.484842 -0.204134
C10   C     C_R   0.460685 0.030979 0.485197 -0.059802
C11   C     C_R   0.400151 0.002772 0.392848 -0.136551
C12   C     C_R   0.516999 0.497030 0.318415 0.906466
C13   C     C_R   0.415819 0.913469 0.343260 0.401498
C14   C     C_R   0.487397 0.851040 0.387044 0.575872
C15   C     C_R   0.465923 0.132136 0.519413 0.570769
C16   C     C_R   0.334918 0.167662 0.385398 -0.306772
C17   C     C_R   0.593067 0.798540 0.535618 -0.246060
C18   C     C_R   0.898900 0.415068 0.683586 0.428249
C19   C     C_R   0.210908 0.615637 0.371820 0.647529
C20   C     C_R   0.109112 0.639298 0.341418 0.341580
C21   C     C_R   0.024789 0.602261 0.395164 -0.390508
C22   C     C_R   0.041370 0.539221 0.477838 -0.065510
C23   C     C_R   0.441031 0.309327 0.485838 0.908692
C24   C     C_R   0.146179 0.515171 0.506030 0.002483
C25   C     C_R   0.956935 0.497225 0.532275 -0.001184
C26   C     C_R   0.980984 0.455997 0.626818 -0.027664
C27   C     C_R   0.085752 0.447638 0.659991 -0.391817
C28   C     C_R   0.162863 0.453688 0.592193 0.542212
C29   C     C_R   0.849056 0.492506 0.496159 -0.073530
C30   C     C_R   0.794746 0.406126 0.640284 -0.036062
C31   C     C_R   0.484007 0.505647 0.681600 0.891054
C32   C     C_1   0.476056 0.516085 0.782874 -0.172932
C33   C     C_2   0.467881 0.532599 0.971719 -0.160683
C34   C     C_2   0.545973 0.498143 0.028846 -0.156528
C35   C     C_1   0.539367 0.496719 0.131554 0.003559
C36   C     C_1   0.469838 0.525368 0.868691 -0.018599
H1    H     H_    0.611662 0.467708 0.998804 0.161737
H2    H     H_    0.729769 0.374113 0.681386 0.188191
H3    H     H_    0.101969 0.419697 0.733962 0.167123
H4    H     H_    0.822844 0.524814 0.426409 0.145921
H5    H     H_    0.948073 0.626497 0.372523 0.187460
H6    H     H_    0.401485 0.561919 0.001605 0.161791
H7    H     H_    0.289115 0.221034 0.345020 0.177619
H8    H     H_    0.281055 0.047106 0.279992 0.193074
H9    H     H_    0.541633 0.031159 0.683572 0.226353
N1    N     N_R   0.773270 0.445590 0.549770 -0.142826
N2    N     N_R   0.227520 0.553880 0.450750 -0.203524
O1    O     O_R   0.631100 0.627590 0.523760 -0.597229
O2    O     O_R   0.455900 0.662370 0.491970 -0.564769
O3    O     O_R   0.600200 0.480080 0.377830 -0.637627
O4    O     O_R   0.425000 0.514870 0.346040 -0.541726
O5    O     O_R   0.544100 0.337630 0.508030 -0.555898
O6    O     O_R   0.368900 0.372410 0.476240 -0.566574
O7    O     O_R   0.575000 0.485130 0.653960 -0.614812
O8    O     O_R   0.399800 0.519920 0.622170 -0.580662
Zn1   Zn    Zn3+2 0.616980 0.476780 0.521230 0.980200
Zn2   Zn    Zn3+2 0.383020 0.523220 0.478770 1.041412
F1    F     F_    0.508729 0.770571 0.333141 -0.645215
O9    O     O_3   0.919457 0.375584 0.777045 -0.612842
C37   C     C_3   0.935294 0.456333 0.848220 0.073767
H10   H     H_    0.977020 0.529877 0.821487 0.130868
H11   H     H_    0.988044 0.433063 0.912261 0.168979
C38   C     C_3   0.829518 0.474028 0.885150 -0.876812
H12   H     H_    0.787896 0.400763 0.911472 0.269667
H13   H     H_    0.845083 0.530578 0.947329 0.217006
H14   H     H_    0.776979 0.504811 0.825200 0.258928
F2    F     F_    0.293943 0.655029 0.322087 -0.582929
O10   O     O_3   0.093243 0.703808 0.262563 -0.552046
C39   C     C_3   0.064898 0.642943 0.175926 0.140204
H15   H     H_    0.988347 0.591255 0.180832 0.119041
H16   H     H_    0.129055 0.595901 0.162820 0.147351
C40   C     C_3   0.049738 0.712595 0.087560 -0.795226
H17   H     H_    0.125170 0.764480 0.080033 0.270872
H18   H     H_    0.027626 0.665378 0.018951 0.185026
H19   H     H_    0.985001 0.759540 0.097420 0.255933
O11   O     O_3   0.242973 0.389667 0.600360 -0.554085
C41   C     C_3   0.244460 0.327184 0.686219 0.062860
H20   H     H_    0.165956 0.278241 0.689245 0.159438
H21   H     H_    0.266026 0.376224 0.753913 0.138928
C42   C     C_3   0.326669 0.253491 0.686094 -0.772321
H22   H     H_    0.407218 0.295671 0.679137 0.261303
H23   H     H_    0.330096 0.211142 0.756860 0.204055
H24   H     H_    0.302283 0.196513 0.625261 0.243260
O12   O     O_3   0.360716 0.886049 0.251819 -0.534207
C43   C     C_3   0.424657 0.924027 0.177196 0.138666
H25   H     H_    0.501658 0.891464 0.183353 0.173033
H26   H     H_    0.441765 0.009475 0.181057 0.109214
C44   C     C_3   0.364947 0.893120 0.076580 -0.810855
H27   H     H_    0.287919 0.925147 0.067545 0.249837
H28   H     H_    0.413991 0.923279 0.017160 0.195699
H29   H     H_    0.348650 0.808038 0.069729 0.268978
F3    F     F_    0.538838 0.170169 0.595311 -0.691939
O13   O     O_3   0.709942 0.753243 0.676983 -0.597516
C45   C     C_3   0.817063 0.777352 0.656211 0.183053
H30   H     H_    0.850691 0.856936 0.681552 0.155558
H31   H     H_    0.823326 0.769435 0.575477 0.138711
C46   C     C_3   0.883863 0.703190 0.710685 -0.832584
H32   H     H_    0.851017 0.623317 0.687764 0.256801
H33   H     H_    0.967920 0.719091 0.692803 0.204344
H34   H     H_    0.882269 0.711552 0.791773 0.256013
O14   O     O_3   0.672828 0.924123 0.778471 -0.582848
C47   C     C_3   0.600154 0.872269 0.839833 0.123452
H35   H     H_    0.582765 0.788655 0.821056 0.164951
H36   H     H_    0.523813 0.906039 0.833091 0.115800
C48   C     C_3   0.648776 0.883133 0.946968 -0.793414
H37   H     H_    0.664525 0.965533 0.969295 0.253444
H38   H     H_    0.592624 0.841749 0.995699 0.205674
H39   H     H_    0.725077 0.849817 0.956046 0.263661

loop_
_geom_bond_atom_site_label_1
_geom_bond_atom_site_label_2
_ccdc_geom_bond_type
C2    C35   T    
C38   H13   S    
O13   C45   S    
C34   H1    S    
C19   C20   A    
C18   C26   A    
C2    C12   S    
C12   O4    A    
C46   H32   S    
C7    C8    A    
C41   H20   S    
C48   H38   S    
C13   O12   S    
C26   C27   A    
O14   C47   S    
C37   C38   S    
C33   H6    S    
C32   C36   T    
C10   C15   A    
C42   H24   S    
C5    C6    A    
C19   N2    A    
C43   C44   S    
C5    C17   A    
C33   C36   S    
O2    Zn2   S    
C30   H2    S    
C47   C48   S    
C37   H11   S    
C34   C35   S    
C6    O14   S    
C39   H16   S    
C15   F3    S    
O4    Zn2   S    
C27   H3    S    
C8    C9    A    
C22   C25   A    
C19   F2    S    
C18   C30   A    
C40   H17   S    
C44   H27   S    
C41   H21   S    
C38   H14   S    
O9    C37   S    
C21   C22   A    
C47   H35   S    
C40   H19   S    
C46   H33   S    
C30   N1    A    
C23   O6    A    
C43   H26   S    
C25   C29   A    
C14   F1    S    
C48   H39   S    
O7    Zn1   S    
C3    H8    S    
O11   C41   S    
C42   H23   S    
C4    C23   S    
O6    Zn2   S    
O10   C39   S    
C45   C46   S    
C25   C26   A    
C43   H25   S    
O3    Zn1   S    
C37   H10   S    
C4    C16   A    
C39   C40   S    
C47   H36   S    
C9    C14   A    
N2    Zn2   S    
C5    O13   S    
C31   C32   S    
C44   H29   S    
C33   C34   D    
O12   C43   S    
C45   H31   S    
C16   H7    S    
C21   H5    S    
C40   H18   S    
C44   H28   S    
O8    Zn2   S    
C22   C24   A    
C28   O11   S    
C7    H9    S    
C46   H34   S    
C41   C42   S    
C9    C17   A    
O1    Zn1   S    
C24   N2    A    
C20   O10   S    
C24   C28   A    
C42   H22   S    
C12   O3    A    
C1    O1    A    
C6    C7    A    
C48   H37   S    
C1    C17   S    
C29   N1    A    
C4    C15   A    
C11   C13   A    
C23   O5    A    
C29   H4    S    
C31   O7    A    
C45   H30   S    
C39   H15   S    
C3    C11   A    
C10   C11   A    
C38   H12   S    
C18   O9    S    
C20   C21   A    
C8    C10   A    
N1    Zn1   S    
C27   C28   A    
C31   O8    A    
C13   C14   A    
C1    O2    A    
C3    C16   A    
O5    Zn1   S    
