data_mof_unit_36698.cif
_audit_creation_date              2012-10-26T20:02:31-0400
_audit_creation_method            fapswitch 2.2
_symmetry_space_group_name_H-M    P1
_symmetry_Int_Tables_number       1
_space_group_crystal_system       triclinic
_cell_length_a                    19.052212
_cell_length_b                    18.491938
_cell_length_c                    12.385061
_cell_angle_alpha                 90.680126
_cell_angle_beta                  129.985942
_cell_angle_gamma                 89.842853
_cell_volume                      3342.95025695

loop_
_atom_site_label
_atom_site_type_symbol
_atom_type_description
_atom_site_fract_x
_atom_site_fract_y
_atom_site_fract_z
_atom_type_partial_charge
C1    C     C_R   0.610468 0.896505 0.650624 0.548168
C2    C     C_R   0.680333 0.752501 0.062498 0.093862
C3    C     C_R   0.157920 0.810245 0.957286 0.111251
C4    C     C_R   0.180411 0.252574 0.062617 0.093872
C5    C     C_R   0.584508 0.287307 0.819631 0.269580
C6    C     C_R   0.601571 0.787046 0.947883 0.239215
C7    C     C_R   0.084539 0.787362 0.819541 0.269532
C8    C     C_R   0.101652 0.287141 0.948045 0.239198
C9    C     C_R   0.598603 0.232070 0.757405 -0.080447
C10   C     C_R   0.597049 0.807118 0.835007 -0.094352
C11   C     C_R   0.098631 0.732102 0.757348 -0.080425
C12   C     C_R   0.618244 0.096747 0.661267 0.538059
C13   C     C_R   0.097072 0.307164 0.835094 -0.094371
C14   C     C_R   0.317678 0.803688 0.167698 -0.133081
C15   C     C_R   0.318899 0.187998 0.154955 -0.124440
C16   C     C_R   0.817678 0.303683 0.167713 -0.133088
C17   C     C_R   0.818925 0.688040 0.155027 -0.124410
C18   C     C_R   0.216456 0.885519 0.162015 -0.132922
C19   C     C_R   0.253079 0.177124 0.268019 -0.137905
C20   C     C_R   0.716457 0.385488 0.162082 -0.132978
C21   C     C_R   0.752970 0.677021 0.267855 -0.137933
C22   C     C_R   0.697928 0.142023 0.769339 -0.049400
C23   C     C_R   0.110451 0.396495 0.650603 0.548216
C24   C     C_R   0.674330 0.836364 0.738576 -0.052812
C25   C     C_R   0.197941 0.642006 0.769359 -0.049378
C26   C     C_R   0.174272 0.336322 0.738493 -0.052802
C27   C     C_R   0.688002 0.981446 0.296265 -0.046587
C28   C     C_R   0.187990 0.481393 0.296253 -0.046581
C29   C     C_R   0.342302 0.998186 0.624124 0.340292
C30   C     C_R   0.842302 0.498193 0.624121 0.340309
C31   C     C_R   0.308246 0.986848 0.695733 0.262737
C32   C     C_R   0.808241 0.486869 0.695726 0.262727
C33   C     C_R   0.385461 0.099899 0.344550 0.546760
C34   C     C_R   0.118245 0.596746 0.661269 0.538072
C35   C     C_R   0.383384 0.901911 0.340740 0.541014
C36   C     C_R   0.885456 0.599896 0.344544 0.546754
C37   C     C_R   0.883385 0.401910 0.340744 0.541010
C38   C     C_R   0.369505 0.973875 0.840189 0.310929
C39   C     C_R   0.869497 0.473896 0.840182 0.310888
C40   C     C_R   0.464818 0.988601 0.921095 -0.044614
C41   C     C_R   0.964813 0.488609 0.921091 -0.044663
C42   C     C_R   0.495946 0.996327 0.843770 0.059774
C43   C     C_R   0.995944 0.496327 0.843769 0.059711
C44   C     C_R   0.530246 0.992633 0.073996 0.031848
C45   C     C_R   0.247618 0.783227 0.026282 -0.008724
C46   C     C_R   0.030241 0.492633 0.073993 0.031871
C47   C     C_R   0.625828 0.986743 0.146132 -0.013113
C48   C     C_R   0.125820 0.486722 0.146126 -0.013054
C49   C     C_R   0.654499 0.988606 0.064930 -0.042880
C50   C     C_R   0.154495 0.488599 0.064931 -0.042848
C51   C     C_R   0.590606 0.996935 0.919258 -0.085277
C52   C     C_R   0.090605 0.496932 0.919259 -0.085292
C53   C     C_R   0.503950 0.005420 0.157544 0.378551
C54   C     C_R   0.003951 0.505429 0.157546 0.378525
C55   C     C_R   0.655592 0.987668 0.369812 0.036996
C56   C     C_R   0.254284 0.240071 0.063393 -0.020783
C57   C     C_R   0.155585 0.487634 0.369806 0.037008
C58   C     C_R   0.643214 0.360197 0.027658 -0.053749
C59   C     C_R   0.683179 0.723963 0.170025 -0.062621
C60   C     C_R   0.143225 0.860247 0.027565 -0.053690
C61   C     C_R   0.183310 0.224093 0.170232 -0.062552
C62   C     C_R   0.304267 0.858665 0.230232 -0.002384
C63   C     C_R   0.318773 0.156448 0.256338 -0.016395
C64   C     C_R   0.804272 0.358657 0.230256 -0.002376
C65   C     C_R   0.818747 0.656430 0.256310 -0.016403
C66   C     C_R   0.787037 0.117604 0.831848 -0.075357
C67   C     C_R   0.747605 0.283212 0.026310 -0.008733
C68   C     C_R   0.742949 0.814877 0.731832 -0.057088
C69   C     C_R   0.287046 0.617551 0.831924 -0.075324
C70   C     C_R   0.242808 0.314755 0.731603 -0.057075
C71   C     C_R   0.364064 0.657822 0.942896 0.313628
C72   C     C_R   0.324625 0.284080 0.851442 0.303473
C73   C     C_R   0.864044 0.157890 0.942790 0.313549
C74   C     C_R   0.824785 0.784276 0.851763 0.303449
C75   C     C_R   0.352585 0.716909 0.001416 0.303345
C76   C     C_R   0.334701 0.273065 0.971904 0.301959
C77   C     C_R   0.852565 0.216945 0.001370 0.303308
C78   C     C_R   0.754273 0.740081 0.063411 -0.020770
C79   C     C_R   0.834782 0.773219 0.972146 0.301996
C80   C     C_R   0.763494 0.235130 0.953248 -0.034912
C81   C     C_R   0.756084 0.773412 0.962488 -0.038896
C82   C     C_R   0.263512 0.735126 0.953248 -0.034914
C83   C     C_R   0.256057 0.273352 0.962392 -0.038913
C84   C     C_R   0.686342 0.202991 0.825960 -0.057714
C85   C     C_R   0.675300 0.806237 0.844770 -0.057173
C86   C     C_R   0.186362 0.702995 0.825948 -0.057712
C87   C     C_R   0.175279 0.306219 0.844739 -0.057176
C88   C     C_1   0.749332 0.986548 0.124748 0.196223
C89   C     C_R   0.657901 0.310203 0.957357 0.111239
C90   C     C_1   0.249331 0.486570 0.124762 0.196225
C91   C     C_1   0.784693 0.966714 0.380980 0.222638
C92   C     C_1   0.284662 0.466570 0.380944 0.222637
C93   C     C_1   0.800313 0.048819 0.790070 0.199903
C94   C     C_1   0.730417 0.824158 0.604467 0.236424
C95   C     C_1   0.300289 0.548753 0.790146 0.199810
C96   C     C_1   0.230215 0.324035 0.604186 0.236396
Cu1   Cu    Cu3+1 0.526340 1.000000 0.421010 1.001708
Cu2   Cu    Cu3+1 0.026340 0.500000 0.421010 1.001752
Cu3   Cu    Cu3+1 0.473640 0.000000 0.578990 0.983934
Cu4   Cu    Cu3+1 0.973640 0.500000 0.578990 0.983926
H1    H     H_    0.205535 0.929160 0.208815 0.151380
H2    H     H_    0.129556 0.235137 0.175198 0.228180
H3    H     H_    0.384858 0.779738 0.230795 0.166315
H4    H     H_    0.366625 0.168178 0.142391 0.218925
H5    H     H_    0.884865 0.279744 0.230792 0.166321
H6    H     H_    0.866728 0.668289 0.142579 0.218874
H7    H     H_    0.540369 0.212733 0.653406 0.119166
H8    H     H_    0.530442 0.821108 0.738105 0.145178
H9    H     H_    0.040404 0.712769 0.653340 0.119146
H10   H     H_    0.030452 0.321163 0.738228 0.145193
H11   H     H_    0.702206 0.982697 0.483056 0.173697
H12   H     H_    0.252359 0.153843 0.347143 0.173801
H13   H     H_    0.202196 0.482638 0.483046 0.173686
H14   H     H_    0.392809 0.002016 0.128175 0.368505
H15   H     H_    0.892806 0.502029 0.128165 0.368507
H16   H     H_    0.228406 0.973956 0.437805 0.313542
H17   H     H_    0.728403 0.473967 0.437802 0.313504
H18   H     H_    0.383218 0.909335 0.972883 0.306947
H19   H     H_    0.883193 0.409363 0.972869 0.306955
H20   H     H_    0.183131 0.016040 0.545057 0.327468
H21   H     H_    0.683132 0.516072 0.545048 0.327458
H22   H     H_    0.455871 0.296806 0.652880 0.330533
H23   H     H_    0.705538 0.429124 0.208894 0.151351
H24   H     H_    0.478252 0.821765 0.856182 0.321714
H25   H     H_    0.955922 0.796892 0.652740 0.330579
H26   H     H_    0.978374 0.321924 0.856465 0.321690
H27   H     H_    0.411016 0.809121 0.086003 0.313597
H28   H     H_    0.425039 0.284824 0.174000 0.323445
H29   H     H_    0.910977 0.309160 0.085971 0.313592
H30   H     H_    0.925007 0.785001 0.174246 0.323485
H31   H     H_    0.451892 0.606399 0.937284 0.331576
H32   H     H_    0.380367 0.268295 0.764676 0.342860
H33   H     H_    0.951824 0.106678 0.936827 0.331570
H34   H     H_    0.752205 0.653689 0.346896 0.173873
H35   H     H_    0.880700 0.768671 0.765224 0.343049
H36   H     H_    0.618143 0.002230 0.867311 0.189006
H37   H     H_    0.118143 0.502232 0.867314 0.189007
H38   H     H_    0.575843 0.382117 0.976949 0.202898
H39   H     H_    0.629368 0.734939 0.174885 0.228271
H40   H     H_    0.075857 0.882187 0.976824 0.202941
N1    N     N_R   0.566260 0.000000 0.302220 -0.248352
N2    N     N_1   0.720659 0.830607 0.502713 -0.290710
N3    N     N_1   0.311870 0.493662 0.758664 -0.285784
N4    N     N_1   0.220406 0.330483 0.502389 -0.290791
N5    N     N_R   0.066260 0.500000 0.302220 -0.248336
N6    N     N_R   0.434410 1.000000 0.697680 -0.237607
N7    N     N_R   0.934410 0.500000 0.697680 -0.237610
N8    N     N_1   0.824774 0.984980 0.170624 -0.250003
N9    N     N_1   0.324777 0.485027 0.170650 -0.250029
N10   N     N_1   0.862186 0.954696 0.450293 -0.214248
N11   N     N_1   0.362138 0.454476 0.450233 -0.214316
N12   N     N_1   0.811926 0.993740 0.758588 -0.285769
O1    O     O_R   0.608610 0.924520 0.551740 -0.482380
O2    O     O_R   0.435880 0.924530 0.314850 -0.526920
O3    O     O_R   0.935880 0.575470 0.314850 -0.492689
O4    O     O_R   0.935880 0.424530 0.314850 -0.526919
O5    O     O_R   0.391380 0.075460 0.448260 -0.446245
O6    O     O_R   0.391380 0.924540 0.448260 -0.454943
O7    O     O_R   0.891380 0.575460 0.448260 -0.446237
O8    O     O_R   0.891380 0.424540 0.448260 -0.454958
O9    O     O_3   0.417671 0.030989 0.093051 -0.643457
O10   O     O_3   0.917678 0.531009 0.093061 -0.643457
O11   O     O_3   0.284887 0.002152 0.479316 -0.666822
O12   O     O_R   0.608610 0.075480 0.551740 -0.482489
O13   O     O_3   0.784888 0.502156 0.479312 -0.666869
O14   O     O_3   0.333985 0.939229 0.893678 -0.612914
O15   O     O_3   0.833968 0.439263 0.893667 -0.612921
O16   O     O_3   0.215757 0.983509 0.627065 -0.628874
O17   O     O_3   0.715752 0.483541 0.627055 -0.628891
O18   O     O_3   0.499368 0.318461 0.748809 -0.683609
O19   O     O_3   0.527130 0.795045 0.942410 -0.675826
O20   O     O_3   0.999414 0.818552 0.748667 -0.683821
O21   O     O_3   0.027263 0.295208 0.942688 -0.675852
O22   O     O_3   0.429893 0.758093 0.097977 -0.640654
O23   O     O_R   0.108610 0.424520 0.551740 -0.482376
O24   O     O_3   0.422777 0.264808 0.097163 -0.635171
O25   O     O_3   0.929866 0.258137 0.097924 -0.640596
O26   O     O_3   0.922832 0.765019 0.097478 -0.635209
O27   O     O_3   0.452660 0.641328 0.999135 -0.622517
O28   O     O_3   0.398957 0.268315 0.859697 -0.613167
O29   O     O_3   0.952630 0.141429 0.998946 -0.622379
O30   O     O_3   0.899205 0.768625 0.860185 -0.613315
O31   O     O_R   0.108610 0.575480 0.551740 -0.482452
O32   O     O_R   0.564110 0.924510 0.685150 -0.540435
O33   O     O_R   0.564110 0.075490 0.685150 -0.521439
O34   O     O_R   0.064110 0.424510 0.685150 -0.540449
O35   O     O_R   0.064110 0.575490 0.685150 -0.521431
O36   O     O_R   0.435880 0.075470 0.314850 -0.492714

loop_
_geom_bond_atom_site_label_1
_geom_bond_atom_site_label_2
_ccdc_geom_bond_type
Cu1   O36   S    
H21   O17   S    
C32   O17   S    
C10   C85   A    
C95   N3    T    
C8    C13   A    
C55   N1    A    
C57   N5    A    
C11   H9    S    
C29   O11   S    
H16   O11   S    
C83   C87   A    
C45   C82   A    
C37   O4    A    
C35   O2    A    
C80   C84   A    
C30   N7    A    
C39   C41   A    
C28   C57   A    
C7    C11   A    
C37   O8    A    
C38   C40   A    
C21   C59   A    
C3    C7    A    
C27   C55   A    
C43   C52   A    
C23   C26   S    
C23   O34   A    
C23   O23   A    
C11   C86   A    
C68   C74   A    
C14   C62   A    
C12   C22   S    
C67   C89   A    
C32   C39   A    
C71   O27   S    
Cu2   O31   S    
C69   C71   A    
H25   O20   S    
C22   C66   A    
C20   H23   S    
H30   O26   S    
C36   O7    A    
C10   H8    S    
C44   C53   A    
C50   C90   S    
H17   O13   S    
C26   C87   A    
C49   C51   A    
C50   C52   A    
C41   C46   A    
C27   C91   S    
Cu1   O1    S    
C15   H4    S    
C35   C62   S    
C24   C85   A    
C1    C24   S    
C44   C47   A    
C4    C8    A    
C42   C51   A    
C21   C65   A    
C3    C60   A    
C58   H38   S    
H27   O22   S    
C40   C42   A    
C71   C75   A    
C7    O20   S    
C4    C56   A    
C75   O22   S    
C41   C43   A    
C49   C88   S    
C13   C87   A    
C2    C6    A    
C90   N9    T    
C76   C83   A    
Cu1   Cu3   S    
C1    O32   A    
C33   O5    A    
C14   C45   A    
Cu2   O4    S    
C6    O19   S    
C5    C89   A    
C46   C48   A    
H28   O24   S    
C5    O18   S    
C94   N2    T    
C76   O24   S    
Cu4   O35   S    
C47   C49   A    
C19   C63   A    
C29   N6    A    
C79   C81   A    
H31   O27   S    
C2    C59   A    
C18   C62   A    
H14   O9    S    
C57   H13   S    
H22   O18   S    
C19   H12   S    
C66   C73   A    
H29   O25   S    
C4    C61   A    
C3    C45   A    
C77   O25   S    
C18   H1    S    
C22   C84   A    
C20   C64   A    
C70   C96   S    
C5    C9    A    
C13   H10   S    
C2    C78   A    
C96   N4    T    
C73   O29   S    
C51   H36   S    
Cu4   O8    S    
C59   H39   S    
C33   C63   S    
Cu1   O12   S    
C46   C54   A    
C92   N11   T    
C52   H37   S    
C88   N8    T    
C79   O26   S    
C34   O31   A    
C28   C92   S    
C16   C67   A    
Cu1   O2    S    
C54   O10   S    
C1    O1    A    
Cu1   N1    S    
Cu3   O32   S    
H26   O21   S    
C16   H5    S    
C60   H40   S    
C54   N5    A    
H33   O29   S    
Cu3   N6    S    
H32   O28   S    
Cu2   Cu4   S    
C74   C79   A    
C66   C93   S    
C26   C70   A    
C25   C86   A    
C25   C69   A    
C72   O28   S    
C20   C58   A    
C42   N6    A    
H19   O15   S    
C21   H34   S    
Cu3   O33   S    
C37   C64   S    
H20   O16   S    
C56   C83   A    
C77   C80   A    
C27   C47   A    
C38   O14   S    
Cu2   O3    S    
C28   C48   A    
C73   C77   A    
C55   H11   S    
C8    O21   S    
C67   C80   A    
C30   O13   S    
C69   C95   S    
C6    C10   A    
C91   N10   T    
C75   C82   A    
C74   O30   S    
Cu2   N5    S    
C9    H7    S    
C16   C64   A    
C25   C34   S    
C17   C65   A    
C31   C38   A    
Cu4   O34   S    
C15   C56   A    
C36   C65   S    
H15   O10   S    
Cu3   O5    S    
C61   H2    S    
C35   O6    A    
C29   C31   A    
C82   C86   A    
C17   H6    S    
C30   C32   A    
Cu2   O23   S    
Cu4   O7    S    
C53   O9    S    
C14   H3    S    
H24   O19   S    
C12   O12   A    
C19   C61   A    
C72   C76   A    
C12   O33   A    
C48   C50   A    
C17   C78   A    
H18   O14   S    
C33   O36   A    
C53   N1    A    
C78   C81   A    
C39   O15   S    
C34   O35   A    
C58   C89   A    
C68   C94   S    
C43   N7    A    
C24   C68   A    
C9    C84   A    
C40   C44   A    
C31   O16   S    
C18   C60   A    
Cu3   O6    S    
C15   C63   A    
C93   N12   T    
C70   C72   A    
Cu4   N7    S    
H35   O30   S    
C81   C85   A    
C36   O3    A    
