data_mof_unit_21712.cif
_audit_creation_date              2013-03-05T16:14:05-0500
_audit_creation_method            fapswitch 2.2
_symmetry_space_group_name_H-M    P1
_symmetry_Int_Tables_number       1
_space_group_crystal_system       triclinic
_cell_length_a                    9.786306
_cell_length_b                    10.82713
_cell_length_c                    16.477242
_cell_angle_alpha                 89.051281
_cell_angle_beta                  91.435468
_cell_angle_gamma                 88.53517
_cell_volume                      1744.51248889

loop_
_atom_site_label
_atom_site_type_symbol
_atom_site_description
_atom_site_fract_x
_atom_site_fract_y
_atom_site_fract_z
_atom_type_partial_charge
O1    O     O_R   0.614620 0.316750 0.500010 -0.615569
O2    O     O_R   0.385380 0.683250 0.499990 -0.633309
O3    O     O_R   0.385290 0.316780 0.500000 -0.622450
O4    O     O_R   0.614710 0.683220 0.500000 -0.629576
C1    C     C_R   0.502459 0.259526 0.501432 0.919632
C2    C     C_R   0.497603 0.740366 0.499031 0.867559
O5    O     O_R   0.627460 0.498830 0.616130 -0.634194
O6    O     O_R   0.372540 0.501170 0.383870 -0.630205
O7    O     O_R   0.398130 0.498850 0.616130 -0.570497
O8    O     O_R   0.601870 0.501150 0.383870 -0.585231
C3    C     C_R   0.513782 0.502290 0.654760 0.948526
C4    C     C_R   0.486375 0.498988 0.345764 0.962235
Zn1   Zn    Zn3+2 0.653130 0.499980 0.500000 0.978230
Zn2   Zn    Zn3+2 0.346870 0.500020 0.500000 0.982398
C5    C     C_R   0.512519 0.537367 0.740682 -0.235299
C6    C     C_R   0.490322 0.508120 0.257732 -0.218822
C7    C     C_R   0.390468 0.533347 0.784980 0.309755
C8    C     C_R   0.594272 0.443924 0.217067 0.297105
C9    C     C_R   0.382503 0.593602 0.859822 -0.097000
C10   C     C_R   0.623891 0.477629 0.136821 -0.053194
C11   C     C_R   0.499804 0.649789 0.892304 0.162100
C12   C     C_R   0.546527 0.573612 0.097043 0.134931
C13   C     C_R   0.621980 0.652915 0.848732 0.292364
C14   C     C_R   0.442174 0.638264 0.139300 0.320157
C15   C     C_R   0.626526 0.596806 0.773170 -0.341031
C16   C     C_R   0.413471 0.601853 0.218283 -0.359858
N1    N     N_2   0.503020 0.671163 0.976082 -0.062006
N2    N     N_2   0.558479 0.580490 0.011656 -0.170974
H1    H     H_    0.718730 0.602736 0.738443 0.230737
H2    H     H_    0.336599 0.652928 0.250835 0.190011
C17   C     C_R   0.382048 0.070825 0.486002 -0.216418
C18   C     C_R   0.616983 0.928538 0.519793 -0.233102
H3    H     H_    0.291040 0.126577 0.471142 0.169533
H4    H     H_    0.708987 0.873007 0.532808 0.173357
C19   C     C_R   0.372848 0.944331 0.483119 0.109132
C20   C     C_R   0.627290 0.055064 0.519516 0.105103
C21   C     C_R   0.493376 0.872691 0.500615 -0.069981
C22   C     C_R   0.506386 0.126875 0.502961 -0.063016
C23   C     C_R   0.067809 0.554218 0.437555 -0.089970
C24   C     C_R   0.932170 0.445128 0.562303 -0.076001
H5    H     H_    0.119345 0.595863 0.387260 0.152497
H6    H     H_    0.880902 0.399994 0.611560 0.150512
C25   C     C_R   0.923600 0.554538 0.437626 -0.040255
C26   C     C_R   0.076333 0.443472 0.561508 -0.009367
H7    H     H_    0.865272 0.597793 0.387775 0.147560
H8    H     H_    0.134593 0.395166 0.609117 0.206610
N3    N     N_R   0.857210 0.499970 0.500020 -0.090144
N4    N     N_R   0.142790 0.500030 0.499980 -0.096043
N5    N     N_R   0.666869 0.342409 0.257119 0.200279
O9    O     O_R   0.599561 0.248347 0.283436 -0.434274
O10   O     O_R   0.794609 0.352934 0.279109 -0.425048
N6    N     N_R   0.277028 0.463746 0.755772 0.198565
O11   O     O_R   0.159420 0.518298 0.739241 -0.418567
O12   O     O_R   0.293320 0.346346 0.742018 -0.427399
C27   C     C_3   0.733838 0.407219 0.091423 -0.365860
C28   C     C_3   0.676512 0.290416 0.053525 -0.341425
C29   C     C_3   0.785330 0.221541 0.005827 -0.767414
H9    H     H_    0.821748 0.281177 0.955715 0.256735
H10   H     H_    0.873396 0.193454 0.046446 0.270144
H11   H     H_    0.741214 0.137298 0.979314 0.282971
H12   H     H_    0.639487 0.227943 0.101980 0.268525
H13   H     H_    0.588838 0.315784 0.011790 0.230678
H14   H     H_    0.776323 0.466740 0.043076 0.224407
H15   H     H_    0.822477 0.382597 0.132241 0.244157
C30   C     C_3   0.252335 0.591144 0.908716 -0.299751
C31   C     C_3   0.234886 0.465630 0.951464 -0.339255
C32   C     C_3   0.103920 0.464664 0.999898 -0.793709
H16   H     H_    0.106731 0.536161 0.047429 0.289874
H17   H     H_    0.013316 0.482538 0.959020 0.284077
H18   H     H_    0.093724 0.372873 0.029887 0.246957
H19   H     H_    0.230592 0.390838 0.906295 0.267595
H20   H     H_    0.323458 0.445485 0.993513 0.222929
H21   H     H_    0.252866 0.664415 0.955026 0.246003
H22   H     H_    0.161859 0.614955 0.869256 0.271853
N7    N     N_R   0.742183 0.710295 0.881608 0.218370
O13   O     O_R   0.862125 0.684265 0.853007 -0.394576
O14   O     O_R   0.732107 0.794044 0.937052 -0.338741
N8    N     N_R   0.367991 0.743550 0.105205 0.208059
O15   O     O_R   0.235861 0.751642 0.111860 -0.413552
O16   O     O_R   0.433741 0.842607 0.086481 -0.338070
C33   C     C_3   0.235221 0.894765 0.455631 -0.407796
C34   C     C_3   0.238059 0.854102 0.366876 -0.335150
C35   C     C_3   0.094436 0.852160 0.328410 -0.838892
H23   H     H_    0.024120 0.801016 0.367766 0.240143
H24   H     H_    0.053334 0.948025 0.319113 0.270550
H25   H     H_    0.098353 0.806897 0.268511 0.287442
H26   H     H_    0.299944 0.918290 0.330370 0.251664
H27   H     H_    0.286234 0.760740 0.364229 0.223152
H28   H     H_    0.200007 0.820425 0.496484 0.228513
H29   H     H_    0.154432 0.967777 0.460632 0.201658
C36   C     C_3   0.771124 0.104004 0.529010 -0.421859
C37   C     C_3   0.836650 0.112143 0.445352 -0.270568
C38   C     C_3   0.972796 0.177405 0.448131 -0.832878
H30   H     H_    0.954150 0.278427 0.446270 0.286071
H31   H     H_    0.033778 0.150825 0.503725 0.239473
H32   H     H_    0.032361 0.153329 0.393900 0.254871
H33   H     H_    0.853902 0.016977 0.422637 0.208415
H34   H     H_    0.766658 0.162295 0.401386 0.297342
H35   H     H_    0.775109 0.191558 0.562486 0.226382
H36   H     H_    0.835184 0.039263 0.567967 0.190398

loop_
_geom_bond_atom_site_label_1
_geom_bond_atom_site_label_2
_geom_bond_distance
_ccdc_geom_bond_type
C24   N3    1.365195 A    
C27   C28   1.532608 S    
C38   H30   1.104079 S    
O7    Zn2   1.965726 S    
C33   C34   1.534945 S    
C19   C33   1.523682 S    
C37   H34   1.109908 S    
C23   H5    1.079194 S    
O5    C3    1.295502 A    
O1    C1    1.274681 A    
C18   C20   1.376127 A    
C19   C21   1.415918 A    
C14   C16   1.391042 A    
N8    O16   1.301444 A    
C5    C15   1.401328 A    
C34   H26   1.112443 S    
C30   H21   1.109823 S    
C28   C29   1.525977 S    
O4    Zn1   2.009810 S    
N7    O14   1.301510 A    
C3    C5    1.472141 S    
C31   H20   1.110932 S    
C35   H23   1.109339 S    
C26   H8    1.078308 S    
N5    O10   1.301150 A    
C27   H14   1.111799 S    
C17   H3    1.083617 S    
C36   H36   1.113040 S    
C8    C10   1.405026 A    
C33   H28   1.107968 S    
C24   H6    1.081229 S    
C31   C32   1.526876 S    
C11   N1    1.403183 S    
C38   H31   1.110494 S    
C12   N2    1.415597 S    
C1    C22   1.435548 S    
C6    C16   1.390228 A    
O2    C2    1.274401 A    
C10   C27   1.521743 S    
C7    N6    1.435261 S    
N6    O12   1.301333 A    
C37   H33   1.112343 S    
C15   H1    1.083220 S    
C32   H16   1.110613 S    
C4    C6    1.453806 S    
O4    C2    1.288021 A    
C36   C37   1.536970 S    
Zn1   N3    1.997178 S    
N8    O15   1.301290 A    
C29   H11   1.110423 S    
Zn2   N4    1.997178 S    
C34   C35   1.528079 S    
C30   H22   1.107754 S    
C32   H17   1.110990 S    
C18   H4    1.084681 S    
N7    O13   1.301726 A    
C25   H7    1.081651 S    
C31   H19   1.109765 S    
O5    Zn1   1.936029 S    
O6    C4    1.292298 A    
C27   H15   1.108556 S    
C2    C21   1.432927 S    
C18   C21   1.397610 A    
O7    C3    1.286219 A    
O3    Zn2   2.009812 S    
O8    C4    1.280060 A    
C33   H29   1.109164 S    
C20   C36   1.521982 S    
C14   N8    1.434630 S    
C35   H24   1.110355 S    
C10   C12   1.412503 A    
C16   H2    1.080837 S    
C38   H32   1.110075 S    
C11   C13   1.410832 A    
N5    O9    1.301183 A    
C28   H13   1.112048 S    
O1    Zn1   2.028777 S    
N6    O11   1.300747 A    
C5    C7    1.416552 A    
O6    Zn2   1.936029 S    
C9    C11   1.410678 A    
C13   N7    1.442142 S    
O3    C1    1.288972 A    
O8    Zn1   1.965726 S    
C23   C25   1.411222 A    
C17   C22   1.397616 A    
C32   H18   1.110454 S    
C20   C22   1.417284 A    
C29   H9    1.111113 S    
C34   H27   1.106392 S    
C17   C19   1.376344 A    
C37   C38   1.524049 S    
C7    C9    1.407581 A    
C9    C30   1.524773 S    
C12   C14   1.425807 A    
C13   C15   1.395575 A    
O2    Zn2   2.028774 S    
C29   H10   1.110932 S    
C24   C26   1.410864 A    
C35   H25   1.110259 S    
C6    C8    1.407255 A    
C30   C31   1.535668 S    
N1    N2    1.240838 D    
C28   H12   1.111479 S    
C36   H35   1.105684 S    
C25   N3    1.364227 A    
C26   N4    1.363320 A    
C8    N5    1.435591 S    
C23   N4    1.364127 A    
