data_mof_unit_67693.cif
_audit_creation_date              2012-12-10T19:48:30-0500
_audit_creation_method            fapswitch 2.2
_symmetry_space_group_name_H-M    P1
_symmetry_Int_Tables_number       1
_space_group_crystal_system       triclinic
_cell_length_a                    11.480478
_cell_length_b                    10.667574
_cell_length_c                    9.880846
_cell_angle_alpha                 91.79562
_cell_angle_beta                  90.357688
_cell_angle_gamma                 94.055174
_cell_volume                      1206.43011384

loop_
_atom_site_label
_atom_site_type_symbol
_atom_type_description
_atom_site_fract_x
_atom_site_fract_y
_atom_site_fract_z
_atom_type_partial_charge
C1    C     C_R   0.500343 0.261567 0.498771 0.840146
C2    C     C_R   0.498129 0.738444 0.501269 0.841790
C3    C     C_R   0.873087 0.508772 0.503830 -0.150932
C4    C     C_R   0.126982 0.490782 0.495763 -0.149069
C5    C     C_R   0.939895 0.479021 0.616339 0.076098
C6    C     C_R   0.060223 0.520379 0.383085 0.076700
C7    C     C_3   0.528964 0.047913 0.621522 0.108042
C8    C     C_3   0.467478 0.952634 0.378930 0.138371
C9    C     C_3   0.605923 0.966187 0.532652 0.124490
C10   C     C_3   0.390825 0.034299 0.467564 0.177962
C11   C     C_3   0.496907 0.875270 0.502246 -0.185379
C12   C     C_3   0.499368 0.124856 0.498117 -0.160862
C13   C     C_3   0.421741 0.957876 0.591133 0.068478
C14   C     C_3   0.574295 0.042709 0.409270 0.055739
C15   C     C_3   0.590720 0.561558 0.053367 -0.052628
C16   C     C_3   0.409391 0.438261 0.946677 -0.054482
C17   C     C_3   0.502139 0.610222 0.956778 0.260831
C18   C     C_3   0.498039 0.389598 0.043347 0.250169
C19   C     C_3   0.589024 0.448506 0.947480 -0.045476
C20   C     C_3   0.411036 0.551356 0.052486 -0.046246
C21   C     C_R   0.262701 0.495434 0.498603 0.801231
C22   C     C_R   0.737325 0.504451 0.501326 0.803594
C23   C     C_R   0.145609 0.449037 0.027680 0.029515
C24   C     C_R   0.854835 0.550236 0.971549 0.032255
C25   C     C_R   0.124903 0.516082 0.148891 0.146878
C26   C     C_R   0.875370 0.483262 0.850341 0.146502
C27   C     C_R   0.083338 0.449906 0.259561 -0.000540
C28   C     C_R   0.916999 0.549499 0.739721 -0.006130
C29   C     C_R   0.049579 0.319109 0.247419 0.102990
C30   C     C_R   0.950979 0.680291 0.751782 0.107527
C31   C     C_R   0.072500 0.252644 0.127953 0.140528
C32   C     C_R   0.928179 0.746645 0.871254 0.141249
C33   C     C_R   0.130707 0.313703 0.022595 0.185439
C34   C     C_R   0.870022 0.685472 0.976548 0.186849
C35   C     C_R   0.942136 0.553025 0.396881 0.191588
C36   C     C_R   0.057937 0.446414 0.602600 0.189027
Cu1   Cu    Cu3+1 0.500030 0.499990 0.643150 0.988436
Cu2   Cu    Cu3+1 0.499970 0.500010 0.356850 0.991032
H1    H     H_    0.660198 0.618204 0.104320 0.188954
H2    H     H_    0.340011 0.381293 0.895865 0.188211
H3    H     H_    0.654804 0.393279 0.900783 0.191748
H4    H     H_    0.345340 0.606740 0.099084 0.191224
N1    N     N_3   0.500090 0.499970 0.858290 -0.205785
N2    N     N_3   0.499910 0.500030 0.141710 -0.206262
O1    O     O_R   0.500060 0.316850 0.620870 -0.555400
O2    O     O_R   0.499940 0.683150 0.379130 -0.554852
O3    O     O_R   0.500000 0.316860 0.379090 -0.596505
O4    O     O_R   0.500000 0.683140 0.620910 -0.605446
O5    O     O_R   0.319670 0.500010 0.620890 -0.547096
O6    O     O_R   0.680330 0.499990 0.379110 -0.544963
O7    O     O_R   0.319620 0.500010 0.379110 -0.577162
O8    O     O_R   0.680380 0.499990 0.620890 -0.575144
I1    I     I_    0.198167 0.177649 0.881994 -0.348506
I2    I     I_    0.802603 0.821088 0.116689 -0.382311
N3    N     N_3   0.505955 0.739501 0.914620 -0.583035
H5    H     H_    0.579557 0.755025 0.854152 0.251386
H6    H     H_    0.431982 0.746927 0.854866 0.249422
N4    N     N_3   0.494054 0.260088 0.085488 -0.569482
H7    H     H_    0.421011 0.244889 0.146899 0.248947
H8    H     H_    0.568716 0.250553 0.143712 0.282990
I3    I     I_    0.185971 0.569732 0.865608 -0.374521
I4    I     I_    0.814285 0.429784 0.133868 -0.366505
I5    I     I_    0.152306 0.720863 0.172065 -0.283095
I6    I     I_    0.847489 0.278550 0.827172 -0.272529
I7    I     I_    0.941570 0.219895 0.391494 -0.361735
I8    I     I_    0.059191 0.779901 0.607920 -0.313702
N5    N     N_3   0.029934 0.123302 0.108000 -0.487052
H9    H     H_    0.062973 0.069165 0.183424 0.291893
H10   H     H_    0.938746 0.116999 0.111817 0.290723
N6    N     N_3   0.970691 0.876018 0.891203 -0.483442
H11   H     H_    0.937632 0.930117 0.815749 0.295634
H12   H     H_    0.061880 0.882387 0.887482 0.295032
N7    N     N_3   0.903165 0.652180 0.318716 -0.499104
H13   H     H_    0.821783 0.677425 0.352019 0.250152
H14   H     H_    0.957323 0.732517 0.341964 0.289648
N8    N     N_3   0.096988 0.347430 0.680975 -0.497278
H15   H     H_    0.178412 0.322282 0.647733 0.252057
H16   H     H_    0.042903 0.267013 0.657857 0.292269
I9    I     I_    0.773830 0.913521 0.582348 -0.341199
I10   I     I_    0.222831 0.086208 0.419709 -0.300043
N9    N     N_3   0.563507 0.099409 0.755427 -0.497010
H17   H     H_    0.582666 0.024118 0.814926 0.245500
H18   H     H_    0.490891 0.138278 0.798677 0.259256
N10   N     N_3   0.434155 0.902064 0.244349 -0.495413
H19   H     H_    0.415220 0.977840 0.185453 0.251889
H20   H     H_    0.507559 0.864449 0.201507 0.265795
N11   N     N_3   0.335164 0.915792 0.690106 -0.493998
H21   H     H_    0.370648 0.933113 0.786912 0.233094
H22   H     H_    0.318839 0.818733 0.676574 0.258925
N12   N     N_3   0.653689 0.089578 0.305364 -0.554368
H23   H     H_    0.721345 0.029541 0.298124 0.289166
H24   H     H_    0.690376 0.177153 0.339631 0.267315

loop_
_geom_bond_atom_site_label_1
_geom_bond_atom_site_label_2
_ccdc_geom_bond_type
C7    C13   S    
N11   H21   S    
C4    C36   A    
C27   C29   A    
N7    H13   S    
N3    H5    S    
C21   O5    A    
N9    H17   S    
C2    O2    A    
C15   C19   S    
N8    H16   S    
C15   N2    S    
C25   I5    S    
N4    H8    S    
C5    C36   A    
C17   C20   S    
C6    C35   A    
C15   C17   S    
C18   C19   S    
C9    I9    S    
C26   I6    S    
C14   N12   S    
C36   N8    S    
N9    H18   S    
C18   N4    S    
C23   C33   A    
C24   I4    S    
C31   C33   A    
N6    H11   S    
C17   N3    S    
C22   O6    A    
N7    H14   S    
C1    C12   S    
C2    C11   S    
C20   N2    S    
C19   N1    S    
C33   I1    S    
C7    C12   S    
N5    H9    S    
N8    H15   S    
C4    C6    A    
Cu1   O8    S    
C10   I10   S    
C1    O3    A    
C32   N6    S    
Cu2   O7    S    
C2    O4    A    
N4    H7    S    
C24   C34   A    
N5    H10   S    
C32   C34   A    
Cu1   N1    S    
C31   N5    S    
C9    C14   S    
C17   N1    S    
Cu2   N2    S    
Cu1   Cu2   S    
C18   N2    S    
C5    C28   S    
Cu1   O5    S    
N12   H24   S    
C6    C27   S    
C3    C35   A    
C16   C20   S    
C13   N11   S    
N10   H19   S    
Cu1   O4    S    
C9    C11   S    
C16   N1    S    
C15   H1    S    
Cu2   O3    S    
C30   I8    S    
C10   C12   S    
C16   H2    S    
C29   I7    S    
C16   C18   S    
C7    N9    S    
C12   C14   S    
C34   I2    S    
N3    H6    S    
Cu1   O1    S    
C21   O7    A    
C22   O8    A    
C7    C9    S    
C35   N7    S    
C8    C14   S    
C8    N10   S    
C24   C26   A    
C3    C5    A    
C10   C13   S    
C20   H4    S    
Cu2   O6    S    
C25   C27   A    
C26   C28   A    
N11   H22   S    
C29   C31   A    
C30   C32   A    
C4    C21   S    
C11   C13   S    
C1    O1    A    
N12   H23   S    
C8    C11   S    
C28   C30   A    
C23   C25   A    
Cu2   O2    S    
C23   I3    S    
C8    C10   S    
N10   H20   S    
C3    C22   S    
N6    H12   S    
C19   H3    S    
