data_mof_unit_61035.cif
_audit_creation_date              2012-12-11T14:24:10-0500
_audit_creation_method            fapswitch 2.2
_symmetry_space_group_name_H-M    P1
_symmetry_Int_Tables_number       1
_space_group_crystal_system       triclinic
_cell_length_a                    6.95101
_cell_length_b                    17.451271
_cell_length_c                    18.876126
_cell_angle_alpha                 105.351431
_cell_angle_beta                  89.809546
_cell_angle_gamma                 90.526387
_cell_volume                      2207.95683454

loop_
_atom_site_label
_atom_site_type_symbol
_atom_type_description
_atom_site_fract_x
_atom_site_fract_y
_atom_site_fract_z
_atom_type_partial_charge
O1    O     O_R   0.494360 0.416740 0.414860 -0.510769
O2    O     O_R   0.818980 0.432970 0.557290 -0.530075
O3    O     O_R   0.994290 0.583260 0.585140 -0.537169
C1    C     C_R   0.650016 0.415889 0.580561 0.723824
O4    O     O_R   0.823740 0.407570 0.413690 -0.538397
O5    O     O_R   0.999090 0.557670 0.440510 -0.528442
C2    C     C_R   0.655209 0.388723 0.384189 0.693452
O6    O     O_R   0.489560 0.442330 0.559490 -0.513350
O7    O     O_3   0.662450 0.549280 0.508970 -0.369220
V1    V     V_3+5 0.935350 0.490860 0.498340 1.476758
O8    O     O_R   0.329100 0.567030 0.442710 -0.526855
C3    C     C_R   0.160932 0.584013 0.419345 0.734420
O9    O     O_R   0.324330 0.592430 0.586310 -0.528951
C4    C     C_R   0.156147 0.613560 0.614761 0.770964
V2    V     V_3+5 0.435960 0.509140 0.501660 1.503790
O10   O     O_3   0.158990 0.450720 0.491030 -0.355100
C5    C     C_2   0.277884 0.781471 0.791733 -0.181131
C6    C     C_2   0.112381 0.814529 0.821968 -0.332015
H1    H     H_    0.412726 0.807448 0.816135 0.171070
H2    H     H_    0.975179 0.787722 0.801537 0.176504
C7    C     C_2   0.290212 0.706524 0.730823 0.015949
C8    C     C_2   0.145641 0.682088 0.681148 -0.361017
H3    H     H_    0.013934 0.715990 0.686988 0.162545
C9    C     C_1   0.110781 0.863918 0.132643 -0.193541
C10   C     C_1   0.118359 0.821326 0.176186 0.015703
C11   C     C_1   0.127856 0.771078 0.228047 0.011437
C12   C     C_1   0.135966 0.728768 0.271825 0.010092
C13   C     C_1   0.145449 0.678536 0.323698 0.011036
C14   C     C_1   0.153000 0.635971 0.367265 -0.197312
C15   C     C_1   0.641408 0.364051 0.632678 -0.195305
C16   C     C_1   0.636988 0.321529 0.676303 0.015890
C17   C     C_1   0.633236 0.271321 0.728220 0.010280
C18   C     C_1   0.630392 0.229001 0.772035 0.008078
C19   C     C_1   0.626659 0.178740 0.823908 0.007772
C20   C     C_1   0.622273 0.136121 0.867455 -0.203241
C21   C     C_2   0.766690 0.214199 0.215038 -0.110162
C22   C     C_2   0.609389 0.170126 0.188389 0.121483
H4    H     H_    0.899633 0.205161 0.183655 0.151870
C23   C     C_2   0.770613 0.273840 0.287785 -0.122727
C24   C     C_2   0.645059 0.334714 0.308857 -0.147717
H5    H     H_    0.882785 0.266945 0.325501 0.161989
O11   O     O_R   0.774180 0.057760 0.940580 -0.524257
O12   O     O_R   0.439830 0.092440 0.086330 -0.512863
O13   O     O_R   0.264640 0.942310 0.059470 -0.520498
C25   C     C_R   0.607771 0.112228 0.115305 0.721264
O14   O     O_R   0.444740 0.067040 0.942730 -0.527760
O15   O     O_R   0.269590 0.916730 0.914840 -0.538684
C26   C     C_R   0.613697 0.084133 0.919451 0.715866
O16   O     O_R   0.769230 0.083340 0.085210 -0.547739
O17   O     O_3   0.601340 0.950770 0.991070 -0.366733
V3    V     V_3+5 0.328370 0.009130 0.001660 1.472381
O18   O     O_R   0.939550 0.907490 0.913620 -0.540594
C27   C     C_R   0.108024 0.884548 0.886736 0.747185
O19   O     O_R   0.934640 0.932890 0.057220 -0.527222
C28   C     C_R   0.102814 0.915920 0.080600 0.732437
V4    V     V_3+5 0.827780 0.990750 0.998250 1.441774
O20   O     O_3   0.104690 0.049230 0.008930 -0.357978
C29   C     C_2   0.468437 0.659471 0.728619 0.779535
O21   O     O_2   0.624394 0.693337 0.740919 -0.588124
O22   O     O_R   0.457205 0.576888 0.715966 -0.659249
H6    H     H_    0.587954 0.551971 0.717116 0.279247
Br1   Br    Br    0.380450 0.172713 0.247458 -0.560114
C30   C     C_2   0.507623 0.355231 0.255952 0.825385
O23   O     O_2   0.357700 0.389535 0.278192 -0.552108
O24   O     O_R   0.552217 0.337739 0.181078 -0.661414
H7    H     H_    0.447909 0.354857 0.151240 0.297851

loop_
_geom_bond_atom_site_label_1
_geom_bond_atom_site_label_2
_ccdc_geom_bond_type
O5    V1    S    
O2    C1    A    
O8    C3    A    
C30   O24   S    
V3    O20   S    
O3    C4    A    
C3    C14   S    
O15   V3    S    
O16   V4    S    
O17   V4    S    
O7    V1    S    
C16   C17   S    
C25   O16   A    
C1    O6    A    
C17   C18   T    
C4    C8    S    
C21   H4    S    
C5    C6    D    
O7    V2    S    
O24   H7    S    
C7    C29   S    
C23   H5    S    
O3    V1    S    
V1    O10   S    
O9    C4    A    
O18   C27   A    
C9    C28   S    
O12   C25   A    
O13   C28   A    
O12   V3    S    
C11   C12   T    
C24   C30   S    
O8    V2    S    
O1    V2    S    
O15   C27   A    
O13   V3    S    
C21   C22   D    
C5    H1    S    
C18   C19   S    
O6    V2    S    
C6    H2    S    
O9    V2    S    
O5    C3    A    
C15   C16   T    
O19   V4    S    
C29   O21   D    
V4    O20   S    
C20   C26   S    
C23   C24   D    
C29   O22   S    
V2    O10   S    
O2    V1    S    
O14   C26   A    
O18   V4    S    
O4    V1    S    
C9    C10   T    
C19   C20   T    
C12   C13   S    
O4    C2    A    
C22   Br1   S    
O19   C28   A    
C13   C14   T    
O1    C2    A    
O11   C26   A    
O17   V3    S    
C6    C27   S    
O11   V4    S    
C10   C11   S    
C7    C8    D    
C2    C24   S    
C22   C25   S    
O14   V3    S    
C21   C23   S    
C8    H3    S    
C1    C15   S    
C30   O23   D    
O22   H6    S    
C5    C7    S    
