data_mof_unit_20916.cif
_audit_creation_date              2012-12-11T15:50:40-0500
_audit_creation_method            fapswitch 2.2
_symmetry_space_group_name_H-M    P1
_symmetry_Int_Tables_number       1
_space_group_crystal_system       triclinic
_cell_length_a                    6.933139
_cell_length_b                    14.521133
_cell_length_c                    16.106796
_cell_angle_alpha                 89.964714
_cell_angle_beta                  90.06518
_cell_angle_gamma                 90.022852
_cell_volume                      1621.58295557

loop_
_atom_site_label
_atom_site_type_symbol
_atom_type_description
_atom_site_fract_x
_atom_site_fract_y
_atom_site_fract_z
_atom_type_partial_charge
O1    O     O_R   0.638140 0.833910 0.163320 -0.543948
O2    O     O_R   0.361860 0.166090 0.836680 -0.553261
O3    O     O_R   0.361860 0.166090 0.663320 -0.545588
O4    O     O_R   0.638140 0.833910 0.336680 -0.555258
O5    O     O_R   0.138140 0.666090 0.336680 -0.543999
O6    O     O_R   0.861860 0.333910 0.663320 -0.560353
O7    O     O_R   0.861860 0.333910 0.836680 -0.532770
O8    O     O_R   0.138140 0.666090 0.163320 -0.559628
O9    O     O_R   0.308390 0.844930 0.336080 -0.515510
O10   O     O_R   0.691610 0.155070 0.663920 -0.532822
O11   O     O_R   0.691610 0.155070 0.836080 -0.500505
O12   O     O_R   0.308390 0.844930 0.163920 -0.531721
O13   O     O_R   0.808390 0.655070 0.163920 -0.520961
O14   O     O_R   0.191610 0.344930 0.836080 -0.543656
O15   O     O_R   0.191610 0.344930 0.663920 -0.518854
O16   O     O_R   0.808390 0.655070 0.336080 -0.530159
C1    C     C_R   0.477416 0.865558 0.365973 0.737955
C2    C     C_R   0.522510 0.133758 0.634470 0.672868
C3    C     C_R   0.522958 0.134371 0.865905 0.755623
C4    C     C_R   0.477470 0.866417 0.134626 0.672701
C5    C     C_R   0.977093 0.634247 0.134054 0.736753
C6    C     C_R   0.022622 0.366258 0.865433 0.769088
C7    C     C_R   0.022606 0.365478 0.633958 0.723778
C8    C     C_R   0.977485 0.633710 0.365467 0.681332
O17   O     O_3   0.471620 0.691320 0.250000 -0.367267
O18   O     O_3   0.528380 0.308680 0.750000 -0.373101
O19   O     O_3   0.971620 0.808680 0.250000 -0.362972
O20   O     O_3   0.028380 0.191320 0.750000 -0.360498
V1    V     V_3+5 0.196770 0.760880 0.250000 1.525129
V2    V     V_3+5 0.803230 0.239120 0.750000 1.567351
V3    V     V_3+5 0.696770 0.739120 0.250000 1.519385
V4    V     V_3+5 0.303230 0.260880 0.750000 1.532411
C9    C     C_R   0.882889 0.481170 0.428800 0.429486
C10   C     C_R   0.116716 0.515160 0.569384 0.400645
C11   C     C_R   0.114418 0.518982 0.928577 0.373877
C12   C     C_R   0.873845 0.486732 0.066912 0.315472
C13   C     C_R   0.399486 0.023228 0.074962 0.424080
C14   C     C_R   0.603197 0.981538 0.927762 0.403799
C15   C     C_R   0.618661 0.981673 0.570632 0.427777
C16   C     C_R   0.382097 0.014924 0.430798 0.401420
C17   C     C_R   0.890772 0.416085 0.494193 -0.109788
C18   C     C_R   0.109383 0.580786 0.503972 -0.107409
C19   C     C_R   0.108388 0.583478 0.994375 -0.107301
C20   C     C_R   0.891729 0.418044 0.004607 -0.114205
C21   C     C_R   0.411845 0.089380 0.010282 -0.127224
C22   C     C_R   0.597811 0.916348 0.993593 -0.116144
C23   C     C_R   0.610335 0.916530 0.505382 -0.107408
C24   C     C_R   0.389571 0.080534 0.496173 -0.106642
C25   C     C_R   0.011422 0.432460 0.563911 -0.243152
C26   C     C_R   0.989190 0.564646 0.433981 -0.272523
C27   C     C_R   0.987263 0.567269 0.063824 -0.217962
C28   C     C_R   0.010670 0.434833 0.934203 -0.237986
C29   C     C_R   0.513237 0.067860 0.936341 -0.222841
C30   C     C_R   0.489719 0.935804 0.066339 -0.268478
C31   C     C_R   0.488584 0.932561 0.435973 -0.247023
C32   C     C_R   0.510915 0.064749 0.565869 -0.268556
O21   O     O_3   0.776759 0.459011 0.358804 -0.580885
H1    H     H_    0.836676 0.487803 0.309470 0.316628
O22   O     O_3   0.219263 0.531496 0.641537 -0.619068
H2    H     H_    0.212885 0.598063 0.654485 0.335218
O23   O     O_3   0.218211 0.541839 0.858204 -0.587164
H3    H     H_    0.157967 0.512620 0.809148 0.304776
O24   O     O_3   0.757553 0.473602 0.135393 -0.628284
H4    H     H_    0.631906 0.449701 0.115758 0.288402
O25   O     O_3   0.304713 0.047661 0.147221 -0.583845
H5    H     H_    0.357538 0.012338 0.194537 0.309433
O26   O     O_3   0.690344 0.961927 0.852732 -0.622338
H6    H     H_    0.672750 0.895626 0.840556 0.336478
O27   O     O_3   0.726723 0.959903 0.640144 -0.583333
H7    H     H_    0.667030 0.988304 0.689613 0.313077
O28   O     O_3   0.278012 0.030949 0.358992 -0.616063
H8    H     H_    0.283355 0.097536 0.345956 0.338736
C33   C     C_2   0.780468 0.328073 0.487245 0.520524
H9    H     H_    0.824125 0.267815 0.522186 0.044819
O29   O     O_2   0.637829 0.321746 0.443091 -0.497564
C34   C     C_2   0.228113 0.666088 0.508556 0.424333
H10   H     H_    0.174672 0.730246 0.482832 0.067088
O30   O     O_2   0.389516 0.664851 0.538916 -0.527273
C35   C     C_2   0.217490 0.671744 0.987088 0.508245
H11   H     H_    0.172774 0.732155 0.021526 0.039761
O31   O     O_2   0.359513 0.678252 0.942742 -0.503331
C36   C     C_2   0.796002 0.326906 0.017482 0.453827
H12   H     H_    0.662831 0.321160 0.052104 0.030632
O32   O     O_2   0.868573 0.255791 0.991941 -0.516912
C37   C     C_2   0.329530 0.183739 0.021792 0.571769
H13   H     H_    0.365327 0.238873 0.979129 -0.027930
O33   O     O_2   0.221820 0.202010 0.079355 -0.458415
C38   C     C_2   0.707197 0.828330 0.987018 0.433654
H14   H     H_    0.654585 0.766409 0.017066 0.064245
O34   O     O_2   0.861111 0.824810 0.950392 -0.521774
C39   C     C_2   0.721083 0.828679 0.512302 0.517602
H15   H     H_    0.676531 0.768142 0.477996 0.045198
O35   O     O_2   0.864934 0.822781 0.555770 -0.498529
C40   C     C_2   0.269973 0.165510 0.491781 0.425874
H16   H     H_    0.323417 0.229883 0.517047 0.064998
O36   O     O_2   0.107963 0.163761 0.462051 -0.526060

loop_
_geom_bond_atom_site_label_1
_geom_bond_atom_site_label_2
_ccdc_geom_bond_type
O17   V3    S    
O18   V4    S    
C16   O28   S    
O12   V1    S    
O19   V1    S    
C33   H9    S    
C10   C18   A    
C19   C27   A    
O15   V4    S    
C37   H13   S    
O16   V3    S    
C14   C29   A    
O11   C3    A    
C24   C40   S    
O8    V1    S    
C6    C28   S    
C34   O30   D    
C20   C36   S    
O27   H7    S    
C7    C25   S    
C19   C35   S    
O1    V3    S    
O3    C2    A    
O2    V4    S    
C16   C24   A    
O11   V2    S    
C10   C25   A    
C13   O25   S    
C12   O24   S    
C11   C19   A    
C1    C31   S    
C22   C38   S    
O23   H3    S    
O9    V1    S    
C3    C29   S    
O15   C7    A    
C21   C29   A    
O22   H2    S    
O16   C8    A    
O7    V2    S    
C8    C26   S    
C33   O29   D    
O12   C4    A    
C40   H16   S    
C17   C25   A    
O5    V1    S    
C37   O33   D    
O17   V1    S    
O19   V3    S    
O26   H6    S    
O20   V4    S    
C34   H10   S    
C4    C30   S    
C39   H15   S    
C35   O31   D    
C9    C26   A    
C15   C23   A    
C36   H12   S    
O24   H4    S    
C21   C37   S    
C39   O35   D    
O10   V2    S    
C15   C32   A    
C16   C31   A    
C22   C30   A    
O8    C5    A    
C15   O27   S    
O13   C5    A    
C11   O23   S    
C38   H14   S    
C40   O36   D    
C12   C27   A    
C18   C26   A    
C13   C30   A    
O9    C1    A    
O6    V2    S    
C38   O34   D    
O18   V2    S    
C36   O32   D    
C10   O22   S    
C12   C20   A    
O4    C1    A    
C13   C21   A    
C5    C27   S    
C23   C31   A    
C24   C32   A    
O1    C4    A    
C9    O21   S    
O2    C3    A    
C23   C39   S    
O13   V3    S    
O14   V4    S    
C2    C32   S    
O7    C6    A    
C18   C34   S    
C9    C17   A    
O14   C6    A    
O20   V2    S    
O28   H8    S    
C20   C28   A    
O21   H1    S    
O5    C8    A    
O10   C2    A    
O6    C7    A    
O3    V4    S    
C14   C22   A    
O4    V3    S    
C17   C33   S    
C35   H11   S    
C14   O26   S    
O25   H5    S    
C11   C28   A    
