data_mof_unit_48093.cif
_audit_creation_date              2012-12-11T14:08:43-0500
_audit_creation_method            fapswitch 2.2
_symmetry_space_group_name_H-M    P1
_symmetry_Int_Tables_number       1
_space_group_crystal_system       triclinic
_cell_length_a                    28.176701
_cell_length_b                    7.194004
_cell_length_c                    17.211183
_cell_angle_alpha                 89.998228
_cell_angle_beta                  102.061168
_cell_angle_gamma                 90.000935
_cell_volume                      3411.74940831

loop_
_atom_site_label
_atom_site_type_symbol
_atom_type_description
_atom_site_fract_x
_atom_site_fract_y
_atom_site_fract_z
_atom_type_partial_charge
O1    O     O_R   0.000700 0.436510 0.857920 -0.539492
O2    O     O_R   0.999300 0.563490 0.142080 -0.539477
O3    O     O_R   0.999300 0.936510 0.642080 -0.539496
O4    O     O_R   0.000700 0.063490 0.357920 -0.539474
O5    O     O_R   0.930080 0.766380 0.721890 -0.520204
O6    O     O_R   0.069920 0.233620 0.278110 -0.520176
O7    O     O_R   0.069920 0.266380 0.778110 -0.520192
O8    O     O_R   0.930080 0.733620 0.221890 -0.520156
C1    C     C_R   0.910671 0.597657 0.710373 0.753809
C2    C     C_R   0.089330 0.402341 0.289645 0.753850
C3    C     C_R   0.089329 0.097658 0.789623 0.753855
C4    C     C_R   0.910669 0.902340 0.210362 0.753804
O9    O     O_R   0.996180 0.766230 0.862310 -0.538956
O10   O     O_R   0.003820 0.233770 0.137690 -0.538984
O11   O     O_R   0.003820 0.266230 0.637690 -0.538959
O12   O     O_R   0.996180 0.733770 0.362310 -0.539000
O13   O     O_R   0.065870 0.936460 0.783500 -0.539852
O14   O     O_R   0.934130 0.063540 0.216500 -0.539867
O15   O     O_R   0.934130 0.436460 0.716500 -0.539848
O16   O     O_R   0.065870 0.563540 0.283500 -0.539854
C5    C     C_R   0.998474 0.596427 0.894481 0.767313
C6    C     C_R   0.001525 0.403573 0.105519 0.767236
C7    C     C_R   0.001526 0.096430 0.605519 0.767282
C8    C     C_R   0.998475 0.903570 0.394481 0.767149
O17   O     O_3   0.022790 0.603020 0.723980 -0.371685
O18   O     O_3   0.977210 0.396980 0.276020 -0.371657
O19   O     O_3   0.977210 0.103020 0.776020 -0.371689
O20   O     O_3   0.022790 0.896980 0.223980 -0.371679
V1    V     V_3+5 0.995770 0.877900 0.754830 1.515415
V2    V     V_3+5 0.004230 0.122100 0.245170 1.515467
V3    V     V_3+5 0.004230 0.377900 0.745170 1.515433
V4    V     V_3+5 0.995770 0.622100 0.254830 1.515472
C9    C     C_2   0.001736 0.082617 0.519605 -0.301736
C10   C     C_2   0.998266 0.917383 0.480395 -0.301920
C11   C     C_2   0.998264 0.582615 0.980393 -0.301746
C12   C     C_2   0.001735 0.417385 0.019606 -0.301841
C13   C     C_R   0.678564 0.806128 0.062768 0.655434
C14   C     C_R   0.321493 0.194373 0.936439 0.655378
C15   C     C_R   0.321457 0.305876 0.437003 0.655491
C16   C     C_R   0.678518 0.694238 0.563429 0.655284
O21   O     O_2   0.702979 0.655450 0.045529 -0.491021
O22   O     O_2   0.297108 0.345358 0.953423 -0.490903
O23   O     O_2   0.297064 0.154961 0.454031 -0.490902
O24   O     O_2   0.702914 0.845104 0.546356 -0.491017
N1    N     N_R   0.703287 0.948329 0.106401 -0.548459
N2    N     N_R   0.296736 0.051822 0.893115 -0.548467
N3    N     N_R   0.296714 0.448284 0.393562 -0.548456
N4    N     N_R   0.703265 0.551797 0.606840 -0.548450
C17   C     C_R   0.679432 0.104078 0.123430 0.646429
C18   C     C_R   0.320567 0.895837 0.876289 0.646459
C19   C     C_R   0.320552 0.604234 0.376718 0.646456
C20   C     C_R   0.679423 0.395914 0.623755 0.646500
C21   C     C_R   0.775352 0.818833 0.198812 0.311357
C22   C     C_R   0.224602 0.180669 0.800664 0.311595
C23   C     C_R   0.224639 0.319179 0.301043 0.311496
C24   C     C_R   0.775391 0.680632 0.699309 0.311532
C25   C     C_R   0.826276 0.806421 0.224760 0.201649
C26   C     C_R   0.173671 0.193053 0.774843 0.201654
C27   C     C_R   0.173714 0.306780 0.275110 0.201675
C28   C     C_R   0.826322 0.693020 0.725140 0.201666
C29   C     C_R   0.836221 0.029971 0.123326 -0.206792
C30   C     C_R   0.163828 0.970580 0.876709 -0.207177
C31   C     C_R   0.163780 0.529588 0.376805 -0.207009
C32   C     C_R   0.836176 0.470606 0.623268 -0.207220
C33   C     C_R   0.785943 0.040484 0.097445 -0.082667
C34   C     C_R   0.214116 0.960101 0.902468 -0.082818
C35   C     C_R   0.214059 0.540076 0.402676 -0.082679
C36   C     C_R   0.785889 0.460119 0.597499 -0.082937
C37   C     C_R   0.755200 0.934773 0.134287 0.251278
C38   C     C_R   0.244812 0.065286 0.865343 0.251242
C39   C     C_R   0.244799 0.434737 0.365691 0.251254
C40   C     C_R   0.755188 0.565270 0.634624 0.251331
C41   C     C_R   0.602505 0.974589 0.052950 -0.044542
C42   C     C_R   0.397539 0.025793 0.946330 -0.044452
C43   C     C_R   0.397501 0.474507 0.446968 -0.044455
C44   C     C_R   0.602465 0.525729 0.553590 -0.044487
C45   C     C_R   0.627833 0.816205 0.035732 -0.051150
C46   C     C_R   0.372228 0.184338 0.963421 -0.051206
C47   C     C_R   0.372186 0.315987 0.464061 -0.051225
C48   C     C_R   0.627782 0.684214 0.536450 -0.051172
C49   C     C_R   0.602115 0.671344 0.992031 -0.120502
C50   C     C_R   0.397969 0.329416 0.006921 -0.120890
C51   C     C_R   0.397918 0.171012 0.507646 -0.120773
C52   C     C_R   0.602047 0.829236 0.492900 -0.120767
C53   C     C_R   0.628767 0.120068 0.097035 -0.052149
C54   C     C_R   0.371251 0.880044 0.902485 -0.052079
C55   C     C_R   0.371225 0.620149 0.403038 -0.052108
C56   C     C_R   0.628744 0.380071 0.597515 -0.052126
C57   C     C_R   0.857030 0.911868 0.186191 -0.152455
C58   C     C_R   0.142968 0.088139 0.813689 -0.152337
C59   C     C_R   0.142967 0.411867 0.313812 -0.152385
C60   C     C_R   0.857031 0.588135 0.686296 -0.152317
H1    H     H_    0.770724 0.130998 0.048256 0.173181
H2    H     H_    0.229379 0.870034 0.951783 0.173176
H3    H     H_    0.229282 0.630288 0.451964 0.173211
H4    H     H_    0.770630 0.370073 0.548178 0.173133
C61   C     C_R   0.473823 0.851413 0.955264 0.030204
C62   C     C_R   0.526223 0.148997 0.043968 0.030183
C63   C     C_R   0.526181 0.351337 0.544642 0.030171
C64   C     C_R   0.473780 0.648957 0.455979 0.030183
C65   C     C_R   0.474840 0.161882 0.017201 0.029036
C66   C     C_R   0.525222 0.838676 0.981905 0.028957
C67   C     C_R   0.525169 0.661779 0.482683 0.029002
C68   C     C_R   0.474793 0.338521 0.517932 0.028990
C69   C     C_R   0.448962 0.012956 0.973066 0.073906
C70   C     C_R   0.551090 0.987502 0.026134 0.073820
C71   C     C_R   0.551045 0.512871 0.526834 0.073895
C72   C     C_R   0.448918 0.487408 0.473765 0.073927
C73   C     C_R   0.446060 0.707791 0.911045 -0.186715
C74   C     C_R   0.553958 0.292351 0.088415 -0.186358
C75   C     C_R   0.553929 0.207834 0.588964 -0.186605
C76   C     C_R   0.446033 0.792466 0.411676 -0.186581
C77   C     C_R   0.396001 0.722122 0.885418 -0.118217
C78   C     C_R   0.604005 0.277875 0.114181 -0.117958
C79   C     C_R   0.603985 0.222211 0.614634 -0.118154
C80   C     C_R   0.395979 0.778057 0.385981 -0.118088
O25   O     O_2   0.295360 0.756835 0.833894 -0.470035
O26   O     O_2   0.704596 0.242628 0.166247 -0.470021
O27   O     O_2   0.704617 0.257063 0.666282 -0.470080
O28   O     O_2   0.295364 0.743069 0.334167 -0.470018
C81   C     C_R   0.552026 0.681707 0.965807 -0.181263
C82   C     C_R   0.448061 0.319083 0.033091 -0.181451
C83   C     C_R   0.448006 0.181397 0.533882 -0.181424
C84   C     C_R   0.551954 0.818907 0.466728 -0.181395
H5    H     H_    0.376690 0.607563 0.852037 0.190745
H6    H     H_    0.623293 0.392188 0.147775 0.190769
H7    H     H_    0.623285 0.107757 0.648106 0.190717
H8    H     H_    0.376679 0.892522 0.352529 0.190793
H9    H     H_    0.461659 0.580652 0.895015 0.132905
H10   H     H_    0.538332 0.419239 0.104652 0.132826
H11   H     H_    0.538310 0.080833 0.605096 0.132866
H12   H     H_    0.461649 0.919500 0.395576 0.132899
H13   H     H_    0.535604 0.562635 0.933018 0.130342
H14   H     H_    0.464517 0.438454 0.065564 0.130428
H15   H     H_    0.464454 0.062160 0.566489 0.130384
H16   H     H_    0.535503 0.938171 0.434158 0.130408
H17   H     H_    0.004593 0.211459 0.487998 0.155861
H18   H     H_    0.995409 0.788541 0.512002 0.155839
H19   H     H_    0.995406 0.711457 0.011997 0.155864
H20   H     H_    0.004593 0.288543 0.988003 0.155852
H21   H     H_    0.859068 0.112465 0.093233 0.157341
H22   H     H_    0.141015 0.888503 0.907008 0.157317
H23   H     H_    0.140935 0.611794 0.407000 0.157331
H24   H     H_    0.858994 0.388559 0.592968 0.157295
H25   H     H_    0.620638 0.547671 0.978042 0.176640
H26   H     H_    0.379461 0.453238 0.020779 0.176657
H27   H     H_    0.379407 0.047222 0.521517 0.176663
H28   H     H_    0.620559 0.953003 0.479000 0.176641
Br1   Br    Br    0.146765 0.343637 0.683463 -0.454028
Br2   Br    Br    0.853086 0.655067 0.315952 -0.453731
Br3   Br    Br    0.853219 0.843580 0.816523 -0.453928
Br4   Br    Br    0.146882 0.155942 0.183776 -0.453883
Br5   Br    Br    0.267144 0.314795 0.746351 -0.380855
Br6   Br    Br    0.732739 0.683996 0.252757 -0.380754
Br7   Br    Br    0.732840 0.814747 0.753608 -0.380749
Br8   Br    Br    0.267240 0.184841 0.246917 -0.380815

loop_
_geom_bond_atom_site_label_1
_geom_bond_atom_site_label_2
_ccdc_geom_bond_type
O17   V3    S    
O1    C5    A    
C62   C74   A    
C23   C27   A    
O19   V1    S    
C18   O25   S    
O13   V1    S    
O3    C7    A    
C11   C12   D    
C76   C80   A    
C48   C52   A    
O15   V3    S    
C22   Br5   S    
C68   C83   A    
C27   Br4   S    
O7    C3    A    
C36   H4    S    
C25   C57   A    
C54   C77   A    
C32   C36   A    
O9    V1    S    
C53   C78   A    
C30   H22   S    
C14   O22   S    
N4    C20   A    
O16   V4    S    
C78   H6    S    
C33   C37   A    
C77   H5    S    
O1    V3    S    
C79   H7    S    
O2    V4    S    
O3    V1    S    
C75   H11   S    
C82   H14   S    
C11   H19   S    
C1    O15   A    
C31   H23   S    
C2    O16   A    
C24   C40   A    
O2    C6    A    
C16   C48   A    
C66   C70   A    
C52   C84   A    
O14   V2    S    
N1    C17   A    
O8    C4    A    
C66   C81   A    
C44   C56   A    
C61   C66   A    
C26   Br1   S    
C73   C77   A    
C34   H2    S    
C61   C69   A    
O11   C7    A    
C63   C68   A    
C21   C37   A    
C21   Br6   S    
O12   C8    A    
C35   H3    S    
C31   C59   A    
O10   V2    S    
C24   Br7   S    
C67   C84   A    
C1    C60   S    
C50   H26   S    
C29   C57   A    
C19   O28   S    
O5    V1    S    
C52   H28   S    
C65   C69   A    
C23   Br8   S    
C31   C35   A    
C64   C72   A    
O7    V3    S    
C30   C34   A    
N1    C37   S    
O8    V4    S    
C17   C53   A    
C4    C57   S    
C20   C56   A    
C19   C55   A    
C21   C25   A    
O18   V4    S    
C84   H16   S    
N3    C19   A    
C32   H24   S    
C7    C9    S    
C9    H17   S    
C10   H18   S    
C64   C67   A    
C8    C10   S    
C24   C28   A    
C49   C81   A    
C28   Br3   S    
C15   C47   A    
C80   H8    S    
O5    C1    A    
C61   C73   A    
C46   C50   A    
C17   O26   S    
C22   C38   A    
C45   C49   A    
C36   C40   A    
C63   C75   A    
C25   Br2   S    
C4    O14   A    
C9    C10   D    
O9    C5    A    
C27   C59   A    
C76   H12   S    
C26   C58   A    
C41   C53   A    
C55   C80   A    
C51   H27   S    
C29   H21   S    
O6    V2    S    
C2    C59   S    
C64   C76   A    
C44   C71   A    
C49   H25   S    
C73   H9    S    
O12   V4    S    
N4    C40   S    
C13   N1    A    
C68   C72   A    
N2    C38   S    
C63   C71   A    
C15   N3    A    
C22   C26   A    
C43   C72   A    
C16   N4    A    
C74   C78   A    
C3    O13   A    
C41   C45   A    
C44   C48   A    
O6    C2    A    
C15   O23   S    
O11   V3    S    
C5    C11   S    
C42   C54   A    
C62   C65   A    
C6    C12   S    
N2    C18   A    
C14   C46   A    
C65   C82   A    
C62   C70   A    
C81   H13   S    
O10   C6    A    
C56   C79   A    
O20   V2    S    
C42   C69   A    
C47   C51   A    
C3    C58   S    
C41   C70   A    
C34   C38   A    
C13   C45   A    
O4    C8    A    
C30   C58   A    
C33   H1    S    
C74   H10   S    
C35   C39   A    
C12   H20   S    
C13   O21   S    
O4    V2    S    
C14   N2    A    
C18   C54   A    
C20   O27   S    
C29   C33   A    
C16   O24   S    
C75   C79   A    
C42   C46   A    
C83   H15   S    
N3    C39   S    
C32   C60   A    
C67   C71   A    
C51   C83   A    
C28   C60   A    
C43   C47   A    
C50   C82   A    
C23   C39   A    
C43   C55   A    
