data_mof_unit_43464.cif
_audit_creation_date              2013-03-05T16:06:15-0500
_audit_creation_method            fapswitch 2.2
_symmetry_space_group_name_H-M    P1
_symmetry_Int_Tables_number       1
_space_group_crystal_system       triclinic
_cell_length_a                    10.820346
_cell_length_b                    9.690679
_cell_length_c                    27.691735
_cell_angle_alpha                 89.217856
_cell_angle_beta                  95.166181
_cell_angle_gamma                 89.971953
_cell_volume                      2891.58918373

loop_
_atom_site_label
_atom_site_type_symbol
_atom_site_description
_atom_site_fract_x
_atom_site_fract_y
_atom_site_fract_z
_atom_type_partial_charge
O1    O     O_R   0.319640 0.618740 0.500000 -0.596261
O2    O     O_R   0.680360 0.381260 0.500000 -0.596323
O3    O     O_R   0.680360 0.618740 0.500000 -0.589454
O4    O     O_R   0.319640 0.381260 0.500000 -0.589403
C1    C     C_R   0.262555 0.500023 0.499914 0.804390
C2    C     C_R   0.737444 0.499978 0.500079 0.804317
O5    O     O_R   0.500020 0.618770 0.430260 -0.582832
O6    O     O_R   0.499980 0.381230 0.569740 -0.582710
O7    O     O_R   0.499980 0.618770 0.569740 -0.573583
O8    O     O_R   0.500020 0.381230 0.430260 -0.573606
C3    C     C_R   0.498449 0.500623 0.407726 0.857194
C4    C     C_R   0.501575 0.499376 0.592276 0.856936
Cu1   Cu    Cu3+1 0.500000 0.640660 0.500000 0.952240
Cu2   Cu    Cu3+1 0.500000 0.359340 0.500000 0.952302
C5    C     C_R   0.463490 0.383027 0.178307 0.555153
C6    C     C_R   0.537130 0.616528 0.821755 0.555225
O9    O     O_2   0.406383 0.287437 0.204173 -0.537288
O10   O     O_2   0.593979 0.712343 0.795893 -0.537621
N1    N     N_R   0.525080 0.487434 0.202779 -0.459768
N2    N     N_R   0.475600 0.512115 0.797271 -0.459650
C7    C     C_R   0.592905 0.582283 0.179855 0.559558
C8    C     C_R   0.408027 0.417014 0.820193 0.553198
C9    C     C_R   0.612706 0.438486 0.286189 0.171237
C10   C     C_R   0.387777 0.561403 0.713906 0.174087
C11   C     C_R   0.603352 0.441573 0.336059 -0.216806
C12   C     C_R   0.396954 0.558407 0.664021 -0.215544
C13   C     C_R   0.402884 0.558086 0.323370 -0.045632
C14   C     C_R   0.597425 0.441855 0.676583 -0.046634
C15   C     C_R   0.412925 0.559016 0.272552 0.093104
C16   C     C_R   0.587530 0.440777 0.727411 0.085042
C17   C     C_R   0.517774 0.497321 0.254278 0.344913
C18   C     C_R   0.482767 0.502435 0.745756 0.345508
C19   C     C_R   0.526533 0.478020 0.102637 -0.093516
C20   C     C_R   0.474392 0.521214 0.897429 -0.092612
C21   C     C_R   0.459409 0.376840 0.126958 -0.067741
C22   C     C_R   0.541412 0.622504 0.873111 -0.067995
C23   C     C_R   0.395818 0.271345 0.099244 0.154273
C24   C     C_R   0.605137 0.727890 0.900835 0.156842
C25   C     C_R   0.603113 0.573446 0.129669 -0.069537
C26   C     C_R   0.397848 0.425721 0.870394 -0.074693
C27   C     C_R   0.500490 0.500881 0.354816 -0.162785
C28   C     C_R   0.499721 0.499101 0.645194 -0.162091
C29   C     C_R   0.422635 0.407504 0.972742 0.049502
C30   C     C_R   0.578483 0.591583 0.027332 0.051834
C31   C     C_R   0.556365 0.611759 0.976210 0.000706
C32   C     C_R   0.444728 0.387357 0.023864 0.000824
C33   C     C_R   0.485463 0.513026 0.948880 0.038772
C34   C     C_R   0.515574 0.486126 0.051190 0.039292
C35   C     C_R   0.328951 0.334807 0.945352 -0.254418
C36   C     C_R   0.672258 0.664143 0.054733 -0.258995
C37   C     C_R   0.315845 0.341448 0.894845 -0.011392
C38   C     C_R   0.685197 0.657583 0.105282 -0.010523
O11   O     O_2   0.355349 0.311715 0.794514 -0.503069
O12   O     O_2   0.645838 0.687496 0.205509 -0.506696
C39   C     C_R   0.404066 0.268164 0.048560 0.152310
C40   C     C_R   0.597040 0.730963 0.951527 0.153417
H1    H     H_    0.323375 0.602747 0.639418 0.156089
H2    H     H_    0.676870 0.397298 0.360708 0.156152
H3    H     H_    0.260856 0.276749 0.963333 0.186367
H4    H     H_    0.740493 0.722038 0.036770 0.182281
C41   C     C_R   0.063987 0.374640 0.500005 -0.163336
C42   C     C_R   0.936008 0.625361 0.499975 -0.163633
C43   C     C_R   0.936141 0.374617 0.500075 -0.194497
C44   C     C_R   0.063854 0.625384 0.499904 -0.194519
H5    H     H_    0.111996 0.276540 0.500042 0.155774
H6    H     H_    0.887999 0.723460 0.499938 0.155736
H7    H     H_    0.888239 0.276520 0.500130 0.156609
H8    H     H_    0.111756 0.723481 0.499850 0.156629
C45   C     C_R   0.871553 0.499977 0.500047 -0.015692
C46   C     C_R   0.128443 0.500024 0.499935 -0.015531
C47   C     C_R   0.418546 0.075490 0.468469 0.224855
C48   C     C_R   0.581455 0.924509 0.531530 0.224595
C49   C     C_R   0.581365 0.072656 0.531477 0.210707
C50   C     C_R   0.418634 0.927342 0.468523 0.210931
N3    N     N_R   0.500000 0.852070 0.500000 -0.190209
N4    N     N_R   0.500000 0.147930 0.500000 -0.190196
C51   C     C_2   0.287318 0.605712 0.343488 0.821779
O13   O     O_2   0.237010 0.713369 0.329008 -0.598100
O14   O     O_R   0.235557 0.526149 0.379035 -0.794507
H9    H     H_    0.157264 0.568783 0.389906 0.330495
C52   C     C_2   0.712949 0.394374 0.656397 0.822814
O15   O     O_2   0.763411 0.286772 0.670847 -0.594175
O16   O     O_R   0.764516 0.474031 0.620827 -0.794359
H10   H     H_    0.842813 0.431504 0.609916 0.330994
C53   C     C_3   0.325638 0.148432 0.432263 -0.721576
H11   H     H_    0.325124 0.260090 0.432417 0.289227
H12   H     H_    0.343620 0.121168 0.394752 0.216746
H13   H     H_    0.229762 0.118231 0.439001 0.189401
C54   C     C_3   0.674365 0.851567 0.567735 -0.721153
H14   H     H_    0.674874 0.739910 0.567582 0.289267
H15   H     H_    0.770241 0.881762 0.560994 0.189504
H16   H     H_    0.656393 0.878837 0.605247 0.216833
C55   C     C_3   0.673876 0.142725 0.567458 -0.723330
H17   H     H_    0.671615 0.254078 0.567215 0.281149
H18   H     H_    0.656737 0.111338 0.604917 0.232360
H19   H     H_    0.769981 0.114994 0.560351 0.193377
C56   C     C_3   0.326118 0.857271 0.432542 -0.723832
H20   H     H_    0.328381 0.745916 0.432779 0.281322
H21   H     H_    0.230015 0.884997 0.439654 0.193152
H22   H     H_    0.343244 0.888671 0.395083 0.232399
C57   C     C_3   0.310588 0.621231 0.237990 -0.721812
H23   H     H_    0.303173 0.733457 0.244624 0.259708
H24   H     H_    0.326608 0.610724 0.199282 0.212817
H25   H     H_    0.220927 0.570124 0.243353 0.242647
C58   C     C_3   0.689929 0.378447 0.761911 -0.703872
H26   H     H_    0.674019 0.388835 0.800635 0.211736
H27   H     H_    0.697302 0.266243 0.755229 0.259816
H28   H     H_    0.779568 0.429573 0.756531 0.246407
C59   C     C_3   0.320463 0.160744 0.122602 -0.713285
H29   H     H_    0.267515 0.093869 0.096071 0.214020
H30   H     H_    0.382493 0.092997 0.146669 0.260374
H31   H     H_    0.248988 0.209684 0.143119 0.257588
C60   C     C_3   0.680559 0.838451 0.877485 -0.720255
H32   H     H_    0.733742 0.905095 0.904026 0.211939
H33   H     H_    0.751846 0.789473 0.856883 0.255982
H34   H     H_    0.618542 0.906428 0.853500 0.261560
C61   C     C_3   0.277209 0.629268 0.733091 -0.768618
H35   H     H_    0.212450 0.673134 0.703405 0.225824
H36   H     H_    0.225393 0.552509 0.753461 0.262522
H37   H     H_    0.308589 0.714507 0.757613 0.243132
C62   C     C_3   0.723394 0.370639 0.267085 -0.765901
H38   H     H_    0.788029 0.326773 0.296812 0.224812
H39   H     H_    0.692141 0.285401 0.242542 0.244618
H40   H     H_    0.775316 0.447408 0.246762 0.264620
C63   C     C_2   0.208826 0.267305 0.869935 0.917872
O17   O     O_2   0.145101 0.322969 0.836464 -0.559536
O18   O     O_R   0.177121 0.136207 0.886527 -0.768696
H41   H     H_    0.101326 0.097043 0.867272 0.340174
C64   C     C_2   0.792501 0.730346 0.130597 0.921206
O19   O     O_2   0.820689 0.845841 0.117024 -0.595960
O20   O     O_R   0.864769 0.664300 0.168512 -0.732943
H42   H     H_    0.936173 0.723627 0.182391 0.343394
C65   C     C_3   0.396346 0.128879 0.023963 -0.848353
H43   H     H_    0.298410 0.097166 0.015317 0.239232
H44   H     H_    0.445447 0.129077 0.990518 0.246602
H45   H     H_    0.443797 0.049270 0.048221 0.242773
C66   C     C_3   0.604964 0.870186 0.976163 -0.851198
H46   H     H_    0.555881 0.870007 0.009612 0.245663
H47   H     H_    0.702948 0.901722 0.984806 0.237300
H48   H     H_    0.557607 0.949921 0.951932 0.244192

loop_
_geom_bond_atom_site_label_1
_geom_bond_atom_site_label_2
_geom_bond_distance
_ccdc_geom_bond_type
C41   C46   1.401350 A    
C2    C45   1.451186 S    
C55   H17   1.079263 S    
C40   C66   1.519120 S    
C13   C15   1.421045 A    
C58   H26   1.107162 S    
C49   C55   1.515050 S    
O3    C2    1.305773 A    
N1    C17   1.439882 S    
C56   H20   1.079288 S    
C9    C62   1.506459 S    
C51   O13   1.222381 D    
C5    N1    1.365677 A    
C58   H27   1.109492 S    
C10   C61   1.506430 S    
C57   H23   1.109489 S    
C63   O17   1.223284 D    
O1    C1    1.305981 A    
C38   C64   1.484725 S    
C44   H8    1.083024 S    
N1    C7    1.361995 A    
C10   C12   1.394537 A    
C60   H32   1.107055 S    
C61   H36   1.109845 S    
C53   H11   1.082123 S    
C47   N4    1.382288 A    
C56   H21   1.109219 S    
C14   C28   1.414807 A    
C41   C43   1.383510 A    
O7    Cu1   1.939976 S    
C62   H40   1.109829 S    
C4    C28   1.467322 S    
C52   O16   1.398604 S    
C47   C53   1.521160 S    
Cu1   N3    2.048706 S    
C31   C40   1.424223 A    
C35   C37   1.393656 A    
C32   C39   1.424275 A    
C65   H45   1.110570 S    
C36   C38   1.394751 A    
C44   C46   1.401167 A    
C54   H15   1.109219 S    
C23   C59   1.519499 S    
O3    Cu1   1.962981 S    
C6    N2    1.365600 A    
C60   H34   1.110290 S    
C51   O14   1.398612 S    
C25   C38   1.415419 A    
C55   H18   1.108606 S    
Cu1   Cu2   2.726182 S    
O2    C2    1.305980 A    
C48   N3    1.382279 A    
C5    C21   1.420721 A    
C58   H28   1.110364 S    
C52   O15   1.222389 D    
C8    O11   1.348767 S    
C43   H7    1.083025 S    
C31   C33   1.411635 A    
C66   H48   1.110579 S    
C32   C34   1.411511 A    
C50   N3    1.382317 A    
C42   H6    1.083048 S    
C53   H12   1.109278 S    
C37   C63   1.484405 S    
C43   C45   1.401166 A    
O8    Cu2   1.939976 S    
C61   H37   1.110295 S    
C11   C27   1.396609 A    
C24   C60   1.519543 S    
C29   C35   1.405687 A    
C39   C65   1.519128 S    
C42   C45   1.401350 A    
Cu2   N4    2.048707 S    
C12   H1    1.084735 S    
O5    C3    1.310780 A    
C10   C18   1.408288 A    
C1    C46   1.451186 S    
C66   H47   1.109665 S    
C13   C27   1.414789 A    
O16   H10   1.013914 S    
C7    C25   1.407758 A    
O6    C4    1.310782 A    
C8    C26   1.408039 A    
C15   C57   1.516048 S    
C19   C25   1.417770 A    
C54   H16   1.109281 S    
C62   H38   1.110831 S    
C6    O10   1.347283 S    
N2    C8    1.362024 A    
C55   H19   1.109219 S    
C16   C58   1.515978 S    
C65   H43   1.109677 S    
C49   N4    1.382312 A    
C20   C26   1.418022 A    
C59   H31   1.109946 S    
O1    Cu1   1.963187 S    
C11   H2    1.084749 S    
O18   H41   1.013926 S    
C56   H22   1.108600 S    
C30   C31   1.425108 A    
C12   C28   1.396618 A    
C65   H44   1.108408 S    
C64   O19   1.223299 D    
N2    C18   1.439932 S    
C53   H13   1.109218 S    
C30   C36   1.405831 A    
C5    O9    1.347269 S    
O6    Cu2   1.945733 S    
C21   C23   1.426391 A    
C14   C52   1.489634 S    
O7    C4    1.306420 A    
C48   C49   1.435621 A    
C13   C51   1.489612 S    
C47   C50   1.435631 A    
C57   H25   1.110386 S    
C26   C37   1.416494 A    
C66   H46   1.108403 S    
C35   H3    1.079904 S    
C36   H4    1.079927 S    
C59   H30   1.110285 S    
C42   C44   1.383510 A    
C14   C16   1.421051 A    
C15   C17   1.418305 A    
C59   H29   1.107051 S    
C6    C22   1.420662 A    
C16   C18   1.418243 A    
C48   C54   1.521157 S    
C7    O12   1.348822 S    
O4    C1    1.305774 A    
C22   C24   1.426397 A    
C19   C21   1.418904 A    
C3    C27   1.467274 S    
C20   C22   1.418976 A    
C9    C11   1.394489 A    
O4    Cu2   1.962981 S    
O20   H42   1.013986 S    
O2    Cu2   1.963187 S    
C29   C32   1.425084 A    
C62   H39   1.110295 S    
O8    C3    1.306409 A    
O14   H9    1.013890 S    
C23   C39   1.415114 A    
C41   H5    1.083047 S    
O5    Cu1   1.945733 S    
C24   C40   1.415057 A    
C57   H24   1.107156 S    
C63   O18   1.398450 S    
C19   C34   1.419988 A    
C20   C33   1.420121 A    
C60   H33   1.109962 S    
C54   H14   1.082120 S    
C61   H35   1.110828 S    
C29   C33   1.416887 A    
C50   C56   1.515078 S    
C30   C34   1.416841 A    
C9    C17   1.408291 A    
C64   O20   1.398853 S    
