data_mof_unit_51478.cif
_audit_creation_date              2012-12-10T20:27:15-0500
_audit_creation_method            fapswitch 2.2
_symmetry_space_group_name_H-M    P1
_symmetry_Int_Tables_number       1
_space_group_crystal_system       triclinic
_cell_length_a                    10.752243
_cell_length_b                    10.654685
_cell_length_c                    9.865896
_cell_angle_alpha                 89.867498
_cell_angle_beta                  103.466002
_cell_angle_gamma                 89.33061
_cell_volume                      1099.09204536

loop_
_atom_site_label
_atom_site_type_symbol
_atom_type_description
_atom_site_fract_x
_atom_site_fract_y
_atom_site_fract_z
_atom_type_partial_charge
C1    C     C_R   0.503663 0.260253 0.501440 0.891121
C2    C     C_R   0.590428 0.562574 0.094727 -0.093080
C3    C     C_R   0.590311 0.562759 0.950755 -0.124977
C4    C     C_R   0.259011 0.496352 0.442498 0.952069
C5    C     C_R   0.402399 0.445884 0.904131 0.236430
C6    C     C_3   0.364759 0.311482 0.889317 -0.526150
C7    C     C_3   0.365049 0.311398 0.043296 -0.501391
C8    C     C_R   0.502776 0.739640 0.500534 0.909354
C9    C     C_R   0.741279 0.493967 0.557136 0.937762
C10   C     C_2   0.123141 0.477590 0.411025 -0.368707
C11   C     C_2   0.070576 0.435371 0.511988 -0.277056
C12   C     C_R   0.519205 0.128348 0.509502 -0.122690
C13   C     C_2   0.878469 0.474996 0.586538 -0.407624
C14   C     C_2   0.933317 0.428366 0.487815 0.479306
C15   C     C_R   0.440207 0.064161 0.577475 -0.000905
C16   C     C_3   0.724283 0.135020 0.421212 -0.836753
C17   C     C_3   0.710688 0.855510 0.400624 -0.849631
C18   C     C_R   0.617823 0.064477 0.463039 0.137483
C19   C     C_R   0.614414 0.932062 0.457670 0.173090
C20   C     C_R   0.516384 0.871247 0.505909 -0.191587
C21   C     C_R   0.439981 0.936727 0.577246 0.010697
C22   C     C_3   0.297873 0.932697 0.561368 0.297428
C23   C     C_3   0.298809 0.075526 0.562392 -0.548896
C24   C     C_R   0.402456 0.445821 0.046673 0.215474
H1    H     H_    0.274182 0.118124 0.655604 0.213389
H2    H     H_    0.066548 0.497716 0.306592 0.164306
H3    H     H_    0.245603 0.891371 0.461110 0.120687
H4    H     H_    0.248782 0.118381 0.461169 0.171997
H5    H     H_    0.918450 0.340101 0.312147 0.331333
H6    H     H_    0.721807 0.235964 0.444506 0.272730
H7    H     H_    0.818448 0.100091 0.482227 0.233580
H8    H     H_    0.717907 0.123480 0.307995 0.248325
H9    H     H_    0.754690 0.781795 0.477179 0.227933
H10   H     H_    0.661902 0.810755 0.301435 0.243234
H11   H     H_    0.789814 0.910859 0.377885 0.239046
H12   H     H_    0.665067 0.610815 0.167706 0.156569
H13   H     H_    0.318334 0.914322 0.763898 0.346691
H14   H     H_    0.664593 0.611493 0.915199 0.149868
H15   H     H_    0.267789 0.299774 0.820876 0.190672
H16   H     H_    0.440319 0.249912 0.863901 0.227563
H17   H     H_    0.268349 0.299512 0.063405 0.199391
H18   H     H_    0.441014 0.249990 0.106998 0.228483
H19   H     H_    0.126936 0.417938 0.617226 0.167300
H20   H     H_    0.935887 0.503707 0.687307 0.115392
N1    N     N_R   0.499160 0.499140 0.142600 -0.104982
N2    N     N_R   0.499160 0.499180 0.856960 -0.106066
O1    O     O_R   0.500020 0.316790 0.614700 -0.618149
O2    O     O_3   0.262728 0.879594 0.677683 -0.733627
O3    O     O_R   0.500000 0.316760 0.385350 -0.616810
O4    O     O_R   0.317820 0.500020 0.571850 -0.597430
O5    O     O_R   0.317800 0.499980 0.342510 -0.623798
O6    O     O_R   0.500000 0.683240 0.614650 -0.595007
O7    O     O_R   0.499980 0.683210 0.385300 -0.626261
O8    O     O_R   0.682200 0.500020 0.657490 -0.632565
O9    O     O_R   0.682180 0.499980 0.428150 -0.549283
O10   O     O_3   0.861359 0.385991 0.361239 -0.756681
Zn1   Zn    Zn3+2 0.500010 0.500020 0.653140 0.960515
Zn2   Zn    Zn3+2 0.499990 0.499980 0.346860 0.960886

loop_
_geom_bond_atom_site_label_1
_geom_bond_atom_site_label_2
_ccdc_geom_bond_type
C8    O7    A    
C14   O10   S    
O7    Zn2   S    
C11   H19   S    
C6    C7    S    
C9    O9    A    
H5    O10   S    
C16   H8    S    
C5    N2    A    
C8    O6    A    
C3    N2    A    
C22   O2    S    
C19   C20   A    
C12   C15   A    
C10   H2    S    
C15   C23   S    
C2    C3    A    
C2    N1    A    
O5    Zn2   S    
C23   H4    S    
H13   O2    S    
C5    C24   A    
C17   H10   S    
C8    C20   S    
C1    C12   S    
C17   H9    S    
C24   N1    A    
C21   C22   S    
C17   C19   S    
C22   H3    S    
C7    H17   S    
N2    Zn1   S    
C5    C6    S    
C11   C14   S    
C6    H16   S    
N1    Zn2   S    
O9    Zn2   S    
O1    Zn1   S    
C10   C11   D    
C4    O5    A    
C16   H6    S    
C7    C24   S    
C15   C21   A    
C23   H1    S    
C2    H12   S    
C20   C21   A    
C3    H14   S    
C16   C18   S    
C18   C19   A    
O6    Zn1   S    
C7    H18   S    
C12   C18   A    
C6    H15   S    
C9    C13   S    
C22   C23   S    
C1    O1    A    
C9    O8    A    
C17   H11   S    
C13   C14   D    
O4    Zn1   S    
C1    O3    A    
C13   H20   S    
O3    Zn2   S    
C4    C10   S    
C4    O4    A    
C16   H7    S    
O8    Zn1   S    
