data_mof_unit_37778.cif
_audit_creation_date              2013-03-05T15:48:16-0500
_audit_creation_method            fapswitch 2.2
_symmetry_space_group_name_H-M    P1
_symmetry_Int_Tables_number       1
_space_group_crystal_system       triclinic
_cell_length_a                    11.771689
_cell_length_b                    12.934804
_cell_length_c                    15.826126
_cell_angle_alpha                 94.039234
_cell_angle_beta                  76.864284
_cell_angle_gamma                 102.095899
_cell_volume                      2293.94460999

loop_
_atom_site_label
_atom_site_type_symbol
_atom_site_description
_atom_site_fract_x
_atom_site_fract_y
_atom_site_fract_z
_atom_type_partial_charge
O1    O     O_R   0.419950 0.645670 0.495380 -0.582848
O2    O     O_R   0.580050 0.354330 0.504620 -0.587411
O3    O     O_R   0.611110 0.658410 0.506370 -0.518360
O4    O     O_R   0.388890 0.341590 0.493630 -0.517175
C1    C     C_R   0.522743 0.701242 0.500580 0.843502
C2    C     C_R   0.477230 0.298758 0.499518 0.840427
O5    O     O_R   0.350820 0.490050 0.621260 -0.609680
O6    O     O_R   0.649180 0.509950 0.378740 -0.608221
O7    O     O_R   0.541970 0.502800 0.632250 -0.500267
O8    O     O_R   0.458030 0.497200 0.367750 -0.502972
C3    C     C_R   0.428937 0.487146 0.666906 0.882178
C4    C     C_R   0.571030 0.513837 0.333301 0.878961
Cu1   Cu    Cu3+1 0.386820 0.492450 0.493500 1.085626
Cu2   Cu    Cu3+1 0.613180 0.507550 0.506500 1.084748
C5    C     C_R   0.388697 0.466857 0.760494 -0.230136
C6    C     C_R   0.610706 0.537421 0.240303 -0.214367
C7    C     C_R   0.226466 0.421783 0.885873 0.449597
C8    C     C_R   0.771499 0.586368 0.114964 0.430432
C9    C     C_R   0.266954 0.444637 0.797992 -0.225227
C10   C     C_R   0.732269 0.560273 0.202280 -0.269108
C11   C     C_R   0.469143 0.457358 0.811571 0.354425
C12   C     C_R   0.529554 0.550344 0.190790 0.347176
C13   C     C_R   0.433450 0.471369 0.902274 -0.045914
C14   C     C_R   0.564007 0.539550 0.099740 -0.042928
C15   C     C_R   0.309512 0.445617 0.940655 -0.057923
C16   C     C_R   0.687648 0.565671 0.060950 -0.049474
C17   C     C_R   0.517520 0.507164 0.955417 0.103474
C18   C     C_R   0.479390 0.505912 0.046683 0.099405
C19   C     C_R   0.358407 0.467400 0.082486 -0.089809
C20   C     C_R   0.637967 0.547988 0.919508 -0.095092
C21   C     C_R   0.274314 0.443850 0.031240 -0.052516
C22   C     C_R   0.722374 0.571566 0.970528 -0.047809
C23   C     C_R   0.462376 0.184597 0.502982 -0.021685
C24   C     C_R   0.537618 0.815404 0.497194 -0.021035
C25   C     C_R   0.650481 0.983553 0.439508 -0.151433
C26   C     C_R   0.349570 0.016462 0.560745 -0.149539
C27   C     C_R   0.642481 0.876024 0.449598 -0.082933
C28   C     C_R   0.357599 0.124005 0.550711 -0.085837
C29   C     C_R   0.440338 0.862286 0.534492 -0.199564
C30   C     C_R   0.559635 0.137699 0.465638 -0.203058
C31   C     C_R   0.447037 0.969448 0.524092 0.146330
C32   C     C_R   0.552967 0.030547 0.476082 0.146286
N1    N     N_R   0.216750 0.481110 0.483710 -0.258038
N2    N     N_R   0.783250 0.518890 0.516290 -0.260418
C33   C     C_R   0.941664 0.575090 0.597123 0.239493
C34   C     C_R   0.058722 0.425112 0.402496 0.312913
C35   C     C_R   0.831599 0.585336 0.578534 0.542030
C36   C     C_R   0.168325 0.414418 0.421649 0.518274
C37   C     C_R   0.856882 0.463861 0.460237 0.061240
C38   C     C_R   0.143439 0.536817 0.539190 0.051670
C39   C     C_R   0.979075 0.473010 0.464530 -0.160275
C40   C     C_R   0.021289 0.527627 0.534826 -0.186318
H1    H     H_    0.182082 0.426901 0.064174 0.237931
H2    H     H_    0.814773 0.592308 0.937948 0.250212
S1    S     S_3+6 0.211009 0.290176 0.389838 0.069655
O9    O     O_2   0.337378 0.305244 0.339019 -0.283161
O10   O     O_2   0.196149 0.230545 0.470875 -0.323375
O11   O     O_3   0.124310 0.211804 0.330338 -0.439111
H3    H     H_    0.156406 0.146019 0.319032 0.385501
S2    S     S_3+6 0.787900 0.708964 0.611579 0.073179
O12   O     O_2   0.802927 0.769910 0.531205 -0.315617
O13   O     O_2   0.661318 0.693050 0.662008 -0.288868
O14   O     O_3   0.873769 0.786477 0.672100 -0.441285
H4    H     H_    0.839376 0.850945 0.685896 0.383611
S3    S     S_3+6 0.974859 0.608919 0.701233 0.081047
O15   O     O_2   0.069091 0.708128 0.695613 -0.220623
O16   O     O_2   0.866839 0.625624 0.767695 -0.232260
O17   O     O_3   0.026775 0.510442 0.733718 -0.514672
H5    H     H_    0.961754 0.447522 0.735486 0.368661
S4    S     S_3+6 0.025899 0.389829 0.298481 0.064150
O18   O     O_2   0.134555 0.371841 0.233203 -0.239467
O19   O     O_2   0.930800 0.291136 0.304829 -0.262212
O20   O     O_3   0.976208 0.488734 0.264486 -0.530835
H6    H     H_    0.962904 0.465379 0.205926 0.396846
S5    S     S_3+6 0.424789 0.632634 0.234678 0.026371
O21   O     O_2   0.310290 0.568103 0.283369 -0.289086
O22   O     O_2   0.475736 0.714004 0.295843 -0.286770
O23   O     O_3   0.396657 0.695355 0.154397 -0.505538
H7    H     H_    0.331374 0.731834 0.182908 0.390545
S6    S     S_3+6 0.576368 0.376491 0.770843 0.018610
O24   O     O_2   0.528405 0.292593 0.710188 -0.282743
O25   O     O_2   0.690525 0.441699 0.722429 -0.313488
O26   O     O_3   0.604060 0.317275 0.853224 -0.504304
H8    H     H_    0.671978 0.283083 0.826595 0.385260
H9    H     H_    0.796642 0.566013 0.242294 0.239509
H10   H     H_    0.203074 0.435924 0.757209 0.242351
S7    S     S_3+6 0.075630 0.355041 0.917134 0.057161
O27   O     O_2   0.046548 0.303949 0.003844 -0.244837
O28   O     O_2   0.995383 0.431396 0.917667 -0.223311
O29   O     O_3   0.050227 0.260087 0.841560 -0.514297
H11   H     H_    0.962705 0.235170 0.854328 0.384614
S8    S     S_3+6 0.922700 0.649950 0.080896 0.048596
O30   O     O_2   0.997612 0.568379 0.050191 -0.251881
O31   O     O_2   0.938572 0.726085 0.009640 -0.228489
O32   O     O_3   0.968603 0.717427 0.165933 -0.500593
H12   H     H_    0.055957 0.739886 0.146091 0.392117
H13   H     H_    0.327589 0.456448 0.151000 0.229628
H14   H     H_    0.667690 0.561091 0.851119 0.228236
H15   H     H_    0.641106 0.185150 0.429435 0.165509
H16   H     H_    0.358840 0.814818 0.570644 0.166226
H17   H     H_    0.284004 0.160495 0.583070 0.193413
H18   H     H_    0.716171 0.839555 0.417398 0.194899
H19   H     H_    0.731828 0.029455 0.402017 0.180411
H20   H     H_    0.268257 0.970576 0.598292 0.180276
H21   H     H_    0.180186 0.586620 0.587999 0.209381
H22   H     H_    0.820315 0.414443 0.411157 0.202103

loop_
_geom_bond_atom_site_label_1
_geom_bond_atom_site_label_2
_geom_bond_distance
_ccdc_geom_bond_type
N2    C37   1.365655 A    
C15   C21   1.399313 A    
C36   S1    1.788289 S    
S7    O27   1.502176 D    
C16   C22   1.399001 A    
C24   C27   1.400335 A    
C31   C32   1.413426 A    
O32   H12   0.990609 S    
C8    C16   1.420298 A    
O7    Cu2   1.975978 S    
C9    H10   1.081481 S    
C30   H15   1.085296 S    
O29   H11   0.990742 S    
C29   C31   1.391073 A    
O5    C3    1.299663 A    
S2    O14   1.680597 S    
O1    C1    1.288438 A    
C18   C19   1.404676 A    
C25   C27   1.392279 A    
C14   C16   1.423520 A    
C28   H17   1.082235 S    
C25   H19   1.083819 S    
C27   H18   1.082320 S    
S1    O9    1.501496 D    
S2    O13   1.501259 D    
O20   H6    0.990659 S    
O4    Cu1   1.956747 S    
C25   C32   1.401096 A    
C35   S2    1.788825 S    
C3    C5    1.473348 S    
C4    C6    1.472579 S    
O17   H5    0.990656 S    
C37   C39   1.435141 A    
C38   H21   1.078789 S    
C38   C40   1.434857 A    
S4    O18   1.499226 D    
C13   C17   1.425671 A    
N1    C36   1.401005 A    
N2    C35   1.401273 A    
C6    C10   1.397733 A    
C30   C32   1.391118 A    
Cu1   Cu2   2.684434 S    
C1    C24   1.453473 S    
C17   C20   1.405137 A    
C26   C31   1.401046 A    
O2    C2    1.288335 A    
C12   S5    1.786892 S    
S6    O26   1.682623 S    
C22   H2    1.078512 S    
C33   C35   1.426011 A    
C34   C36   1.426234 A    
C23   C30   1.400399 A    
C39   C40   1.406105 A    
S6    O25   1.500790 D    
O23   H7    0.990553 S    
C33   C40   1.401200 A    
S3    O16   1.498393 D    
O11   H3    0.990651 S    
C34   C39   1.402188 A    
S8    O32   1.682961 S    
C24   C29   1.400320 A    
C6    C12   1.407195 A    
S2    O12   1.500443 D    
C5    C9    1.397671 A    
S5    O21   1.501411 D    
O7    C3    1.297430 A    
O26   H8    0.990556 S    
C5    C11   1.405695 A    
O6    C4    1.300442 A    
S3    O17   1.679774 S    
C10   H9    1.081046 S    
S4    O20   1.679849 S    
S8    O31   1.503323 D    
C21   H1    1.075944 S    
S5    O22   1.503429 D    
O3    Cu2   1.956747 S    
O8    C4    1.296114 A    
O4    C2    1.299926 A    
S1    O10   1.500396 D    
C33   S3    1.782792 S    
C12   C14   1.410714 A    
S7    O29   1.682305 S    
O1    Cu1   1.937481 S    
Cu1   N1    2.016998 S    
Cu2   N2    2.016997 S    
O6    Cu2   1.970454 S    
C7    S7    1.777985 S    
C14   C18   1.426056 A    
S6    O24   1.503574 D    
O3    C1    1.299779 A    
O8    Cu1   1.975978 S    
N1    C38   1.364548 A    
C37   H22   1.078851 S    
C20   H14   1.073069 S    
C23   C28   1.400333 A    
C2    C23   1.453585 S    
C19   H13   1.071783 S    
C26   H20   1.083821 S    
C8    S8    1.774232 S    
C11   C13   1.411069 A    
C7    C15   1.422552 A    
C19   C21   1.390768 A    
C20   C22   1.391115 A    
C29   H16   1.085296 S    
C11   S6    1.786433 S    
C26   C28   1.392248 A    
S8    O30   1.499991 D    
C7    C9    1.395174 A    
C8    C10   1.395382 A    
C13   C15   1.424971 A    
O2    Cu2   1.937479 S    
S5    O23   1.682596 S    
C34   S4    1.782348 S    
O14   H4    0.991262 S    
O5    Cu1   1.970453 S    
S3    O15   1.503252 D    
S1    O11   1.680686 S    
C17   C18   1.411941 A    
S7    O28   1.501346 D    
S4    O19   1.503654 D    
