data_mof_unit_60806.cif
_audit_creation_date              2012-12-10T16:56:11-0500
_audit_creation_method            fapswitch 2.2
_symmetry_space_group_name_H-M    P1
_symmetry_Int_Tables_number       1
_space_group_crystal_system       triclinic
_cell_length_a                    9.702589
_cell_length_b                    10.957472
_cell_length_c                    13.885133
_cell_angle_alpha                 90.109202
_cell_angle_beta                  84.849374
_cell_angle_gamma                 89.96707
_cell_volume                      1470.24585493

loop_
_atom_site_label
_atom_site_type_symbol
_atom_type_description
_atom_site_fract_x
_atom_site_fract_y
_atom_site_fract_z
_atom_type_partial_charge
C1    C     C_R   0.500013 0.734687 0.501069 0.914139
C2    C     C_1   0.464125 0.500103 0.786140 -0.111286
C3    C     C_2   0.613525 0.066627 0.506952 0.576565
C4    C     C_2   0.500197 0.133231 0.494209 -0.530296
C5    C     C_2   0.615012 0.933396 0.498823 0.591801
C6    C     C_2   0.498245 0.866741 0.507020 -0.530803
C7    C     C_2   0.071987 0.583515 0.542126 -0.090017
C8    C     C_2   0.916583 0.571608 0.554152 0.794184
C9    C     C_R   0.477604 0.500005 0.682954 0.798650
C10   C     C_R   0.500255 0.265313 0.499364 0.907243
C11   C     C_R   0.522406 0.500012 0.317042 0.788857
C12   C     C_1   0.535925 0.500037 0.213848 -0.108823
C13   C     C_2   0.557200 0.500062 0.023318 -0.140655
C14   C     C_2   0.442910 0.500260 0.976665 -0.150657
C15   C     C_1   0.453519 0.500185 0.873003 0.032149
C16   C     C_1   0.546572 0.500054 0.126982 0.033976
Cu1   Cu    Cu3+1 0.361370 0.499980 0.499980 0.996746
Cu2   Cu    Cu3+1 0.638630 0.500020 0.500020 1.168604
H1    H     H_    0.340912 0.500443 0.016026 0.171243
H2    H     H_    0.404450 0.091756 0.476412 0.135190
H3    H     H_    0.397214 0.908180 0.521746 0.130830
H4    H     H_    0.117728 0.662495 0.573990 0.174404
H5    H     H_    0.109733 0.419379 0.484049 0.270429
N1    N     N_2   0.152970 0.501340 0.501040 -0.286757
N2    N     N_2   0.846830 0.501370 0.501060 0.044492
O1    O     O_R   0.382960 0.678040 0.499980 -0.595760
O2    O     O_R   0.617100 0.678080 0.500020 -0.485253
O3    O     O_R   0.366380 0.499950 0.637830 -0.586775
O4    O     O_R   0.600520 0.499990 0.637860 -0.546288
O5    O     O_R   0.382900 0.321920 0.499980 -0.591349
O6    O     O_R   0.617040 0.321960 0.500020 -0.490166
O7    O     O_R   0.399480 0.500010 0.362140 -0.564364
O8    O     O_R   0.633620 0.500050 0.362170 -0.521038
F1    F     F_    0.912472 0.460306 0.418500 -0.574639
H6    H     H_    0.659200 0.499871 0.983959 0.174804
F2    F     F_    0.734490 0.121143 0.525376 -0.578559
F3    F     F_    0.741500 0.879022 0.485178 -0.572475
F4    F     F_    0.846672 0.640864 0.623540 -0.648349

loop_
_geom_bond_atom_site_label_1
_geom_bond_atom_site_label_2
_ccdc_geom_bond_type
C2    C9    S    
C11   C12   S    
C2    C15   T    
C5    F3    S    
C7    H4    S    
C10   O5    A    
C9    O4    A    
N2    F1    S    
H5    N1    S    
Cu1   O5    S    
C3    C4    D    
C7    C8    S    
Cu2   O4    S    
C13   C14   D    
C8    N2    D    
Cu1   O3    S    
C5    C6    D    
Cu2   N2    S    
C8    F4    S    
C3    F2    S    
Cu1   O1    S    
C10   O6    A    
C11   O7    A    
C13   H6    S    
C1    O1    A    
Cu2   O8    S    
Cu1   N1    S    
C4    C10   S    
C7    N1    D    
C4    H2    S    
C12   C16   T    
C11   O8    A    
Cu1   Cu2   S    
C13   C16   S    
C1    O2    A    
Cu1   O7    S    
C14   C15   S    
Cu2   O6    S    
C6    H3    S    
C14   H1    S    
Cu2   O2    S    
C1    C6    S    
C9    O3    A    
C3    C5    S    
