data_mof_unit_44066.cif
_audit_creation_date              2012-12-11T18:37:43-0500
_audit_creation_method            fapswitch 2.2
_symmetry_space_group_name_H-M    P1
_symmetry_Int_Tables_number       1
_space_group_crystal_system       triclinic
_cell_length_a                    8.219231
_cell_length_b                    14.328598
_cell_length_c                    27.041216
_cell_angle_alpha                 93.277824
_cell_angle_beta                  93.260731
_cell_angle_gamma                 88.138376
_cell_volume                      3172.92261097

loop_
_atom_site_label
_atom_site_type_symbol
_atom_type_description
_atom_site_fract_x
_atom_site_fract_y
_atom_site_fract_z
_atom_type_partial_charge
Ba1   Ba    Ba6+2 0.849670 0.455410 0.524690 1.668675
Ba2   Ba    Ba6+2 0.340150 0.544510 0.475310 1.661805
C1    C     C_3   0.667238 0.108602 0.664641 -0.284744
C2    C     C_R   0.916901 0.589279 0.175133 0.573808
C3    C     C_2   0.762198 0.561318 0.270572 -0.084891
C4    C     C_3   0.104167 0.252255 0.665330 0.341005
C5    C     C_3   0.749272 0.592678 0.324362 -0.046999
C6    C     C_1   0.978323 0.484625 0.343461 0.032328
C7    C     C_2   0.017122 0.479248 0.295934 -0.103072
C8    C     C_2   0.900906 0.516953 0.255899 0.193452
C9    C     C_R   0.013353 0.501624 0.101789 -0.079572
C10   C     C_R   0.035876 0.422450 0.130337 -0.036210
C11   C     C_R   0.095728 0.339101 0.107547 -0.059914
C12   C     C_3   0.637455 0.204194 0.643636 0.297905
C13   C     C_R   0.953103 0.585340 0.124563 -0.024557
C14   C     C_2   0.850221 0.533475 0.359308 -0.290192
C15   C     C_2   0.353615 0.482835 0.643287 -0.248641
C16   C     C_3   0.086240 0.224228 0.718081 -0.272106
C17   C     C_R   0.149849 0.407931 0.976751 0.019625
C18   C     C_R   0.062514 0.573503 0.970995 0.019602
C19   C     C_R   0.124689 0.488610 0.948524 0.051574
C20   C     C_R   0.212754 0.325491 0.952464 -0.100917
C21   C     C_R   0.248986 0.322351 0.902712 -0.055030
C22   C     C_R   0.224680 0.401119 0.874486 -0.022115
C23   C     C_3   0.563498 0.692461 0.626210 0.282185
C24   C     C_R   0.162379 0.484372 0.897224 -0.080073
C25   C     C_R   0.138360 0.563425 0.868692 -0.049964
C26   C     C_R   0.177642 0.558480 0.818156 0.626629
C27   C     C_R   0.261609 0.397640 0.823909 0.566429
C28   C     C_3   0.162055 0.258122 0.424027 0.310159
C29   C     C_2   0.417127 0.428312 0.728285 -0.081538
C30   C     C_3   0.438157 0.409311 0.673562 -0.056746
C31   C     C_1   0.212506 0.518788 0.657236 0.040764
C32   C     C_2   0.164994 0.514136 0.703587 -0.041810
C33   C     C_2   0.277097 0.471248 0.743245 0.204559
C34   C     C_3   0.631058 0.720313 0.678745 -0.172514
C35   C     C_R   0.111919 0.412108 0.027931 0.020538
C36   C     C_R   0.050629 0.497174 0.050453 0.049926
C37   C     C_R   0.026055 0.577920 0.022250 0.020391
C38   C     C_R   0.132928 0.333892 0.057755 -0.098093
C39   C     C_R   0.930288 0.664264 0.096431 -0.059639
C40   C     C_3   0.166143 0.152672 0.413351 -0.382146
C41   C     C_R   0.039027 0.651385 0.941044 -0.097403
C42   C     C_R   0.076228 0.646320 0.891317 -0.045935
C43   C     C_R   0.965653 0.660839 0.046664 -0.100624
C44   C     C_R   0.690009 0.064819 0.472156 -0.032308
C45   C     C_3   0.082219 0.745177 0.333347 0.339212
C46   C     C_R   0.512855 0.198698 0.501818 0.049446
C47   C     C_R   0.378539 0.230409 0.528131 -0.301349
C48   C     C_R   0.278323 0.167462 0.547987 0.002067
C49   C     C_R   0.320837 0.072634 0.546246 -0.130064
C50   C     C_R   0.461145 0.039540 0.522706 -0.016286
C51   C     C_R   0.556262 0.101794 0.498574 -0.027218
C52   C     C_3   0.043424 0.743444 0.575275 0.369084
C53   C     C_R   0.638198 0.907798 0.496547 -0.004666
C54   C     C_R   0.733609 0.969100 0.471900 0.006014
C55   C     C_R   0.681594 0.811532 0.495489 0.040852
C56   C     C_3   0.098225 0.771018 0.280125 -0.314972
C57   C     C_R   0.815874 0.777671 0.470152 -0.301484
C58   C     C_R   0.917130 0.838454 0.449180 0.013509
C59   C     C_R   0.874842 0.934029 0.448916 -0.131147
C60   C     C_R   0.503344 0.944336 0.521822 0.006003
C61   C     C_3   0.057792 0.849172 0.585241 0.621263
C62   C     C_3   0.658235 0.339641 0.380103 0.300106
C63   C     C_3   0.656823 0.316551 0.324486 -0.362194
C64   C     C_2   0.566598 0.662849 0.717350 0.797301
C65   C     C_3   0.547327 0.795116 0.354740 0.361058
C66   C     C_3   0.514346 0.889929 0.333027 -0.363572
C67   C     C_R   0.997249 0.427914 0.181013 0.597585
Cl1   Cl    Cl    0.887070 0.897470 0.616487 -0.651427
Cl2   Cl    Cl    0.238219 0.875544 0.622725 -0.639228
H1    H     H_    0.683120 0.201393 0.605648 0.083113
H2    H     H_    0.798920 0.088971 0.665181 0.191900
H3    H     H_    0.746196 0.258686 0.316337 0.133134
H4    H     H_    0.689429 0.378652 0.304977 0.070474
H5    H     H_    0.533199 0.295180 0.310418 0.134128
H6    H     H_    0.503469 0.218445 0.641572 -0.047863
H7    H     H_    0.598845 0.055351 0.641123 0.134865
H8    H     H_    0.429328 0.684832 0.625674 0.041306
H9    H     H_    0.622709 0.624896 0.614036 0.019447
H10   H     H_    0.598439 0.794946 0.688061 0.151376
H11   H     H_    0.766334 0.713217 0.679946 0.127394
H12   H     H_    0.255827 0.132979 0.385072 0.128505
H13   H     H_    0.625084 0.109575 0.702966 0.124302
H14   H     H_    0.085611 0.287720 0.743405 0.106579
H15   H     H_    0.153702 0.679107 0.339107 0.090581
H16   H     H_    0.951684 0.734478 0.338878 -0.053685
H17   H     H_    0.218200 0.801770 0.275620 0.147232
H18   H     H_    0.089288 0.707175 0.255213 0.122867
H19   H     H_    0.000353 0.822421 0.269379 0.119357
H20   H     H_    0.681458 0.781632 0.355986 -0.066326
H21   H     H_    0.504959 0.798807 0.393124 0.073586
H22   H     H_    0.583986 0.944029 0.355533 0.067669
H23   H     H_    0.201288 0.116305 0.447556 0.062378
H24   H     H_    0.382745 0.909485 0.333349 0.150855
H25   H     H_    0.026331 0.315939 0.659365 0.077422
H26   H     H_    0.553151 0.887834 0.294297 0.123069
H27   H     H_    0.134435 0.449159 0.285985 0.130260
H28   H     H_    0.114432 0.276781 0.128290 0.122488
H29   H     H_    0.506671 0.399561 0.754732 0.119387
H30   H     H_    0.296869 0.257065 0.886345 0.127276
H31   H     H_    0.236366 0.261336 0.970754 0.071187
H32   H     H_    0.177825 0.266634 0.043891 0.069987
H33   H     H_    0.671038 0.586798 0.243587 0.118985
H34   H     H_    0.043583 0.129529 0.399275 0.118127
H35   H     H_    0.884380 0.729947 0.112895 0.123189
H36   H     H_    0.991549 0.718204 0.954666 0.072310
H37   H     H_    0.233610 0.268021 0.661082 -0.067198
H38   H     H_    0.055707 0.708432 0.870493 0.134928
H39   H     H_    0.046946 0.543496 0.713258 0.147800
H40   H     H_    0.944129 0.725347 0.028568 0.070607
H41   H     H_    0.835721 0.547743 0.398678 0.082468
H42   H     H_    0.404318 0.501249 0.609044 0.052037
H43   H     H_    0.344504 0.304076 0.529852 0.070890
H44   H     H_    0.241634 0.024865 0.561932 0.141308
H45   H     H_    0.919095 0.726878 0.560761 -0.081157
H46   H     H_    0.953505 0.980728 0.432000 0.070039
H47   H     H_    0.849124 0.703954 0.470209 0.062389
H48   H     H_    0.762895 0.109336 0.451994 0.097491
H49   H     H_    0.969624 0.188805 0.721178 0.146544
H50   H     H_    0.428388 0.899306 0.540834 0.139347
H51   H     H_    0.188577 0.176173 0.729459 0.141133
H52   H     H_    0.286269 0.281143 0.435000 0.001060
H53   H     H_    0.079950 0.275324 0.454632 0.065462
H54   H     H_    0.617412 0.575034 0.772192 0.309384
H55   H     H_    0.130181 0.720230 0.547008 0.009721
H56   H     H_    0.062386 0.883160 0.549505 -0.076334
H57   H     H_    0.783185 0.357294 0.393823 0.010310
H58   H     H_    0.574277 0.400654 0.386894 0.080312
N1    N     N_R   0.938993 0.511040 0.203301 -0.421759
N2    N     N_R   0.237866 0.475858 0.795775 -0.430256
O1    O     O_2   0.918080 0.549800 0.616640 -0.466614
O2    O     O_2   0.255353 0.834278 0.457272 -0.498616
O3    O     O_3   0.142378 0.817484 0.365741 -0.600642
O4    O     O_3   0.150070 0.549720 0.556460 -0.503293
O5    O     O_3   0.546340 0.387390 0.478340 -0.486355
O6    O     O_2   0.398940 0.728800 0.517420 -0.470577
O7    O     O_3   0.597872 0.765180 0.596265 -0.574285
O8    O     O_2   0.414549 0.544573 0.321617 -0.497526
O9    O     O_3   0.463409 0.725604 0.325439 -0.593985
O10   O     O_2   0.013266 0.358092 0.204945 -0.596682
O11   O     O_2   0.314069 0.324147 0.804944 -0.617276
O12   O     O_3   0.608390 0.261383 0.403317 -0.640142
O13   O     O_2   0.866426 0.663254 0.194099 -0.620546
O14   O     O_2   0.160500 0.628510 0.794434 -0.529884
O15   O     O_3   0.658250 0.379560 0.591530 -0.482535
O16   O     O_2   0.775933 0.453012 0.678401 -0.468939
O17   O     O_3   0.077010 0.699044 0.619564 -0.574821
O18   O     O_3   0.720395 0.272343 0.674152 -0.602406
O19   O     O_2   0.790750 0.271170 0.482550 -0.473095
O20   O     O_3   0.062300 0.331660 0.568480 -0.504681
O21   O     O_2   0.941145 0.165219 0.540396 -0.475644
O22   O     O_2   0.421759 0.668329 0.725398 -0.562149
O23   O     O_3   0.054980 0.178618 0.632005 -0.568933
O24   O     O_R   0.673926 0.607264 0.745811 -0.725874
O25   O     O_2   0.271610 0.450170 0.383330 -0.460509
O26   O     O_3   0.039630 0.450200 0.443530 -0.500948
O27   O     O_3   0.531440 0.620360 0.408460 -0.481214
O28   O     O_3   0.106191 0.300679 0.380820 -0.624103
O29   O     O_3   0.643350 0.612530 0.521650 -0.479301
O30   O     O_3   0.127390 0.668260 0.431510 -0.491165
P1    P     P_3+3 0.090020 0.577590 0.608380 1.023141
P2    P     P_3+3 0.614340 0.285150 0.467650 0.971206
P3    P     P_3+3 0.083843 0.210332 0.571710 0.971458
P4    P     P_3+3 0.099670 0.422330 0.391610 0.989394
P5    P     P_3+3 0.110715 0.789985 0.426513 0.939937
P6    P     P_3+3 0.650502 0.382234 0.655719 0.964386
P7    P     P_3+3 0.584528 0.729541 0.533301 0.991742
P8    P     P_3+3 0.537942 0.616754 0.344132 0.944584

loop_
_geom_bond_atom_site_label_1
_geom_bond_atom_site_label_2
_ccdc_geom_bond_type
C53   C54   A    
O9    P8    S    
C33   N2    S    
C23   H9    S    
O18   P6    S    
C4    H37   S    
O15   P6    S    
Ba1   O1    S    
C15   H42   S    
C55   P7    S    
C27   N2    Am   
O19   P2    D    
C52   H55   S    
C26   O14   D    
C7    H27   S    
C63   H5    S    
O23   P3    S    
C17   C19   A    
C22   C24   A    
C32   C33   S    
C35   C38   A    
C36   C37   A    
C34   C64   S    
C55   C57   A    
C52   C61   S    
C67   O10   D    
C53   C60   A    
C12   O18   S    
O7    P7    S    
Ba1   Ba2   S    
C12   H6    S    
C22   C27   A    
C11   C38   A    
C17   C35   A    
C66   H26   S    
C9    C13   A    
C25   C42   A    
C64   O24   S    
C34   H11   S    
C6    C7    D    
C62   H57   S    
C52   H45   S    
C21   C22   A    
O3    P5    S    
Ba1   O20   S    
Ba1   O5    S    
C7    C8    S    
O30   P5    S    
C37   C43   A    
C42   H38   S    
C47   H43   S    
C3    H33   S    
C57   C58   A    
C6    C14   D    
C40   H23   S    
C46   P2    S    
Ba1   O15   S    
C28   O28   S    
C15   C31   D    
Ba2   O30   S    
O12   P2    S    
C56   H18   S    
C19   C24   A    
C48   C49   A    
O1    P1    D    
C46   C51   A    
C4    C16   S    
C66   H24   S    
C39   H35   S    
C48   P3    S    
C65   C66   S    
C16   H14   S    
C45   H15   S    
C17   C20   A    
C13   C39   A    
O26   P4    S    
C3    C5    S    
C18   C37   A    
C67   N1    Am   
C2    N1    Am   
C59   H46   S    
Ba2   O5    S    
C63   H3    S    
C49   C50   A    
C58   C59   A    
C45   H16   S    
C11   H28   S    
C9    C36   A    
C41   C42   A    
C8    N1    S    
C35   C36   A    
C29   C30   S    
C61   Cl1   S    
C34   H10   S    
Ba2   O27   S    
C65   H20   S    
C31   C32   D    
C24   C25   A    
Ba1   O19   S    
C54   C59   A    
C41   H36   S    
C29   H29   S    
C28   H52   S    
C65   O9    S    
C56   H19   S    
Ba2   P4    S    
O21   P3    D    
C1    C12   S    
O16   P6    D    
C16   H51   S    
Ba2   O29   S    
C46   C47   A    
C10   C67   A    
C61   Cl2   S    
Ba1   P1    S    
O20   P3    S    
C57   H47   S    
C4    H25   S    
C5    P8    S    
C45   O3    S    
C32   H39   S    
O4    P1    S    
C29   C33   D    
C16   H49   S    
C25   C26   A    
C18   C41   A    
C50   C51   A    
C14   H41   S    
C52   O17   S    
C5    C14   S    
Ba2   O25   S    
C23   H8    S    
Ba2   O6    S    
C12   H1    S    
Ba1   O29   S    
C40   H12   S    
Ba2   O4    S    
C28   H53   S    
C56   H17   S    
C2    O13   D    
C64   O22   D    
C23   O7    S    
C9    C10   A    
C43   H40   S    
O27   P8    S    
C62   O12   S    
C62   H58   S    
C66   H22   S    
C20   H31   S    
C26   N2    Am   
O17   P1    S    
C62   C63   S    
C2    C13   A    
C53   C55   A    
C31   P1    S    
C3    C8    D    
C50   C60   A    
O2    P5    D    
C38   H32   S    
C4    O23   S    
C21   H30   S    
O25   P4    D    
Ba2   O26   S    
C27   O11   D    
C44   C51   A    
Ba1   O26   S    
C65   H21   S    
C44   H48   S    
O8    P8    D    
O29   P7    S    
C1    H2    S    
C40   H34   S    
C49   H44   S    
C6    P4    S    
C23   C34   S    
O28   P4    S    
C18   C19   A    
Ba1   P2    S    
O6    P7    D    
C58   P5    S    
C47   C48   A    
C30   P6    S    
C44   C54   A    
C1    H13   S    
C15   C30   S    
C39   C43   A    
C20   C21   A    
C28   C40   S    
C10   C11   A    
Ba1   O4    S    
C1    H7    S    
C60   H50   S    
C61   H56   S    
C63   H4    S    
H54   O24   S    
C45   C56   S    
O5    P2    S    
