data_mof_unit_34019.cif
_audit_creation_date              2012-12-11T17:14:58-0500
_audit_creation_method            fapswitch 2.2
_symmetry_space_group_name_H-M    P1
_symmetry_Int_Tables_number       1
_space_group_crystal_system       triclinic
_cell_length_a                    7.267666
_cell_length_b                    12.085761
_cell_length_c                    21.494152
_cell_angle_alpha                 89.820979
_cell_angle_beta                  90.626694
_cell_angle_gamma                 89.969218
_cell_volume                      1887.82228062

loop_
_atom_site_label
_atom_site_type_symbol
_atom_type_description
_atom_site_fract_x
_atom_site_fract_y
_atom_site_fract_z
_atom_type_partial_charge
O1    O     O_R   0.354460 0.152320 0.595720 -0.530726
O2    O     O_R   0.645540 0.847680 0.404280 -0.532655
O3    O     O_R   0.145540 0.652320 0.404280 -0.531922
O4    O     O_R   0.854460 0.347680 0.595720 -0.532231
O5    O     O_R   0.683670 0.140090 0.727290 -0.528783
O6    O     O_R   0.316330 0.859910 0.272710 -0.552397
O7    O     O_R   0.816330 0.640090 0.272710 -0.537364
O8    O     O_R   0.183670 0.359910 0.727290 -0.556390
O9    O     O_R   0.854010 0.349340 0.727750 -0.532000
O10   O     O_R   0.145990 0.650660 0.272250 -0.551881
O11   O     O_R   0.645990 0.849340 0.272250 -0.523707
O12   O     O_R   0.354010 0.150660 0.727750 -0.553837
C1    C     C_R   0.516231 0.113246 0.747014 0.699182
C2    C     C_R   0.483138 0.887699 0.253373 0.696578
C3    C     C_R   0.983034 0.613840 0.252611 0.735391
C4    C     C_R   0.016840 0.384022 0.748382 0.718318
O13   O     O_R   0.684170 0.139420 0.596190 -0.535393
O14   O     O_R   0.315830 0.860580 0.403810 -0.534284
O15   O     O_R   0.815830 0.639420 0.403810 -0.536073
O16   O     O_R   0.184170 0.360580 0.596190 -0.533531
C5    C     C_R   0.515125 0.113186 0.574490 0.713354
C6    C     C_R   0.484874 0.886814 0.425510 0.711391
C7    C     C_R   0.984893 0.613210 0.425480 0.711511
C8    C     C_R   0.015108 0.386785 0.574518 0.716092
O17   O     O_3   0.520730 0.319480 0.661730 -0.382997
O18   O     O_3   0.479270 0.680520 0.338270 -0.384526
O19   O     O_3   0.979270 0.819480 0.338270 -0.376281
O20   O     O_3   0.020730 0.180520 0.661730 -0.378852
V1    V     V_3+5 0.795560 0.238090 0.661730 1.434009
V2    V     V_3+5 0.204440 0.761910 0.338270 1.402508
V3    V     V_3+5 0.704440 0.738090 0.338270 1.433568
V4    V     V_3+5 0.295560 0.261910 0.661730 1.389984
C9    C     C_R   0.011873 0.452848 0.803890 -0.118045
C10   C     C_R   0.985339 0.536466 0.200707 -0.115998
C11   C     C_R   0.481803 0.962847 0.200371 -0.099678
C12   C     C_R   0.504822 0.039961 0.800501 -0.101954
C13   C     C_R   0.987923 0.637219 0.844307 -0.174254
C14   C     C_R   0.015085 0.349037 0.165382 -0.170869
C15   C     C_R   0.432476 0.149074 0.163162 -0.171736
C16   C     C_R   0.432301 0.857117 0.837804 -0.172018
C17   C     C_R   0.030992 0.566609 0.796139 -0.256252
C18   C     C_R   0.028797 0.426277 0.212574 -0.259925
C19   C     C_R   0.446475 0.074347 0.211933 -0.246281
C20   C     C_R   0.461775 0.929467 0.788973 -0.247788
C21   C     C_R   0.967632 0.406666 0.862693 0.360788
C22   C     C_R   0.931835 0.571722 0.140558 0.367593
C23   C     C_R   0.495810 0.923047 0.138552 0.361157
C24   C     C_R   0.511985 0.081684 0.862187 0.355396
C25   C     C_R   0.940553 0.478831 0.914523 -0.001953
C26   C     C_R   0.924230 0.494120 0.090407 -0.012328
C27   C     C_R   0.463376 0.998045 0.088212 -0.009238
C28   C     C_R   0.469298 0.008899 0.912484 -0.011077
C29   C     C_R   0.937930 0.594704 0.902265 0.087515
C30   C     C_R   0.965672 0.381773 0.104918 0.088055
C31   C     C_R   0.441572 0.112293 0.101718 0.082760
C32   C     C_R   0.436981 0.895240 0.899070 0.083565
C33   C     C_R   0.920758 0.442902 0.978293 0.064133
C34   C     C_R   0.892617 0.523570 0.026048 0.054555
C35   C     C_R   0.452595 0.963780 0.024633 0.066564
C36   C     C_R   0.458975 0.044223 0.975971 0.064927
C37   C     C_R   0.842203 0.631136 0.006774 -0.176673
C38   C     C_R   0.938749 0.331385 0.997171 -0.157048
C39   C     C_R   0.437505 0.156405 0.992274 -0.138304
C40   C     C_R   0.416710 0.853088 0.008313 -0.154912
C41   C     C_R   0.876305 0.667769 0.947143 -0.213056
C42   C     C_R   0.960394 0.301815 0.058881 -0.209147
C43   C     C_R   0.426489 0.189403 0.053745 -0.200201
C44   C     C_R   0.407224 0.819802 0.946895 -0.207871
H1    H     H_    0.852365 0.754206 0.935905 0.143721
H2    H     H_    0.982545 0.215266 0.070329 0.138374
H3    H     H_    0.405898 0.276413 0.063779 0.136119
H4    H     H_    0.376862 0.733794 0.936797 0.136074
H5    H     H_    0.067775 0.399471 0.259042 0.129072
H6    H     H_    0.064781 0.601146 0.751091 0.129158
H7    H     H_    0.452173 0.898924 0.741681 0.125907
H8    H     H_    0.432973 0.103957 0.259216 0.125903
H9    H     H_    0.990631 0.725730 0.835923 0.135373
H10   H     H_    0.046287 0.263246 0.175993 0.135628
H11   H     H_    0.411580 0.235887 0.173518 0.134013
H12   H     H_    0.403437 0.771014 0.827561 0.134612
C45   C     C_1   0.995386 0.533139 0.478068 -0.174586
C46   C     C_1   0.004617 0.466851 0.521927 -0.175987
C47   C     C_1   0.504636 0.033116 0.521907 -0.174851
C48   C     C_1   0.495361 0.966885 0.478093 -0.174128
O21   O     O_3   0.865740 0.678070 0.133886 -0.555102
C49   C     C_3   0.010468 0.753579 0.125126 -0.224948
H13   H     H_    0.124999 0.718253 0.097555 0.097477
H14   H     H_    0.056297 0.786311 0.170803 0.149025
H15   H     H_    0.956799 0.825440 0.098294 0.183187
O22   O     O_3   0.901405 0.299401 0.864931 -0.544100
C50   C     C_3   0.042652 0.220238 0.859659 -0.227303
H16   H     H_    0.987848 0.139120 0.875073 0.179814
H17   H     H_    0.159680 0.239414 0.891276 0.086524
H18   H     H_    0.084238 0.208545 0.810825 0.149929
O23   O     O_3   0.599675 0.181526 0.875232 -0.542817
C51   C     C_3   0.517411 0.274429 0.845541 -0.132392
H19   H     H_    0.379819 0.259482 0.825924 0.071304
H20   H     H_    0.604940 0.303836 0.807166 0.196530
H21   H     H_    0.507224 0.343081 0.879479 0.132617
O24   O     O_3   0.579680 0.821790 0.126375 -0.549308
C52   C     C_3   0.486757 0.730281 0.152852 -0.152032
H22   H     H_    0.348521 0.749366 0.169933 0.068800
H23   H     H_    0.568113 0.695969 0.192151 0.201653
H24   H     H_    0.474197 0.663747 0.117614 0.131006
H25   H     H_    0.775494 0.690014 0.035989 0.220606
H26   H     H_    0.941728 0.262927 0.966481 0.199340
H27   H     H_    0.414171 0.220214 0.958424 0.157443
H28   H     H_    0.381191 0.791700 0.042145 0.151886

loop_
_geom_bond_atom_site_label_1
_geom_bond_atom_site_label_2
_ccdc_geom_bond_type
C25   C29   A    
O1    C5    A    
C52   H22   S    
C24   O23   S    
O3    V2    S    
C9    C21   A    
O3    C7    A    
O23   C51   S    
C10   C18   A    
C11   C23   A    
C45   C46   T    
C33   C34   A    
C25   C33   A    
C33   C38   A    
O21   C49   S    
C35   C40   A    
C26   C30   A    
C36   C39   A    
C40   C44   A    
O20   V1    S    
O9    C4    A    
C14   C18   A    
O10   C3    A    
O4    C8    A    
O11   C2    A    
C49   H14   S    
C43   H3    S    
C50   H17   S    
C51   H21   S    
O13   V1    S    
C8    C46   S    
C28   C36   A    
C17   H6    S    
C15   C31   A    
O16   C8    A    
C16   C32   A    
C51   H20   S    
O2    C6    A    
C16   H12   S    
C10   C22   A    
C11   C19   A    
C3    C10   S    
O5    C1    A    
O4    V1    S    
O9    V1    S    
C22   O21   S    
C13   C29   A    
C34   C37   A    
O7    C3    A    
O15   V3    S    
C35   C36   A    
C52   H23   S    
O12   V4    S    
O19   V2    S    
C40   H28   S    
O5    V1    S    
C39   C43   A    
O7    V3    S    
C38   C42   A    
C26   C34   A    
C5    C47   S    
C1    C12   S    
C2    C11   S    
C49   H13   S    
C15   C19   A    
C14   H10   S    
C32   C44   A    
C13   H9    S    
O1    V4    S    
O13   C5    A    
C23   O24   S    
O2    V3    S    
C6    C48   S    
C20   H7    S    
O15   C7    A    
C4    C9    S    
O6    C2    A    
O10   V2    S    
C31   C43   A    
C47   C48   T    
C14   C30   A    
C21   C25   A    
C44   H4    S    
C51   H19   S    
C21   O22   S    
O14   V2    S    
O6    V2    S    
C16   C20   A    
C52   H24   S    
C12   C20   A    
C27   C35   A    
C39   H27   S    
C50   H16   S    
C37   H25   S    
O16   V4    S    
C19   H8    S    
C18   H5    S    
C7    C45   S    
O14   C6    A    
O18   V3    S    
C49   H15   S    
C23   C27   A    
C38   H26   S    
C22   C26   A    
C9    C17   A    
C50   H18   S    
O22   C50   S    
C42   H2    S    
O8    V4    S    
C29   C41   A    
O17   V4    S    
C41   H1    S    
O24   C52   S    
C12   C24   A    
C27   C31   A    
C13   C17   A    
O11   V3    S    
C37   C41   A    
C24   C28   A    
O12   C1    A    
O8    C4    A    
C30   C42   A    
C28   C32   A    
C15   H11   S    
