data_mof_unit_27554.cif
_audit_creation_date              2012-12-11T15:48:33-0500
_audit_creation_method            fapswitch 2.2
_symmetry_space_group_name_H-M    P1
_symmetry_Int_Tables_number       1
_space_group_crystal_system       triclinic
_cell_length_a                    10.929568
_cell_length_b                    10.931223
_cell_length_c                    18.784834
_cell_angle_alpha                 90.668184
_cell_angle_beta                  90.488481
_cell_angle_gamma                 60.526745
_cell_volume                      1953.70397883

loop_
_atom_site_label
_atom_site_type_symbol
_atom_type_description
_atom_site_fract_x
_atom_site_fract_y
_atom_site_fract_z
_atom_type_partial_charge
C1    C     C_R   0.239915 0.645427 0.610494 0.542103
C2    C     C_3   0.669855 0.551142 0.799552 -0.253552
C3    C     C_3   0.698325 0.673818 0.812292 0.051004
C4    C     C_3   0.670072 0.648110 0.676215 0.058115
C5    C     C_3   0.815639 0.633157 0.690733 -0.248366
C6    C     C_3   0.655168 0.534893 0.719223 -0.212903
C7    C     C_R   0.682570 0.152131 0.822306 0.016192
C8    C     C_R   0.780246 0.173718 0.785068 -0.006991
C9    C     C_R   0.774395 0.182574 0.710914 0.011700
C10   C     C_R   0.578465 0.140374 0.709433 -0.180819
C11   C     C_R   0.574832 0.147250 0.782611 -0.171951
C12   C     C_R   0.654010 0.622386 0.600805 0.539473
C13   C     C_3   0.935799 0.091256 0.786493 -0.270866
C14   C     C_3   0.930807 0.098872 0.705900 -0.281312
C15   C     C_R   0.674800 0.163428 0.672023 0.015519
C16   C     C_R   0.181339 0.667045 0.835296 0.012540
C17   C     C_R   0.154515 0.575531 0.794006 0.016974
C18   C     C_R   0.163223 0.573231 0.720183 -0.004659
C19   C     C_R   0.215517 0.762551 0.726372 -0.171833
C20   C     C_R   0.214722 0.759274 0.800322 -0.179403
C21   C     C_3   0.228161 0.419214 0.797367 -0.281967
C22   C     C_3   0.235344 0.417269 0.716848 -0.271434
C23   C     C_R   0.630390 0.225382 0.601814 0.537016
C24   C     C_R   0.195995 0.665084 0.684959 0.011943
C25   C     C_R   0.667776 0.680629 0.172775 0.017107
C26   C     C_R   0.773280 0.568145 0.209384 0.027667
C27   C     C_R   0.774334 0.559750 0.281703 0.025833
C28   C     C_R   0.565288 0.786267 0.287834 -0.168711
C29   C     C_R   0.567303 0.795560 0.213052 -0.163711
C30   C     C_3   0.831362 0.414789 0.197633 -0.283823
C31   C     C_3   0.831576 0.404070 0.277754 -0.267820
C32   C     C_R   0.664831 0.662500 0.322174 0.019106
C33   C     C_R   0.665171 0.131733 0.180859 0.036423
C34   C     C_R   0.218874 0.650733 0.401940 0.544045
C35   C     C_R   0.559394 0.124198 0.217660 0.061207
C36   C     C_R   0.551831 0.136958 0.290345 0.001230
C37   C     C_R   0.776432 0.128665 0.293746 -0.170763
C38   C     C_R   0.779139 0.124377 0.219626 -0.176084
C39   C     C_3   0.404032 0.206572 0.207681 -0.045995
C40   C     C_3   0.393960 0.223772 0.288234 -0.252200
C41   C     C_R   0.654177 0.152488 0.328809 0.015308
C42   C     C_R   0.048178 0.730815 0.195345 0.014255
C43   C     C_R   0.066214 0.831161 0.233360 0.030839
C44   C     C_R   0.103805 0.812354 0.303698 0.030973
C45   C     C_R   0.643099 0.623869 0.392912 0.543577
C46   C     C_R   0.091220 0.598097 0.304850 -0.168251
C47   C     C_R   0.048710 0.619960 0.233076 -0.167301
C48   C     C_3   0.158491 0.893434 0.217568 -0.268582
C49   C     C_3   0.197221 0.875811 0.295138 -0.271255
C50   C     C_R   0.130807 0.688971 0.338545 0.013960
C51   C     C_R   0.702045 0.100102 0.895301 0.546127
C52   C     C_R   0.722926 0.687817 0.888360 0.543878
C53   C     C_R   0.119337 0.705413 0.906106 0.549524
C54   C     C_R   0.677744 0.102036 0.105666 0.562570
C55   C     C_R   0.697402 0.692044 0.098583 0.539462
C56   C     C_R   0.617751 0.225684 0.396243 0.545987
C57   C     C_R   0.026735 0.747427 0.118761 0.564277
C58   C     C_3   0.572145 0.810015 0.782418 -0.233324
C59   C     C_3   0.556632 0.795708 0.701949 -0.239370
C60   C     C_3   0.832786 0.646011 0.771083 -0.216715
Cr1   Cr    Cr6+3 0.392960 0.397920 0.502240 1.001352
Cr2   Cr    Cr6+3 0.398340 0.708480 0.501250 1.000146
Cr3   Cr    Cr6+3 0.708670 0.393570 0.496460 1.002199
Cr4   Cr    Cr6+3 0.937650 0.938540 0.007610 1.000959
Cr5   Cr    Cr6+3 0.625330 0.937370 0.994520 1.007733
Cr6   Cr    Cr6+3 0.937940 0.625230 0.001190 1.009994
H1    H     H_    0.590524 0.899466 0.792220 0.145047
H2    H     H_    0.739521 0.429629 0.702582 0.149139
H3    H     H_    0.923160 0.546054 0.789561 0.143729
H4    H     H_    0.900704 0.529529 0.671428 0.132937
H5    H     H_    0.496954 0.128643 0.682231 0.128905
H6    H     H_    0.492058 0.135945 0.807528 0.137457
H7    H     H_    0.972091 0.984525 0.807207 0.174086
H8    H     H_    0.983538 0.150324 0.811801 0.128271
H9    H     H_    0.976655 0.161809 0.684455 0.132395
H10   H     H_    0.966696 0.995693 0.679047 0.146030
H11   H     H_    0.236261 0.839350 0.701894 0.132903
H12   H     H_    0.473182 0.832865 0.809887 0.116659
H13   H     H_    0.230282 0.836274 0.829876 0.129889
H14   H     H_    0.160002 0.378869 0.818149 0.132319
H15   H     H_    0.331676 0.377140 0.824286 0.145431
H16   H     H_    0.343116 0.373648 0.696018 0.179395
H17   H     H_    0.169779 0.377791 0.690672 0.123787
H18   H     H_    0.482332 0.871351 0.317857 0.122331
H19   H     H_    0.490092 0.890280 0.187006 0.126246
H20   H     H_    0.938720 0.363718 0.174501 0.137025
H21   H     H_    0.755381 0.389837 0.170487 0.143068
H22   H     H_    0.753374 0.375837 0.297065 0.171080
H23   H     H_    0.449970 0.812483 0.690742 0.137500
H24   H     H_    0.938730 0.344139 0.301124 0.128614
H25   H     H_    0.861579 0.131209 0.322410 0.129851
H26   H     H_    0.867742 0.120108 0.192553 0.135784
H27   H     H_    0.358679 0.142801 0.185434 0.139290
H28   H     H_    0.354062 0.333514 0.307130 0.164576
H29   H     H_    0.342857 0.168650 0.313117 0.108398
H30   H     H_    0.028760 0.543986 0.205845 0.134257
H31   H     H_    0.100394 0.005187 0.201518 0.123577
H32   H     H_    0.567513 0.878065 0.673091 0.113114
H33   H     H_    0.249206 0.824943 0.182836 0.160386
H34   H     H_    0.309861 0.798864 0.303837 0.163700
H35   H     H_    0.157262 0.977248 0.324438 0.128561
H36   H     H_    0.856763 0.732498 0.781710 0.125677
H37   H     H_    0.826346 0.716078 0.662198 0.115915
H38   H     H_    0.757536 0.451991 0.821164 0.131677
H39   H     H_    0.571759 0.571536 0.827149 0.120888
H40   H     H_    0.552229 0.540749 0.707784 0.128168
O1    O     O_R   0.507380 0.255700 0.581440 -0.535862
O2    O     O_R   0.524480 0.695810 0.424040 -0.509294
O3    O     O_R   0.736390 0.504290 0.414790 -0.521591
O4    O     O_R   0.691300 0.277290 0.422170 -0.513164
O5    O     O_3   0.499990 0.499990 0.499980 -0.245629
O6    O     O_R   0.089400 0.825690 0.930570 -0.527899
O7    O     O_R   0.818460 0.054440 0.929850 -0.499781
O8    O     O_R   0.606060 0.077150 0.915510 -0.531707
O9    O     O_R   0.646550 0.806680 0.917570 -0.509577
O10   O     O_R   0.837170 0.593410 0.915250 -0.526758
O11   O     O_R   0.065200 0.635530 0.931570 -0.492238
O12   O     O_R   0.280320 0.527350 0.578930 -0.502777
O13   O     O_R   0.068260 0.828890 0.091840 -0.521295
O14   O     O_R   0.798870 0.057410 0.079340 -0.532950
O15   O     O_R   0.584930 0.080350 0.076780 -0.492899
O16   O     O_R   0.626960 0.809650 0.067060 -0.509782
O17   O     O_R   0.816040 0.596610 0.076510 -0.525354
O18   O     O_R   0.045610 0.638500 0.081060 -0.503651
O19   O     O_3   0.833640 0.833710 0.001100 -0.273167
O20   O     O_R   0.260510 0.739590 0.584590 -0.532699
O21   O     O_R   0.532300 0.695080 0.573820 -0.510255
O22   O     O_R   0.744840 0.503500 0.576370 -0.528633
O23   O     O_R   0.699120 0.276560 0.571960 -0.500001
O24   O     O_R   0.498940 0.256500 0.419860 -0.523468
O25   O     O_R   0.272500 0.528080 0.429150 -0.509710
O26   O     O_R   0.252060 0.740380 0.423010 -0.520895
N1    N     N_3   0.360803 0.336925 0.168643 -0.608448
H41   H     H_    0.385407 0.404601 0.197414 0.237904
H42   H     H_    0.251989 0.386866 0.162306 0.240017
H43   H     H_    0.104810 0.504786 0.331367 0.125145

loop_
_geom_bond_atom_site_label_1
_geom_bond_atom_site_label_2
_ccdc_geom_bond_type
C44   C49   S    
C5    H37   S    
C8    C13   S    
C54   O14   A    
C28   H18   S    
Cr5   O8    S    
C35   C36   A    
C9    C14   S    
C7    C8    A    
C12   O21   A    
C7    C11   A    
C48   H31   S    
C26   C27   A    
C51   O7    A    
Cr4   O13   S    
Cr6   O10   S    
C18   C24   A    
C22   H16   S    
C28   C29   A    
C10   C15   A    
C59   H23   S    
Cr2   O21   S    
C53   O11   A    
Cr4   O6    S    
Cr2   O2    S    
C38   H26   S    
C23   O23   A    
C32   C45   S    
C19   H11   S    
C16   C53   S    
C39   H27   S    
Cr2   O5    S    
C19   C20   A    
C8    C9    A    
Cr6   O11   S    
C47   H30   S    
C31   H22   S    
Cr5   O15   S    
C30   H20   S    
C43   C48   S    
C29   H19   S    
Cr3   O22   S    
C20   H13   S    
C45   O2    A    
C57   O13   A    
C3    C60   S    
C15   C23   S    
C27   C32   A    
C55   O16   A    
C34   O26   A    
C21   C22   S    
C37   C41   A    
Cr5   O9    S    
C36   C41   A    
C2    C6    S    
C60   H36   S    
C42   C57   S    
C56   O4    A    
C42   C47   A    
C52   O10   A    
C25   C29   A    
C55   O17   A    
C34   C50   S    
C51   O8    A    
C37   H25   S    
C27   C31   S    
Cr2   O26   S    
C28   C32   A    
C1    O20   A    
C4    C6    S    
C40   H28   S    
C39   C40   S    
Cr2   O20   S    
C58   H12   S    
C11   H6    S    
C16   C17   A    
C25   C26   A    
C17   C21   S    
Cr5   O19   S    
Cr3   O3    S    
C35   C39   S    
C43   C44   A    
C41   C56   S    
C37   C38   A    
C4    C59   S    
C36   C40   S    
C16   C20   A    
C31   H24   S    
C23   O1    A    
C17   C18   A    
C6    H40   S    
Cr5   O16   S    
Cr1   O24   S    
C53   O6    A    
C48   C49   S    
C54   O15   A    
C21   H15   S    
C2    H38   S    
C26   C30   S    
N1    H41   S    
Cr6   O18   S    
C4    C12   S    
C42   C43   A    
C40   H29   S    
Cr1   O5    S    
C39   N1    S    
C52   O9    A    
C44   C50   A    
C33   C54   S    
C48   H33   S    
C46   C47   A    
Cr4   O7    S    
C5    C60   S    
Cr1   O12   S    
C18   C22   S    
C25   C55   S    
C13   H7    S    
C4    C5    S    
C5    H4    S    
C34   O25   A    
C3    C52   S    
C12   O22   A    
C14   H9    S    
C46   C50   A    
C2    H39   S    
C33   C38   A    
Cr4   O14   S    
Cr6   O19   S    
C22   H17   S    
Cr3   O4    S    
C19   C24   A    
C58   C59   S    
C7    C51   S    
C10   H5    S    
C57   O18   A    
C49   H35   S    
C30   C31   S    
C60   H3    S    
C21   H14   S    
C6    H2    S    
C33   C35   A    
C2    C3    S    
C45   O3    A    
C1    O12   A    
Cr3   O23   S    
Cr3   O5    S    
Cr1   O1    S    
C10   C11   A    
Cr1   O25   S    
C46   H43   S    
C3    C58   S    
C58   H1    S    
C13   H8    S    
C1    C24   S    
Cr4   O19   S    
N1    H42   S    
C59   H32   S    
Cr6   O17   S    
C30   H21   S    
C13   C14   S    
C56   O24   A    
C9    C15   A    
C14   H10   S    
C49   H34   S    
