data_mof_unit_5283.cif
_audit_creation_date              2013-03-05T15:45:55-0500
_audit_creation_method            fapswitch 2.2
_symmetry_space_group_name_H-M    P1
_symmetry_Int_Tables_number       1
_space_group_crystal_system       triclinic
_cell_length_a                    20.539086
_cell_length_b                    7.375998
_cell_length_c                    20.375826
_cell_angle_alpha                 90.228521
_cell_angle_beta                  101.400696
_cell_angle_gamma                 90.227575
_cell_volume                      3025.8940691

loop_
_atom_site_label
_atom_site_type_symbol
_atom_site_description
_atom_site_fract_x
_atom_site_fract_y
_atom_site_fract_z
_atom_type_partial_charge
O1    O     O_R   0.673670 0.377510 0.185950 -0.584204
O2    O     O_R   0.326330 0.622490 0.814050 -0.584183
O3    O     O_R   0.826330 0.877510 0.314050 -0.580417
O4    O     O_R   0.173670 0.122490 0.685950 -0.580581
O5    O     O_R   0.806260 0.705340 0.185590 -0.594076
O6    O     O_R   0.193740 0.294660 0.814410 -0.594020
O7    O     O_R   0.693740 0.205340 0.314410 -0.593060
O8    O     O_R   0.306260 0.794660 0.685590 -0.593058
C1    C     C_R   0.825350 0.540250 0.171119 0.981484
C2    C     C_R   0.174651 0.459750 0.828882 0.980983
C3    C     C_R   0.674729 0.040291 0.328980 0.975249
C4    C     C_R   0.325272 0.959709 0.671022 0.975244
O9    O     O_R   0.672940 0.707120 0.178050 -0.574493
O10   O     O_R   0.327060 0.292880 0.821950 -0.574474
O11   O     O_R   0.827060 0.207120 0.321950 -0.577619
O12   O     O_R   0.172940 0.792880 0.678050 -0.577820
O13   O     O_R   0.692060 0.879040 0.306460 -0.576770
O14   O     O_R   0.307940 0.120960 0.693540 -0.576744
O15   O     O_R   0.807940 0.379040 0.193540 -0.572117
O16   O     O_R   0.192060 0.620960 0.806460 -0.572007
C5    C     C_R   0.649981 0.538021 0.160874 1.012636
C6    C     C_R   0.350019 0.461979 0.839126 1.012692
C7    C     C_R   0.850129 0.039401 0.339175 0.997265
C8    C     C_R   0.149865 0.960601 0.660834 0.998063
O17   O     O_3   0.756430 0.544390 0.292140 -0.306371
O18   O     O_3   0.243570 0.455610 0.707860 -0.306486
O19   O     O_3   0.743570 0.044390 0.207860 -0.297014
O20   O     O_3   0.256430 0.955610 0.792140 -0.296883
V1    V     V_3+5 0.748810 0.818610 0.242180 1.184022
V2    V     V_3+5 0.251190 0.181390 0.757820 1.183953
V3    V     V_3+5 0.751190 0.318610 0.257820 1.183447
V4    V     V_3+5 0.248810 0.681390 0.742180 1.183235
C9    C     C_R   0.088815 0.965073 0.607548 -0.340655
C10   C     C_R   0.911146 0.034969 0.392505 -0.340440
C11   C     C_R   0.411288 0.474042 0.891835 -0.340526
C12   C     C_R   0.588712 0.525958 0.108166 -0.340497
C13   C     C_R   0.022681 0.150087 0.435171 -0.316985
C14   C     C_R   0.977235 0.850195 0.564928 -0.316848
C15   C     C_R   0.470200 0.462028 0.079046 -0.306169
C16   C     C_R   0.529799 0.537973 0.920955 -0.306163
C17   C     C_R   0.966485 0.139716 0.383969 0.351567
C18   C     C_R   0.033415 0.860650 0.616165 0.351078
C19   C     C_R   0.527885 0.488552 0.127636 0.350300
C20   C     C_R   0.472114 0.511446 0.872366 0.350312
C21   C     C_R   0.913569 0.937048 0.453113 0.070312
C22   C     C_R   0.086401 0.062907 0.546921 0.070014
C23   C     C_R   0.591068 0.535880 0.038864 0.115958
C24   C     C_R   0.408931 0.464123 0.961137 0.115958
C25   C     C_R   0.972469 0.945832 0.504451 0.095687
C26   C     C_R   0.027485 0.054239 0.495609 0.095989
C27   C     C_R   0.530555 0.518743 0.989878 0.077009
C28   C     C_R   0.469444 0.481260 0.010124 0.077015
H1    H     H_    0.063027 0.233470 0.425703 0.180957
H2    H     H_    0.936844 0.767014 0.574400 0.181437
H3    H     H_    0.425487 0.429466 0.096837 0.177656
H4    H     H_    0.574512 0.570535 0.903164 0.177653
C29   C     C_3   0.549724 0.103353 0.530749 0.332806
C30   C     C_3   0.450293 0.896644 0.469266 0.332809
C31   C     C_3   0.947827 0.590358 0.967869 0.308987
C32   C     C_3   0.052181 0.409643 0.032140 0.308980
C33   C     C_3   0.530760 0.917739 0.556628 -0.066615
C34   C     C_3   0.469257 0.082258 0.443388 -0.066630
C35   C     C_3   0.970606 0.404857 0.945477 -0.039026
C36   C     C_3   0.029402 0.595144 0.054531 -0.039014
C37   C     C_1   0.370552 0.958541 0.624924 -0.287868
C38   C     C_1   0.629455 0.041459 0.375082 -0.287867
C39   C     C_1   0.129302 0.459094 0.874909 -0.277846
C40   C     C_1   0.870702 0.540907 0.125095 -0.277892
C41   C     C_3   0.475986 0.161836 0.515502 -0.005891
C42   C     C_3   0.524031 0.838162 0.484513 -0.005890
C43   C     C_3   0.020144 0.663147 0.980856 0.004098
C44   C     C_3   0.979863 0.336854 0.019152 0.004060
C45   C     C_3   0.456434 0.974222 0.540782 -0.052953
C46   C     C_3   0.543582 0.025775 0.459233 -0.052947
C47   C     C_3   0.043429 0.475955 0.959071 -0.057533
C48   C     C_3   0.956579 0.524046 0.040937 -0.057537
C49   C     C_1   0.408954 0.956633 0.586555 0.077546
C50   C     C_1   0.591059 0.043367 0.413456 0.077535
C51   C     C_1   0.090756 0.458185 0.913128 0.081710
C52   C     C_1   0.909250 0.541816 0.086878 0.081725
C53   C     C_3   0.147279 0.170140 0.536286 -0.424923
C54   C     C_3   0.139703 0.373386 0.549902 -0.215343
C55   C     C_3   0.199804 0.481133 0.537874 -0.807971
H5    H     H_    0.245758 0.430879 0.570730 0.257752
H6    H     H_    0.204796 0.468212 0.484763 0.261050
H7    H     H_    0.193606 0.626646 0.549351 0.242701
H8    H     H_    0.094415 0.428056 0.517162 0.194336
H9    H     H_    0.134347 0.393999 0.602603 0.238387
H10   H     H_    0.193532 0.120387 0.568663 0.169320
H11   H     H_    0.156494 0.146804 0.485068 0.191444
C56   C     C_3   0.852710 0.829649 0.463700 -0.425342
C57   C     C_3   0.860396 0.626413 0.450152 -0.214713
C58   C     C_3   0.800333 0.518474 0.462171 -0.808190
H12   H     H_    0.795303 0.531444 0.515269 0.261138
H13   H     H_    0.754366 0.568523 0.429279 0.257792
H14   H     H_    0.806612 0.372969 0.450738 0.242668
H15   H     H_    0.865794 0.605752 0.397465 0.238693
H16   H     H_    0.905696 0.571955 0.482938 0.194377
H17   H     H_    0.843414 0.853042 0.514884 0.191438
H18   H     H_    0.806460 0.879195 0.431262 0.169485
C59   C     C_3   0.341861 0.439517 0.982213 -0.388894
C60   C     C_3   0.318437 0.612536 0.013226 -0.289147
C61   C     C_3   0.301842 0.766031 0.962717 -0.816402
H19   H     H_    0.346480 0.806991 0.943205 0.267832
H20   H     H_    0.261924 0.723071 0.920620 0.255526
H21   H     H_    0.284075 0.885409 0.987418 0.240320
H22   H     H_    0.273029 0.579225 0.032824 0.224838
H23   H     H_    0.356386 0.662206 0.056043 0.214350
H24   H     H_    0.301933 0.396542 0.940050 0.163593
H25   H     H_    0.344904 0.325511 0.018060 0.175392
C62   C     C_3   0.658138 0.560489 0.017788 -0.388896
C63   C     C_3   0.681563 0.387471 0.986774 -0.289148
C64   C     C_3   0.698159 0.233976 0.037283 -0.816413
H26   H     H_    0.738077 0.276938 0.079379 0.255498
H27   H     H_    0.653522 0.193014 0.056795 0.267834
H28   H     H_    0.715926 0.114599 0.012582 0.240328
H29   H     H_    0.643613 0.337799 0.943957 0.214353
H30   H     H_    0.726970 0.420783 0.967175 0.224836
H31   H     H_    0.655095 0.674495 0.981941 0.175393
H32   H     H_    0.698066 0.603464 0.059950 0.163575
N1    N     N_R   0.032705 0.766312 0.677791 0.237745
O21   O     O_R   0.003127 0.609664 0.676839 -0.411414
O22   O     O_R   0.054290 0.845781 0.735156 -0.419840
N2    N     N_R   0.967071 0.234659 0.322461 0.237761
O23   O     O_R   0.946171 0.154919 0.265024 -0.419683
O24   O     O_R   0.995650 0.392811 0.323644 -0.411688
N3    N     N_R   0.476349 0.522056 0.802783 0.232072
O25   O     O_R   0.517347 0.635573 0.783418 -0.419036
O26   O     O_R   0.446046 0.402630 0.760208 -0.431739
N4    N     N_R   0.523651 0.477931 0.197219 0.232075
O27   O     O_R   0.482650 0.364416 0.216581 -0.419032
O28   O     O_R   0.553961 0.597337 0.239798 -0.431729
C65   C     C_3   0.564255 0.828136 0.622505 -0.324446
C66   C     C_3   0.639954 0.813226 0.630321 -0.274265
C67   C     C_3   0.670269 0.714500 0.694748 -0.732852
H33   H     H_    0.660209 0.790124 0.738920 0.261732
H34   H     H_    0.649297 0.575619 0.694656 0.299886
H35   H     H_    0.724873 0.704335 0.698994 0.244612
H36   H     H_    0.652966 0.739475 0.587177 0.211237
H37   H     H_    0.662818 0.949872 0.632541 0.254830
H38   H     H_    0.552559 0.908951 0.664808 0.229575
H39   H     H_    0.542907 0.690555 0.624436 0.206542
C68   C     C_3   0.435763 0.171862 0.377511 -0.324406
C69   C     C_3   0.360064 0.186779 0.369694 -0.274279
C70   C     C_3   0.329749 0.285498 0.305267 -0.732924
H40   H     H_    0.350723 0.424377 0.305356 0.299900
H41   H     H_    0.339808 0.209867 0.261096 0.261752
H42   H     H_    0.275145 0.295669 0.301021 0.244545
H43   H     H_    0.337199 0.050134 0.367477 0.254818
H44   H     H_    0.347053 0.260537 0.412838 0.211228
H45   H     H_    0.457113 0.309440 0.375579 0.206538
H46   H     H_    0.447457 0.091043 0.335208 0.229572
C71   C     C_3   0.939157 0.307146 0.880213 -0.341742
C72   C     C_3   0.866594 0.250989 0.877425 -0.270533
C73   C     C_3   0.835932 0.171121 0.809041 -0.743686
H47   H     H_    0.834537 0.274991 0.769461 0.257232
H48   H     H_    0.865174 0.053066 0.797484 0.288050
H49   H     H_    0.784333 0.125491 0.809016 0.249291
H50   H     H_    0.863351 0.148247 0.916176 0.219782
H51   H     H_    0.836650 0.369506 0.886632 0.248128
H52   H     H_    0.941875 0.399650 0.837907 0.236638
H53   H     H_    0.968975 0.185615 0.874318 0.185531
C74   C     C_3   0.060851 0.692856 0.119795 -0.341763
C75   C     C_3   0.133414 0.749014 0.122582 -0.270453
C76   C     C_3   0.164077 0.828881 0.190966 -0.743888
H54   H     H_    0.134835 0.946934 0.202524 0.288022
H55   H     H_    0.165473 0.725008 0.230546 0.257177
H56   H     H_    0.215676 0.874512 0.190990 0.249323
H57   H     H_    0.163358 0.630499 0.113374 0.248120
H58   H     H_    0.136656 0.851760 0.083832 0.219783
H59   H     H_    0.031033 0.814386 0.125691 0.185545
H60   H     H_    0.058134 0.600351 0.162101 0.236527
N5    N     N_R   0.603769 0.216391 0.566466 0.215763
O29   O     O_R   0.600682 0.280169 0.625347 -0.430244
O30   O     O_R   0.659037 0.230417 0.544895 -0.453211
N6    N     N_R   0.396248 0.783605 0.433549 0.215763
O31   O     O_R   0.399336 0.719830 0.374667 -0.430246
O32   O     O_R   0.340981 0.769569 0.455120 -0.453241
N7    N     N_R   0.890086 0.685043 0.930410 0.218788
O33   O     O_R   0.891184 0.743245 0.870498 -0.422502
O34   O     O_R   0.833405 0.673876 0.949440 -0.468828
N8    N     N_R   0.109922 0.314960 0.069598 0.218792
O35   O     O_R   0.108825 0.256754 0.129509 -0.422668
O36   O     O_R   0.166604 0.326137 0.050570 -0.468821
C77   C     C_3   0.547699 0.648130 0.466760 -0.411720
C78   C     C_3   0.591526 0.651907 0.414348 -0.256308
C79   C     C_3   0.609441 0.465739 0.392988 -0.771547
H61   H     H_    0.638391 0.392887 0.436339 0.277741
H62   H     H_    0.564017 0.389434 0.370272 0.270672
H63   H     H_    0.640685 0.481059 0.354778 0.281730
H64   H     H_    0.564354 0.720121 0.368638 0.264704
H65   H     H_    0.638951 0.721927 0.435838 0.198786
H66   H     H_    0.575666 0.582499 0.512418 0.212745
H67   H     H_    0.503808 0.563723 0.446566 0.212348
C80   C     C_3   0.452321 0.351870 0.533256 -0.411720
C81   C     C_3   0.408498 0.348095 0.585671 -0.256316
C82   C     C_3   0.390585 0.534264 0.607031 -0.771523
H68   H     H_    0.436009 0.610570 0.629745 0.270672
H69   H     H_    0.361632 0.607113 0.563681 0.277743
H70   H     H_    0.359343 0.518948 0.645244 0.281754
H71   H     H_    0.361073 0.278077 0.564182 0.198757
H72   H     H_    0.435670 0.279876 0.631380 0.264717
H73   H     H_    0.496213 0.436274 0.553448 0.212348
H74   H     H_    0.424353 0.417501 0.487598 0.212745
C83   C     C_3   0.959686 0.148220 0.041437 -0.412023
C84   C     C_3   0.899692 0.150526 0.075509 -0.276574
C85   C     C_3   0.876125 0.963088 0.089058 -0.828202
H75   H     H_    0.863905 0.885184 0.041935 0.290245
H76   H     H_    0.915309 0.894422 0.125661 0.267556
H77   H     H_    0.830686 0.974199 0.110542 0.272140
H78   H     H_    0.914657 0.215277 0.125370 0.264071
H79   H     H_    0.857672 0.222640 0.043542 0.209956
H80   H     H_    0.947922 0.058744 0.997193 0.194186
H81   H     H_    0.002029 0.090396 0.077102 0.221502
C86   C     C_3   0.040322 0.851781 0.958573 -0.412115
C87   C     C_3   0.100320 0.849475 0.924506 -0.276523
C88   C     C_3   0.123887 0.036914 0.910958 -0.827882
H82   H     H_    0.084703 0.105578 0.874353 0.267575
H83   H     H_    0.136105 0.114818 0.958080 0.290174
H84   H     H_    0.169326 0.025804 0.889475 0.272154
H85   H     H_    0.142339 0.777361 0.956476 0.209924
H86   H     H_    0.085357 0.784723 0.874646 0.264180
H87   H     H_    0.997981 0.909604 0.922905 0.221520
H88   H     H_    0.052083 0.941258 0.002817 0.194184

loop_
_geom_bond_atom_site_label_1
_geom_bond_atom_site_label_2
_geom_bond_distance
_ccdc_geom_bond_type
C33   C42   1.560427 S    
C40   C52   1.215322 T    
C67   H35   1.110529 S    
C43   C47   1.554487 S    
C20   N3    1.439943 S    
C30   C34   1.544950 S    
C58   H12   1.110777 S    
O19   V1    1.804150 S    
O13   V1    1.968697 S    
O3    C7    1.348503 A    
C62   C63   1.542108 S    
C41   C80   1.550070 S    
C77   H67   1.102912 S    
C44   C48   1.554487 S    
O15   V3    1.968963 S    
C86   H88   1.102051 S    
C53   C54   1.537598 S    
C57   H16   1.110271 S    
C67   H33   1.111013 S    
C5    C12   1.486267 S    
N5    O29   1.300202 A    
C88   H84   1.109587 S    
O1    C5    1.345583 A    
C6    C11   1.486269 S    
C65   H39   1.107794 S    
C59   C60   1.542107 S    
C9    C18   1.411348 A    
C17   N2    1.440193 S    
C62   H31   1.109870 S    
C75   C76   1.526032 S    
C14   C18   1.396319 A    
C66   H37   1.107213 S    
C63   H29   1.108713 S    
O4    C8    1.348468 A    
C79   H62   1.106553 S    
C23   C62   1.532168 S    
C80   H73   1.102909 S    
C32   C44   1.549732 S    
C59   H24   1.108288 S    
C68   C69   1.535730 S    
O1    V3    1.989245 S    
C12   C23   1.424607 A    
O2    V4    1.989249 S    
C36   C43   1.560532 S    
C78   H64   1.110214 S    
C82   H69   1.105100 S    
C87   H85   1.111862 S    
C79   H63   1.108338 S    
C69   H44   1.109227 S    
C61   H19   1.110294 S    
C42   C77   1.550075 S    
N8    O35   1.300002 A    
C75   H58   1.107857 S    
C84   H78   1.107368 S    
C1    O15   1.347606 A    
C15   H3    1.078446 S    
C74   C75   1.535399 S    
C2    O16   1.347606 A    
O20   V2    1.804151 S    
C16   H4    1.078446 S    
O2    C6    1.345583 A    
C85   H77   1.109586 S    
C81   H71   1.110334 S    
C41   C45   1.557126 S    
N4    O28   1.300765 A    
O14   V2    1.968694 S    
C56   H18   1.108726 S    
C74   H59   1.107091 S    
C34   C68   1.535403 S    
C88   H83   1.101946 S    
C54   H9    1.110776 S    
C3    C38   1.446558 S    
C64   H28   1.110606 S    
C53   H10   1.108742 S    
O11   C7    1.349246 A    
C15   C28   1.409102 A    
C83   H80   1.102055 S    
O12   C8    1.349265 A    
N7    O34   1.300159 A    
C73   H49   1.110586 S    
C78   H65   1.110341 S    
C9    C22   1.425623 A    
C75   H57   1.107349 S    
C82   H68   1.106551 S    
C10   C17   1.411142 A    
O10   V2    1.997066 S    
C36   C74   1.534316 S    
C11   C24   1.424608 A    
C63   C64   1.526720 S    
C70   H41   1.111013 S    
C57   H15   1.110806 S    
C70   H40   1.109540 S    
O5    V1    1.989461 S    
N5    O30   1.299664 A    
C32   N8    1.459368 S    
C73   H48   1.110338 S    
C38   C50   1.215432 T    
N2    O23   1.301462 A    
O7    V3    1.989390 S    
C72   H51   1.107351 S    
C33   C65   1.535403 S    
C27   C28   1.422990 A    
O8    V4    1.989390 S    
C37   C49   1.215436 T    
C87   C88   1.507483 S    
C35   C71   1.534314 S    
C77   H66   1.106505 S    
C56   C57   1.537575 S    
C14   C25   1.409065 A    
C84   C85   1.507481 S    
C30   C42   1.548095 S    
C15   C19   1.398246 A    
C80   H74   1.106506 S    
C33   C45   1.555492 S    
C59   H25   1.109870 S    
C83   C84   1.529351 S    
O11   V3    2.006434 S    
C85   H75   1.101949 S    
C34   C41   1.560424 S    
C71   H52   1.111373 S    
C62   H32   1.108289 S    
C29   C46   1.544945 S    
C82   H70   1.108338 S    
O7    C3    1.329508 A    
C86   C87   1.529347 S    
N3    O26   1.300764 A    
C42   C46   1.557122 S    
C69   H43   1.107214 S    
C74   H60   1.111371 S    
C22   C53   1.528599 S    
C55   H5    1.109686 S    
C14   H2    1.078019 S    
C21   C25   1.435441 A    
O8    C4    1.329511 A    
C7    C10   1.488195 S    
C36   C48   1.554899 S    
O9    C5    1.351719 A    
C60   H22   1.111670 S    
C61   H20   1.107293 S    
C10   C21   1.425585 A    
C60   H23   1.108713 S    
C11   C20   1.410100 A    
C72   C73   1.526035 S    
C66   C67   1.526211 S    
C29   N5    1.457887 S    
C53   H11   1.109731 S    
C68   H46   1.111261 S    
C55   H6    1.110776 S    
C16   C20   1.398242 A    
C83   H81   1.105407 S    
C54   C55   1.526055 S    
C58   H14   1.110732 S    
C65   C66   1.535729 S    
O12   V4    2.006434 S    
C81   H72   1.110214 S    
N3    O25   1.301631 A    
C66   H36   1.109227 S    
C70   H42   1.110527 S    
N2    O24   1.301789 A    
C64   H26   1.107293 S    
O16   V4    1.968965 S    
O9    V1    1.997067 S    
C67   H34   1.109540 S    
C3    O13   1.347398 A    
O6    V2    1.989464 S    
C31   C35   1.543923 S    
O17   V3    1.798203 S    
C19   N4    1.439947 S    
C30   N6    1.457887 S    
C48   C52   1.482633 S    
O5    C1    1.330452 A    
C81   C82   1.507637 S    
C86   H87   1.105411 S    
O6    C2    1.330452 A    
C23   C27   1.436769 A    
N1    O21   1.301551 A    
C29   C33   1.544953 S    
C44   C83   1.545527 S    
O18   V4    1.798202 S    
C76   H56   1.110584 S    
C16   C27   1.409100 A    
C4    C37   1.446566 S    
C22   C26   1.435339 A    
C32   C47   1.545589 S    
C65   H38   1.111262 S    
C8    C9    1.488163 S    
C32   C36   1.543923 S    
C71   H53   1.107093 S    
C69   C70   1.526211 S    
C56   H17   1.109700 S    
O10   C6    1.351720 A    
C31   N7    1.459367 S    
N4    O27   1.301629 A    
C78   C79   1.507634 S    
C1    C40   1.446534 S    
C13   H1    1.078082 S    
C72   H50   1.107857 S    
C2    C39   1.446538 S    
C80   C81   1.526962 S    
C63   H30   1.111668 S    
C13   C26   1.409090 A    
O3    V1    1.983927 S    
C77   C78   1.526968 S    
C58   H13   1.109694 S    
C35   C47   1.554897 S    
C43   C86   1.545523 S    
C24   C59   1.532167 S    
C88   H82   1.108797 S    
C68   H45   1.107797 S    
C57   C58   1.526065 S    
C61   H21   1.110607 S    
C13   C17   1.396095 A    
C60   C61   1.526721 S    
C21   C56   1.528601 S    
N8    O36   1.300158 A    
N1    O22   1.301524 A    
C87   H86   1.107358 S    
N6    O31   1.300201 A    
N7    O33   1.300002 A    
C84   H79   1.111864 S    
C76   H54   1.110338 S    
C24   C28   1.436771 A    
C55   H7    1.110730 S    
C35   C44   1.560536 S    
C18   N1    1.440590 S    
C76   H55   1.110936 S    
C25   C26   1.422374 A    
C46   C50   1.482308 S    
C4    O14   1.347400 A    
C73   H47   1.110934 S    
C85   H76   1.108798 S    
C45   C49   1.482319 S    
C34   C46   1.555485 S    
C12   C19   1.410105 A    
C79   H61   1.105101 S    
C29   C41   1.548094 S    
C71   C72   1.535396 S    
C47   C51   1.482635 S    
C31   C48   1.545587 S    
C39   C51   1.215323 T    
O4    V2    1.983926 S    
C54   H8    1.110259 S    
C30   C45   1.544949 S    
C31   C43   1.549729 S    
N6    O32   1.299665 A    
C64   H27   1.110294 S    
