data_mof_unit_56601.cif
_audit_creation_date              2013-03-05T15:50:13-0500
_audit_creation_method            fapswitch 2.2
_symmetry_space_group_name_H-M    P1
_symmetry_Int_Tables_number       1
_space_group_crystal_system       triclinic
_cell_length_a                    14.761483
_cell_length_b                    15.794884
_cell_length_c                    9.630136
_cell_angle_alpha                 91.014622
_cell_angle_beta                  89.228442
_cell_angle_gamma                 90.466939
_cell_volume                      2244.69726308

loop_
_atom_site_label
_atom_site_type_symbol
_atom_site_description
_atom_site_fract_x
_atom_site_fract_y
_atom_site_fract_z
_atom_type_partial_charge
O1    O     O_R   0.409820 0.909830 0.618810 -0.606102
O2    O     O_R   0.409820 0.090170 0.618810 -0.591985
O3    O     O_R   0.909820 0.409830 0.618810 -0.606100
O4    O     O_R   0.909820 0.590170 0.618810 -0.591981
O5    O     O_R   0.409840 0.909830 0.381240 -0.526362
O6    O     O_R   0.409840 0.090170 0.381240 -0.538785
O7    O     O_R   0.909840 0.409830 0.381240 -0.526364
O8    O     O_R   0.909840 0.590170 0.381240 -0.538777
C1    C     C_R   0.380593 0.882345 0.499619 0.778464
C2    C     C_R   0.377009 0.114300 0.501871 0.785109
C3    C     C_R   0.880587 0.382352 0.499620 0.778447
C4    C     C_R   0.877009 0.614300 0.501869 0.785075
Cu1   Cu    Cu3+1 0.499990 0.000000 0.640660 0.950481
Cu2   Cu    Cu3+1 0.999990 0.500000 0.640660 0.950460
Cu3   Cu    Cu3+1 0.500010 0.000000 0.359340 1.028636
Cu4   Cu    Cu3+1 0.000010 0.500000 0.359340 1.028680
O9    O     O_R   0.590170 0.090170 0.618760 -0.588047
O10   O     O_R   0.590170 0.909830 0.618760 -0.600576
O11   O     O_R   0.090170 0.590170 0.618760 -0.588069
O12   O     O_R   0.090170 0.409830 0.618760 -0.600610
O13   O     O_R   0.590190 0.090180 0.381190 -0.608192
O14   O     O_R   0.590190 0.909820 0.381190 -0.561852
O15   O     O_R   0.090190 0.590180 0.381190 -0.608197
O16   O     O_R   0.090190 0.409820 0.381190 -0.561724
C5    C     C_R   0.619850 0.117440 0.500102 0.865329
C6    C     C_R   0.615514 0.878349 0.498429 0.848557
C7    C     C_R   0.119848 0.617441 0.500103 0.865274
C8    C     C_R   0.115509 0.378345 0.498428 0.848522
H1    H     H_    0.367541 0.239156 0.331093 0.196836
H2    H     H_    0.413106 0.720866 0.484608 0.168731
H3    H     H_    0.867598 0.739207 0.331177 0.196772
H4    H     H_    0.913114 0.220880 0.484875 0.168733
C9    C     C_R   0.217428 0.107618 0.693582 -0.170315
C10   C     C_R   0.189091 0.921639 0.499306 -0.129657
C11   C     C_R   0.717383 0.607571 0.693469 -0.170297
C12   C     C_R   0.689084 0.421639 0.499052 -0.129580
H5    H     H_    0.264161 0.055912 0.700549 0.144296
H6    H     H_    0.236479 0.973879 0.490885 0.127203
H7    H     H_    0.764117 0.555863 0.700425 0.144260
H8    H     H_    0.736474 0.473879 0.490645 0.127249
C13   C     C_R   0.140839 0.104304 0.779388 -0.107159
C14   C     C_R   0.096876 0.939982 0.505350 -0.085806
C15   C     C_R   0.640771 0.604236 0.779226 -0.107129
C16   C     C_R   0.596866 0.439980 0.504968 -0.085788
H9    H     H_    0.131872 0.052588 0.850709 0.167511
H10   H     H_    0.074677 0.005114 0.503807 0.183159
H11   H     H_    0.631783 0.552500 0.850503 0.167472
H12   H     H_    0.574665 0.505110 0.503340 0.183132
C17   C     C_R   0.574534 0.665716 0.770465 -0.101283
C18   C     C_R   0.533353 0.374589 0.512653 -0.083137
C19   C     C_R   0.074595 0.165777 0.770618 -0.101224
C20   C     C_R   0.033363 0.874592 0.513049 -0.083077
H13   H     H_    0.513912 0.661626 0.834616 0.148931
H14   H     H_    0.461758 0.388926 0.517474 0.195187
H15   H     H_    0.013989 0.161700 0.834804 0.148948
H16   H     H_    0.961771 0.888930 0.517968 0.195166
C21   C     C_R   0.585078 0.731586 0.677236 -0.134424
C22   C     C_R   0.561790 0.290568 0.512715 -0.155478
C23   C     C_R   0.085111 0.231619 0.677331 -0.134370
C24   C     C_R   0.061797 0.790569 0.512992 -0.155518
H17   H     H_    0.529288 0.774939 0.670067 0.152795
H18   H     H_    0.510192 0.241834 0.517618 0.126917
H19   H     H_    0.029313 0.274961 0.670155 0.152810
H20   H     H_    0.010198 0.741835 0.517905 0.126948
C25   C     C_R   0.663732 0.738282 0.592004 0.054600
C26   C     C_R   0.655043 0.270448 0.505750 0.050588
C27   C     C_R   0.163746 0.238297 0.592052 0.054611
C28   C     C_R   0.155047 0.770447 0.505894 0.050582
C29   C     C_R   0.230309 0.174125 0.598529 0.103658
C30   C     C_R   0.219216 0.837049 0.501560 0.106935
C31   C     C_R   0.730289 0.674105 0.598474 0.103643
C32   C     C_R   0.719211 0.337051 0.501424 0.106898
C33   C     C_R   0.305450 0.176853 0.505320 -0.159410
C34   C     C_R   0.311929 0.817172 0.497950 -0.111533
C35   C     C_R   0.805452 0.676853 0.505312 -0.159406
C36   C     C_R   0.811926 0.317178 0.497954 -0.111540
C37   C     C_R   0.311699 0.238913 0.405577 -0.219511
C38   C     C_R   0.341087 0.733748 0.490131 -0.254144
C39   C     C_R   0.811731 0.738940 0.405618 -0.219449
C40   C     C_R   0.841091 0.233755 0.490287 -0.254127
C41   C     C_R   0.747427 0.801129 0.397803 0.379296
C42   C     C_R   0.779226 0.166914 0.489648 0.302775
C43   C     C_R   0.247385 0.301092 0.397745 0.379242
C44   C     C_R   0.279214 0.666913 0.489499 0.302843
C45   C     C_R   0.675508 0.804747 0.495403 -0.225664
C46   C     C_R   0.685694 0.185595 0.500683 -0.204457
C47   C     C_R   0.175495 0.304736 0.495397 -0.225628
C48   C     C_R   0.185691 0.685595 0.500686 -0.204441
C49   C     C_R   0.665525 0.014829 0.140038 -0.009294
C50   C     C_R   0.165526 0.514834 0.140037 -0.009230
H21   H     H_    0.673448 0.006876 0.248495 0.225862
H22   H     H_    0.173451 0.506878 0.248494 0.225838
C51   C     C_R   0.745998 0.027440 0.066390 -0.098496
C52   C     C_R   0.245999 0.527446 0.066388 -0.098488
H23   H     H_    0.809211 0.035873 0.120754 0.212266
H24   H     H_    0.309211 0.535878 0.120753 0.212345
C53   C     C_R   0.746288 0.024240 0.923258 -0.200427
C54   C     C_R   0.246288 0.524243 0.923257 -0.200454
H25   H     H_    0.809607 0.029872 0.865893 0.176740
H26   H     H_    0.309608 0.529876 0.865893 0.176722
C55   C     C_R   0.665744 0.010920 0.853325 -0.085804
C56   C     C_R   0.165745 0.510922 0.853322 -0.085798
H27   H     H_    0.673297 0.003637 0.744320 0.233689
H28   H     H_    0.173302 0.503638 0.744314 0.233646
C57   C     C_R   0.581384 0.006154 0.923877 0.181642
C58   C     C_R   0.081385 0.506155 0.923876 0.181651
C59   C     C_R   0.581312 0.007029 0.073038 0.113888
C60   C     C_R   0.081312 0.507031 0.073037 0.113977
N1    N     N_R   0.501200 0.000000 0.147910 -0.263622
N2    N     N_R   0.001200 0.500000 0.147910 -0.263608
C61   C     C_R   0.421950 0.993812 0.074440 0.435076
C62   C     C_R   0.921950 0.493811 0.074440 0.435088
H29   H     H_    0.359086 0.988727 0.872310 0.152148
H30   H     H_    0.859085 0.488731 0.872309 0.152175
C63   C     C_R   0.422510 0.993859 0.926835 -0.097814
C64   C     C_R   0.922509 0.493859 0.926835 -0.097809
N3    N     N_R   0.501270 0.000000 0.852040 -0.226162
N4    N     N_R   0.001270 0.500000 0.852040 -0.226169
N5    N     N_R   0.755309 0.857907 0.285049 0.113612
O17   O     O_R   0.710823 0.839278 0.172716 -0.349986
O18   O     O_R   0.828087 0.904501 0.275148 -0.348773
N6    N     N_R   0.813106 0.081607 0.475137 0.108597
O19   O     O_R   0.892712 0.068256 0.419574 -0.361180
O20   O     O_R   0.768882 0.017523 0.525942 -0.428544
N7    N     N_R   0.255203 0.357807 0.284894 0.113710
O21   O     O_R   0.210474 0.339223 0.172766 -0.349930
O22   O     O_R   0.328069 0.404262 0.274642 -0.348956
N8    N     N_R   0.313072 0.581606 0.474845 0.108458
O23   O     O_R   0.392595 0.568257 0.418990 -0.361257
O24   O     O_R   0.268935 0.517527 0.525842 -0.428637
N9    N     N_R   0.336787 0.987324 0.145443 0.129923
O25   O     O_R   0.289981 0.055645 0.168591 -0.354324
O26   O     O_R   0.295298 0.914382 0.147359 -0.361171
N10   N     N_R   0.836788 0.487321 0.145442 0.129909
O27   O     O_R   0.789982 0.555641 0.168599 -0.354330
O28   O     O_R   0.795298 0.414379 0.147350 -0.361185

loop_
_geom_bond_atom_site_label_1
_geom_bond_atom_site_label_2
_geom_bond_distance
_ccdc_geom_bond_type
C22   H18   1.079659 S    
C43   C47   1.409264 A    
C44   N8    1.444839 S    
Cu3   N1    2.035940 S    
C25   C45   1.423018 A    
C10   C14   1.394265 A    
C32   C36   1.406455 A    
N8    O23   1.301848 A    
Cu4   N2    2.035940 S    
O7    C3    1.294483 A    
C57   C59   1.436240 A    
C18   H14   1.082842 S    
C35   C39   1.386176 A    
Cu1   O10   1.964094 S    
C26   C46   1.417845 A    
C3    C36   1.438774 S    
N1    C61   1.377192 A    
C2    C33   1.451887 S    
Cu1   N3    2.035961 S    
C52   C54   1.378360 A    
C12   C32   1.412224 A    
C17   C21   1.392628 A    
C14   H10   1.082637 S    
C21   H17   1.079016 S    
O2    Cu1   1.973176 S    
C33   C37   1.386176 A    
C20   C24   1.395162 A    
C23   C27   1.417165 A    
O6    Cu3   1.963992 S    
C22   C26   1.415729 A    
Cu3   O14   1.973393 S    
C26   C32   1.410639 A    
C64   N4    1.363078 A    
C63   N3    1.363079 A    
O10   C6    1.304217 A    
C30   C34   1.406461 A    
C29   C33   1.418326 A    
O15   C7    1.296685 A    
O4    C4    1.296520 A    
O11   C7    1.297714 A    
C10   C30   1.412211 A    
C9    C29   1.415510 A    
C52   H24   1.082214 S    
C11   C31   1.415506 A    
O8    Cu4   1.963992 S    
C58   N4    1.379994 A    
O4    Cu2   1.973176 S    
C59   N1    1.381453 A    
C57   N3    1.379994 A    
C43   N7    1.423479 S    
C53   H25   1.083157 S    
C41   C45   1.409249 A    
C50   C52   1.390064 A    
N5    O18   1.300663 A    
C55   C57   1.412617 A    
C18   C22   1.395172 A    
Cu2   O12   1.964094 S    
C12   H8    1.080823 S    
O1    C1    1.297969 A    
C40   C42   1.390262 A    
C62   N10   1.426755 S    
C39   C41   1.375237 A    
C15   C17   1.388065 A    
N10   O28   1.300671 A    
O12   C8    1.304231 A    
Cu2   N4    2.035961 S    
C25   C31   1.420144 A    
C38   C44   1.390261 A    
C9    H5    1.076924 S    
C27   C29   1.420139 A    
C44   C48   1.416358 A    
O1    Cu1   1.952026 S    
C11   H7    1.076942 S    
O5    C1    1.294482 A    
C54   C56   1.387042 A    
H4    C40   1.084462 S    
C42   N6    1.444862 S    
C50   H22   1.062325 S    
O8    C4    1.304527 A    
C49   C59   1.411773 A    
C8    C47   1.466814 S    
C56   H28   1.058516 S    
O3    Cu2   1.952026 S    
C61   N9    1.426756 S    
O7    Cu4   1.953650 S    
Cu4   O15   1.952239 S    
C54   H26   1.083157 S    
Cu1   Cu3   2.709145 S    
C34   C38   1.389973 A    
N7    O21   1.301124 A    
C28   C48   1.417823 A    
Cu2   Cu4   2.709145 S    
C12   C16   1.394268 A    
C19   C23   1.392617 A    
C1    C34   1.438794 S    
N6    O20   1.299324 A    
N9    O25   1.300409 A    
O2    C2    1.296509 A    
C51   C53   1.378360 A    
C62   C64   1.421387 A    
C11   C15   1.392535 A    
O16   C8    1.302227 A    
C55   H27   1.058489 S    
C16   C18   1.391511 A    
O13   C5    1.296687 A    
C13   H9    1.082661 S    
C10   H6    1.080817 S    
C23   H19   1.079012 S    
Cu2   O11   1.953749 S    
C36   C40   1.389950 A    
C21   C25   1.417158 A    
N9    O26   1.300670 A    
N8    O24   1.299344 A    
O6    C2    1.304546 A    
H30   C64   1.081345 S    
N5    O17   1.301067 A    
H3    C39   1.085422 S    
N10   O27   1.300408 A    
C41   N5    1.423444 S    
C27   C47   1.423017 A    
Cu1   O9    1.953749 S    
C24   H20   1.079663 S    
O9    C5    1.297722 A    
C9    C13   1.392529 A    
C42   C46   1.416394 A    
C31   C35   1.418309 A    
C51   H23   1.082213 S    
C58   C60   1.436248 A    
C6    C45   1.466805 S    
C17   H13   1.082676 S    
C5    C46   1.444464 S    
C60   N2    1.381461 A    
C56   C58   1.412635 A    
C19   H15   1.082673 S    
C49   C51   1.390068 A    
C7    C48   1.444446 S    
N2    C62   1.377192 A    
O5    Cu3   1.953650 S    
O3    C3    1.297960 A    
C50   C60   1.411783 A    
H2    C38   1.084464 S    
C16   H12   1.082648 S    
Cu3   O13   1.952239 S    
H1    C37   1.085417 S    
C24   C28   1.415725 A    
Cu4   O16   1.973393 S    
C49   H21   1.062315 S    
O14   C6    1.302235 A    
C4    C35   1.451871 S    
N7    O22   1.300731 A    
C28   C30   1.410637 A    
C37   C43   1.375239 A    
C61   C63   1.421386 A    
N6    O19   1.301836 A    
C15   H11   1.082663 S    
C13   C19   1.388054 A    
C53   C55   1.387038 A    
C20   H16   1.082839 S    
C14   C20   1.391510 A    
H29   C63   1.081339 S    
