data_mof_unit_21920.cif
_audit_creation_date              2012-12-10T19:46:22-0500
_audit_creation_method            fapswitch 2.2
_symmetry_space_group_name_H-M    P1
_symmetry_Int_Tables_number       1
_space_group_crystal_system       triclinic
_cell_length_a                    10.876938
_cell_length_b                    10.862745
_cell_length_c                    10.422621
_cell_angle_alpha                 90.361516
_cell_angle_beta                  90.293875
_cell_angle_gamma                 89.995091
_cell_volume                      1231.42743533

loop_
_atom_site_label
_atom_site_type_symbol
_atom_type_description
_atom_site_fract_x
_atom_site_fract_y
_atom_site_fract_z
_atom_type_partial_charge
C1    C     C_R   0.495429 0.261516 0.499240 0.791546
C2    C     C_R   0.504570 0.738484 0.500760 0.791541
C3    C     C_R   0.871964 0.496644 0.501408 -0.292842
C4    C     C_R   0.128035 0.503355 0.498592 -0.292838
C5    C     C_R   0.938948 0.450801 0.607477 -0.200545
C6    C     C_R   0.061052 0.549199 0.392524 -0.200551
C7    C     C_R   0.269348 0.221991 0.139071 -0.119046
C8    C     C_R   0.730648 0.777970 0.860905 -0.119031
C9    C     C_R   0.310206 0.172019 0.255013 -0.115269
C10   C     C_R   0.689785 0.827946 0.744968 -0.115220
C11   C     C_R   0.426381 0.115979 0.262767 0.126277
C12   C     C_R   0.573624 0.884021 0.737232 0.126267
C13   C     C_R   0.500595 0.109973 0.152996 -0.155679
C14   C     C_R   0.499431 0.890059 0.847018 -0.155716
C15   C     C_R   0.459542 0.160675 0.037430 -0.159759
C16   C     C_R   0.540489 0.839355 0.962581 -0.159754
C17   C     C_R   0.343976 0.216506 0.030422 -0.111610
C18   C     C_R   0.656039 0.783487 0.969569 -0.111606
C19   C     C_R   0.477964 0.932663 0.387971 -0.245435
C20   C     C_R   0.522031 0.067337 0.612029 -0.245438
C21   C     C_R   0.507174 0.872110 0.502183 -0.073735
C22   C     C_R   0.492823 0.127890 0.497817 -0.073733
C23   C     C_R   0.261530 0.502175 0.499492 0.873359
C24   C     C_R   0.738470 0.497825 0.500507 0.873346
C25   C     C_R   0.531708 0.940270 0.615482 -0.002425
C26   C     C_R   0.468290 0.059730 0.384518 -0.002434
C27   C     C_1   0.500018 0.500011 0.071930 0.098880
C28   C     C_1   0.499982 0.499989 0.928069 0.098855
C29   C     C_R   0.230168 0.771298 0.176700 -0.141832
C30   C     C_R   0.769828 0.228689 0.823285 -0.141833
C31   C     C_R   0.178901 0.718708 0.286368 -0.104133
C32   C     C_R   0.821080 0.281295 0.713617 -0.104110
C33   C     C_R   0.120123 0.603760 0.278193 0.236774
C34   C     C_R   0.879880 0.396232 0.721806 0.236753
C35   C     C_R   0.113245 0.542531 0.159235 -0.079014
C36   C     C_R   0.886791 0.457435 0.840776 -0.079016
C37   C     C_R   0.166342 0.594496 0.050391 -0.165950
C38   C     C_R   0.833710 0.405454 0.949620 -0.165942
C39   C     C_R   0.224587 0.708912 0.059071 -0.123619
C40   C     C_R   0.775446 0.291050 0.940928 -0.123628
C41   C     C_R   0.933523 0.545327 0.395084 0.551486
C42   C     C_R   0.066477 0.454673 0.604916 0.551486
Cu1   Cu    Cu3+1 0.500000 0.500000 0.625300 1.006236
Cu2   Cu    Cu3+1 0.500000 0.500000 0.374700 1.006245
H1    H     H_    0.264607 0.749575 0.974454 0.136187
H2    H     H_    0.735440 0.250373 0.025545 0.136175
H3    H     H_    0.590058 0.066329 0.157100 0.132277
H4    H     H_    0.409979 0.933731 0.842928 0.132293
H5    H     H_    0.517028 0.156232 0.953127 0.133463
H6    H     H_    0.483017 0.843821 0.046895 0.133465
H7    H     H_    0.459060 0.880627 0.301108 0.153774
H8    H     H_    0.540934 0.119373 0.698893 0.153772
H9    H     H_    0.273283 0.860890 0.182465 0.126562
H10   H     H_    0.726699 0.139106 0.817510 0.126560
H11   H     H_    0.183752 0.767834 0.377014 0.105087
H12   H     H_    0.816204 0.232187 0.622962 0.105078
H13   H     H_    0.066444 0.454889 0.151008 0.116921
H14   H     H_    0.933612 0.545066 0.849014 0.116949
H15   H     H_    0.161527 0.546510 0.959160 0.174951
H16   H     H_    0.838553 0.453420 0.040862 0.174946
H17   H     H_    0.312231 0.255406 0.940804 0.164603
H18   H     H_    0.687788 0.744583 0.059183 0.164609
H19   H     H_    0.179530 0.264251 0.133249 0.126529
H20   H     H_    0.820453 0.735681 0.866712 0.126526
H21   H     H_    0.251375 0.176401 0.338464 0.113622
H22   H     H_    0.748600 0.823538 0.661505 0.113610
N1    N     N_1   0.500010 0.499990 0.186410 -0.132398
N2    N     N_1   0.499990 0.500010 0.813590 -0.132403
O1    O     O_R   0.499990 0.319650 0.605810 -0.581303
O2    O     O_R   0.500010 0.680350 0.394190 -0.581301
O3    O     O_R   0.499990 0.319640 0.394190 -0.577269
O4    O     O_R   0.500010 0.680360 0.605810 -0.577271
O5    O     O_R   0.319640 0.500010 0.605810 -0.519070
O6    O     O_R   0.680360 0.499990 0.394190 -0.519068
O7    O     O_R   0.319650 0.500010 0.394190 -0.591257
O8    O     O_R   0.680350 0.499990 0.605810 -0.591261
F1    F     F_    0.869557 0.594264 0.295003 -0.676334
F2    F     F_    0.130444 0.405732 0.704994 -0.676338

loop_
_geom_bond_atom_site_label_1
_geom_bond_atom_site_label_2
_ccdc_geom_bond_type
Cu1   O5    S    
C38   C40   A    
C5    C42   A    
Cu1   O4    S    
C40   H2    S    
C30   H10   S    
C1    O3    A    
C4    C42   A    
C28   N2    T    
C16   H6    S    
C36   H14   S    
C41   F1    S    
C20   C25   A    
Cu2   O3    S    
C15   C17   A    
C19   C26   A    
C17   H17   S    
Cu1   N2    S    
C7    C17   A    
C6    C41   A    
C31   C33   A    
Cu2   O2    S    
C39   H1    S    
C1    C22   S    
Cu1   O1    S    
C3    C24   S    
C23   O5    A    
C2    O4    A    
C10   H22   S    
C4    C6    A    
C23   O7    A    
C13   H3    S    
C4    C23   S    
C18   H18   S    
C14   H4    S    
C11   C26   S    
C1    O1    A    
C32   C34   A    
Cu2   O7    S    
Cu1   Cu2   S    
C29   C31   A    
C5    C34   S    
C29   C39   A    
C2    C21   S    
C8    C18   A    
C30   C40   A    
Cu2   O6    S    
C9    C11   A    
C7    H19   S    
C37   H15   S    
C10   C12   A    
C8    H20   S    
C38   H16   S    
C8    C10   A    
C12   C14   A    
C42   F2    S    
C13   C15   A    
C14   C16   A    
C35   C37   A    
Cu1   O8    S    
C7    C9    A    
C21   C25   A    
C3    C41   A    
C19   C21   A    
C24   O8    A    
C20   C22   A    
C3    C5    A    
C20   H8    S    
C6    C33   S    
C12   C25   S    
C35   H13   S    
C36   C38   A    
C37   C39   A    
C30   C32   A    
C11   C13   A    
C24   O6    A    
C29   H9    S    
C33   C35   A    
C34   C36   A    
C15   H5    S    
C9    H21   S    
C27   N1    T    
C19   H7    S    
C16   C18   A    
C22   C26   A    
C27   C28   S    
Cu2   N1    S    
C31   H11   S    
C2    O2    A    
C32   H12   S    
