data_mof_unit_12033.cif
_audit_creation_date              2012-12-10T20:31:04-0500
_audit_creation_method            fapswitch 2.2
_symmetry_space_group_name_H-M    P1
_symmetry_Int_Tables_number       1
_space_group_crystal_system       triclinic
_cell_length_a                    15.007874
_cell_length_b                    10.654465
_cell_length_c                    9.870978
_cell_angle_alpha                 90.378164
_cell_angle_beta                  89.949194
_cell_angle_gamma                 90.056462
_cell_volume                      1578.3421958

loop_
_atom_site_label
_atom_site_type_symbol
_atom_type_description
_atom_site_fract_x
_atom_site_fract_y
_atom_site_fract_z
_atom_type_partial_charge
C1    C     C_R   0.499657 0.260379 0.499580 0.918731
C2    C     C_R   0.907232 0.504319 0.624281 0.119904
C3    C     C_R   0.953897 0.500001 0.252518 -0.217805
C4    C     C_R   0.046475 0.500431 0.252550 -0.214070
C5    C     C_R   0.092780 0.501985 0.375619 0.117159
C6    C     C_R   0.046349 0.503513 0.499954 0.060039
C7    C     C_R   0.092608 0.505279 0.624318 0.120245
C8    C     C_R   0.046131 0.506886 0.747358 -0.215861
C9    C     C_R   0.953557 0.506366 0.747338 -0.219217
C10   C     C_R   0.184927 0.501624 0.376615 -0.239269
C11   C     C_R   0.230667 0.502356 0.500038 -0.066403
C12   C     C_R   0.326607 0.500589 0.500046 0.907327
C13   C     C_R   0.184759 0.505020 0.623392 -0.260761
C14   C     C_R   0.562874 0.064156 0.574007 0.119161
C15   C     C_R   0.501070 0.128558 0.496485 -0.169886
C16   C     C_R   0.444375 0.065042 0.407191 -0.317763
C17   C     C_R   0.444320 0.934584 0.404295 0.498979
C18   C     C_R   0.498471 0.871557 0.497997 -0.204989
C19   C     C_R   0.561073 0.935958 0.575472 0.043479
C20   C     C_3   0.579375 0.930626 0.724095 -0.458784
C21   C     C_3   0.581721 0.072927 0.722285 -0.471044
C22   C     C_R   0.424349 0.471070 0.070683 0.107144
C23   C     C_R   0.498555 0.739589 0.500174 0.942984
C24   C     C_R   0.572040 0.540754 0.072172 -0.144266
C25   C     C_R   0.572068 0.540669 0.928268 -0.144765
C26   C     C_R   0.424190 0.471513 0.928218 0.125133
C27   C     C_3   0.370970 0.353486 0.917367 -0.589580
C28   C     C_3   0.371673 0.351511 0.072718 0.366784
C29   C     C_R   0.673392 0.500239 0.499945 0.881505
C30   C     C_R   0.815079 0.503326 0.623330 -0.265642
C31   C     C_R   0.769337 0.501148 0.499900 -0.067749
C32   C     C_R   0.815230 0.500195 0.376475 -0.263320
C33   C     C_R   0.907395 0.501140 0.375553 0.119721
C34   C     C_R   0.953653 0.503080 0.499927 0.061854
H1    H     H_    0.779192 0.504235 0.718757 0.154076
H2    H     H_    0.522535 0.892187 0.783209 0.210185
H3    H     H_    0.645210 0.887748 0.746321 0.198808
H4    H     H_    0.526279 0.117019 0.779741 0.199660
H5    H     H_    0.648875 0.112545 0.743361 0.199100
H6    H     H_    0.630784 0.571622 0.126300 0.143446
H7    H     H_    0.630841 0.571507 0.874462 0.144155
H8    H     H_    0.303544 0.371717 0.875674 0.166644
H9    H     H_    0.406911 0.277426 0.863176 0.216396
H10   H     H_    0.304186 0.367742 0.115713 0.076253
H11   H     H_    0.779450 0.498588 0.281056 0.154465
H12   H     H_    0.918731 0.498592 0.156645 0.138298
H13   H     H_    0.081799 0.499283 0.156708 0.137204
H14   H     H_    0.220794 0.500639 0.281248 0.149293
H15   H     H_    0.220495 0.506892 0.718749 0.156338
H16   H     H_    0.081318 0.508236 0.843220 0.138016
H17   H     H_    0.918255 0.507387 0.843193 0.138318
H18   H     H_    0.396429 0.116177 0.347401 0.219263
N1    N     N_R   0.499390 0.499140 0.142800 -0.088874
N2    N     N_R   0.499390 0.499180 0.857150 -0.092445
O1    O     O_R   0.500010 0.316790 0.614690 -0.628045
O2    O     O_R   0.500000 0.316760 0.385350 -0.573865
O3    O     O_R   0.367850 0.499990 0.614680 -0.625418
O4    O     O_R   0.367840 0.499950 0.385340 -0.618142
O5    O     O_R   0.500000 0.683240 0.614650 -0.627136
O6    O     O_R   0.499990 0.683210 0.385310 -0.592157
O7    O     O_R   0.632160 0.500050 0.614660 -0.635514
O8    O     O_R   0.632150 0.500010 0.385320 -0.639957
Zn1   Zn    Zn3+2 0.500010 0.500020 0.653130 0.940000
Zn2   Zn    Zn3+2 0.499990 0.499980 0.346870 0.984196
O9    O     O_3   0.382790 0.868239 0.327094 -0.595869
C35   C     C_3   0.396330 0.892922 0.188289 -0.274449
H19   H     H_    0.361049 0.819890 0.128244 0.182482
H20   H     H_    0.468091 0.888469 0.159343 0.146102
H21   H     H_    0.367333 0.985046 0.160480 0.187983
O10   O     O_3   0.414563 0.250356 0.140275 -0.587017
C36   C     C_3   0.489954 0.200061 0.073384 -0.276853
H22   H     H_    0.531780 0.271835 0.022833 0.168608
H23   H     H_    0.468535 0.126454 0.000444 0.141459
H24   H     H_    0.532660 0.153586 0.149691 0.186015

loop_
_geom_bond_atom_site_label_1
_geom_bond_atom_site_label_2
_ccdc_geom_bond_type
C35   H20   S    
C32   H11   S    
C19   C20   S    
C9    H17   S    
C7    C8    A    
C23   O5    A    
C26   C27   S    
C30   H1    S    
C14   C21   S    
C1    O2    A    
C5    C6    A    
N1    Zn2   S    
C35   H21   S    
N2    Zn1   S    
C3    C33   A    
C15   C16   A    
C18   C19   A    
O7    Zn1   S    
O8    Zn2   S    
C21   H4    S    
C8    C9    A    
O1    Zn1   S    
O2    Zn2   S    
O3    Zn1   S    
O10   C36   S    
C1    C15   S    
C12   O4    A    
C2    C34   A    
C35   H19   S    
C22   C28   S    
C26   N2    A    
C33   C34   A    
C22   N1    A    
O4    Zn2   S    
C23   O6    A    
C29   O7    A    
C18   C23   S    
C25   N2    A    
C25   H7    S    
C36   H23   S    
C16   C17   A    
C24   N1    A    
C28   H10   S    
C6    C34   A    
C31   C32   A    
C21   H5    S    
C17   C18   A    
C24   C25   A    
C13   H15   S    
C12   O3    A    
C10   H14   S    
C3    C4    A    
C8    H16   S    
C29   O8    A    
C17   O9    S    
C14   C19   A    
C28   O10   S    
C16   H18   S    
C4    C5    A    
C36   H24   S    
C11   C12   S    
C6    C7    A    
C3    H12   S    
O5    Zn1   S    
C2    C30   A    
O6    Zn2   S    
C32   C33   A    
C1    O1    A    
C5    C10   A    
C29   C31   S    
C20   H3    S    
C11   C13   A    
C27   H8    S    
C30   C31   A    
C24   H6    S    
C10   C11   A    
C20   H2    S    
C27   H9    S    
C7    C13   A    
C36   H22   S    
C20   C21   S    
O9    C35   S    
C22   C26   A    
C27   C28   S    
C14   C15   A    
C2    C9    A    
C4    H13   S    
