data_mof_unit_33167.cif
_audit_creation_date              2012-12-10T20:32:52-0500
_audit_creation_method            fapswitch 2.2
_symmetry_space_group_name_H-M    P1
_symmetry_Int_Tables_number       1
_space_group_crystal_system       triclinic
_cell_length_a                    19.210203
_cell_length_b                    19.182144
_cell_length_c                    19.294913
_cell_angle_alpha                 111.531947
_cell_angle_beta                  111.521437
_cell_angle_gamma                 104.397966
_cell_volume                      5516.26206749

loop_
_atom_site_label
_atom_site_type_symbol
_atom_type_description
_atom_site_fract_x
_atom_site_fract_y
_atom_site_fract_z
_atom_type_partial_charge
C1    C     C_R   0.890542 0.390886 0.000145 0.924068
C2    C     C_R   0.457569 0.277828 0.626866 0.340671
C3    C     C_3   0.851685 0.454637 0.641673 -0.194525
C4    C     C_3   0.748163 0.647093 0.963028 -0.291539
C5    C     C_3   0.658777 0.300948 0.197261 -0.279544
C6    C     C_3   0.049725 0.903742 0.913353 -0.288814
C7    C     C_3   0.353703 0.769726 0.326997 -0.262707
C8    C     C_3   0.645227 0.816400 0.517790 -0.225239
C9    C     C_3   0.632348 0.936622 0.705565 -0.285191
C10   C     C_3   0.514461 0.453606 0.754470 -0.179165
C11   C     C_R   0.430921 0.215212 0.543166 -0.531156
C12   C     C_R   0.880924 0.501552 0.880522 0.947415
C13   C     C_R   0.482883 0.219645 0.507422 0.486668
C14   C     C_R   0.564992 0.284320 0.559246 0.379533
C15   C     C_R   0.590098 0.349906 0.640710 -0.249354
C16   C     C_1   0.829761 0.331193 0.000087 -0.148970
C17   C     C_1   0.778644 0.280602 0.999943 0.008221
C18   C     C_1   0.719303 0.221214 0.999770 -0.004301
C19   C     C_1   0.668712 0.170080 0.999617 -0.190466
C20   C     C_R   0.990246 0.818251 0.042746 -0.348581
C21   C     C_R   0.995755 0.527062 0.275690 0.503132
C22   C     C_R   0.075890 0.544010 0.285974 0.472486
C23   C     C_R   0.094534 0.477362 0.250067 -0.200427
C24   C     C_R   0.109686 0.609016 0.999975 0.864345
C25   C     C_R   0.035087 0.393584 0.210971 0.415996
C26   C     C_R   0.958880 0.378436 0.208106 -0.199630
C27   C     C_R   0.938978 0.443785 0.239638 -0.411647
C28   C     C_R   0.242788 0.498221 0.319898 0.387698
C29   C     C_R   0.313829 0.500713 0.313389 -0.232276
C30   C     C_R   0.320410 0.500269 0.242920 -0.088022
C31   C     C_R   0.754540 0.571504 0.748888 -0.222503
C32   C     C_R   0.257405 0.503570 0.180921 0.469855
C33   C     C_R   0.185626 0.499710 0.186284 -0.258369
C34   C     C_R   0.176697 0.495697 0.254277 -0.090665
C35   C     C_R   0.459316 0.554181 0.253772 0.339093
C36   C     C_R   0.119223 0.499020 0.119845 0.943046
C37   C     C_R   0.520791 0.539924 0.234206 0.364718
C38   C     C_R   0.512948 0.458791 0.196498 -0.292621
C39   C     C_R   0.443997 0.391508 0.174438 -0.208190
C40   C     C_R   0.380129 0.403211 0.187927 0.424650
C41   C     C_R   0.387246 0.485455 0.227258 -0.013312
C42   C     C_R   0.684152 0.496002 0.685773 -0.145524
C43   C     C_1   0.171119 0.668073 0.000033 -0.129776
C44   C     C_1   0.222455 0.717861 0.999580 0.067409
C45   C     C_1   0.281552 0.776759 0.998999 0.018896
C46   C     C_1   0.331724 0.828137 0.998956 -0.164772
C47   C     C_R   0.504227 0.379943 0.383134 0.949607
C48   C     C_R   0.905245 0.788886 0.013913 -0.298069
C49   C     C_R   0.619936 0.497625 0.618908 0.929303
C50   C     C_R   0.497813 0.620179 0.618284 0.917500
C51   C     C_R   0.379784 0.500068 0.379350 1.012487
C52   C     C_R   0.496526 0.878052 0.878076 0.868435
C53   C     C_R   0.673380 0.423188 0.692111 0.069510
C54   C     C_R   0.609068 0.109372 0.999725 0.896165
C55   C     C_R   0.501803 0.119993 0.121639 0.931984
C56   C     C_R   0.391005 0.889828 0.999523 0.895762
C57   C     C_R   0.759847 0.542409 0.460284 0.417390
C58   C     C_R   0.684897 0.471767 0.392133 -0.361255
C59   C     C_R   0.664689 0.394626 0.388597 -0.090245
C60   C     C_R   0.848524 0.709318 0.941416 0.582824
C61   C     C_R   0.725731 0.385570 0.449192 0.380595
C62   C     C_R   0.802117 0.455644 0.515938 0.374841
C63   C     C_R   0.818830 0.534124 0.522504 0.337726
C64   C     C_R   0.741139 0.424890 0.755353 0.412999
C65   C     C_R   0.578792 0.259141 0.249665 0.454243
C66   C     C_R   0.502821 0.187380 0.187223 -0.219779
C67   C     C_R   0.428100 0.181431 0.186336 0.013561
C68   C     C_R   0.430806 0.245833 0.251868 -0.193251
C69   C     C_R   0.506615 0.315436 0.317387 -0.147402
C70   C     C_R   0.581911 0.323106 0.317338 -0.043745
C71   C     C_R   0.287073 0.109324 0.052233 0.479632
C72   C     C_R   0.877219 0.660132 0.894955 -0.057228
C73   C     C_R   0.210717 0.037261 0.989427 -0.399340
C74   C     C_R   0.193631 0.963898 0.994435 0.608997
C75   C     C_R   0.812959 0.501126 0.816052 -0.181256
C76   C     C_R   0.255075 0.962856 0.060761 -0.206858
C77   C     C_R   0.330945 0.033471 0.122667 -0.400155
C78   C     C_R   0.347013 0.107189 0.119600 0.110643
C79   C     C_R   0.522586 0.805668 0.515088 0.381421
C80   C     C_R   0.536410 0.806031 0.592717 0.385943
C81   C     C_R   0.470458 0.754830 0.593565 -0.055369
C82   C     C_R   0.391016 0.707572 0.519724 -0.323735
C83   C     C_R   0.376083 0.712116 0.445558 -0.348665
C84   C     C_R   0.962784 0.690747 0.923517 -0.231914
C85   C     C_R   0.441179 0.763285 0.443227 0.526696
C86   C     C_R   0.816608 0.576121 0.817925 -0.027915
C87   C     C_R   0.481774 0.812188 0.736417 -0.223821
C88   C     C_R   0.494848 0.810185 0.811680 -0.089361
C89   C     C_R   0.508625 0.745211 0.822987 0.031806
C90   C     C_R   0.508376 0.682693 0.757535 -0.242037
C91   C     C_R   0.496403 0.685672 0.683186 -0.068191
C92   C     C_R   0.483949 0.750858 0.672240 0.124951
C93   C     C_R   0.601005 0.754425 0.959807 -0.131063
C94   C     C_R   0.613183 0.745944 0.031665 -0.267532
C95   C     C_R   0.546162 0.721058 0.044221 -0.088425
C96   C     C_R   0.019658 0.768945 0.998193 0.569022
C97   C     C_R   0.536222 0.347407 0.674417 0.509998
C98   C     C_R   0.466353 0.704370 0.985042 0.517812
C99   C     C_R   0.454503 0.714529 0.913409 -0.279429
C100  C     C_R   0.521766 0.739377 0.900697 0.093622
C101  C     C_3   0.378515 0.142796 0.363792 -0.282091
C102  C     C_3   0.643034 0.220421 0.525137 -0.180034
C103  C     C_3   0.896423 0.577020 0.247841 -0.244139
C104  C     C_3   0.168134 0.667069 0.412724 -0.281784
C105  C     C_3   0.288560 0.580142 0.120614 -0.205471
C106  C     C_3   0.887222 0.659787 0.648687 -0.224003
C107  C     C_3   0.722439 0.648671 0.473012 -0.256223
H1    H     H_    0.033137 0.879423 0.099750 0.158831
H2    H     H_    0.165845 0.038091 0.936124 0.144878
H3    H     H_    0.244297 0.906789 0.064470 0.193611
H4    H     H_    0.377572 0.030507 0.172881 0.182086
H5    H     H_    0.985367 0.653310 0.888516 0.147641
H6    H     H_    0.340414 0.667523 0.520027 0.212178
H7    H     H_    0.313872 0.674513 0.389772 0.209846
H8    H     H_    0.471248 0.862375 0.728299 0.149654
H9    H     H_    0.518384 0.631929 0.764818 0.145726
H10   H     H_    0.653214 0.772693 0.950150 0.173541
H11   H     H_    0.674513 0.757919 0.077274 0.159729
H12   H     H_    0.370249 0.162240 0.506555 0.188341
H13   H     H_    0.556048 0.713736 0.099612 0.158540
H14   H     H_    0.393116 0.701877 0.867044 0.123177
H15   H     H_    0.758398 0.628484 0.747785 0.175798
H16   H     H_    0.370518 0.200879 0.375489 0.171427
H17   H     H_    0.328454 0.097178 0.362242 0.160636
H18   H     H_    0.371449 0.114024 0.298849 0.190143
H19   H     H_    0.603126 0.165532 0.458468 0.211428
H20   H     H_    0.639882 0.201065 0.572234 0.117937
H21   H     H_    0.708567 0.241319 0.539851 0.209484
H22   H     H_    0.849467 0.540948 0.257456 0.171413
H23   H     H_    0.878962 0.428897 0.235529 0.186804
H24   H     H_    0.880556 0.544210 0.179159 0.162574
H25   H     H_    0.893389 0.637341 0.261937 0.191875
H26   H     H_    0.122522 0.680352 0.431128 0.220860
H27   H     H_    0.221212 0.728139 0.441860 0.184915
H28   H     H_    0.192788 0.631475 0.441108 0.142910
H29   H     H_    0.102900 0.342332 0.178535 0.341761
H30   H     H_    0.187840 0.495794 0.388100 0.335725
H31   H     H_    0.246231 0.608363 0.129141 0.106254
H32   H     H_    0.289013 0.575605 0.061805 0.204798
H33   H     H_    0.353027 0.622197 0.176194 0.224655
H34   H     H_    0.913808 0.314873 0.179704 0.203297
H35   H     H_    0.528768 0.673167 0.335714 0.341133
H36   H     H_    0.573281 0.648039 0.247639 0.338447
H37   H     H_    0.270376 0.347792 0.172029 0.328633
H38   H     H_    0.837416 0.630987 0.659884 0.105457
H39   H     H_    0.875370 0.705559 0.629734 0.194342
H40   H     H_    0.946830 0.695023 0.711427 0.194979
H41   H     H_    0.715232 0.648362 0.527647 0.136928
H42   H     H_    0.660743 0.612985 0.412452 0.183636
H43   H     H_    0.746642 0.714468 0.488344 0.168684
H44   H     H_    0.657589 0.266647 0.399741 0.362013
H45   H     H_    0.883273 0.827508 0.048534 0.176809
H46   H     H_    0.788950 0.408233 0.619549 0.188074
H47   H     H_    0.861295 0.519085 0.681009 0.138612
H48   H     H_    0.898685 0.443104 0.684367 0.190256
H49   H     H_    0.784129 0.694711 0.033281 0.144912
H50   H     H_    0.761489 0.591924 0.951809 0.196147
H51   H     H_    0.681058 0.625674 0.942247 0.193531
H52   H     H_    0.664626 0.365539 0.226535 0.158363
H53   H     H_    0.605339 0.262138 0.129492 0.141324
H54   H     H_    0.716426 0.304952 0.194954 0.193165
H55   H     H_    0.257215 0.172327 0.996731 0.347034
H56   H     H_    0.560377 0.447591 0.183074 0.190504
H57   H     H_    0.039082 0.927298 0.867574 0.161442
H58   H     H_    0.052629 0.946621 0.973090 0.155949
H59   H     H_    0.994790 0.843016 0.880891 0.188662
H60   H     H_    0.340684 0.812028 0.372897 0.152703
H61   H     H_    0.301601 0.705602 0.285513 0.165231
H62   H     H_    0.357308 0.793866 0.283630 0.190647
H63   H     H_    0.616443 0.747566 0.491357 0.123564
H64   H     H_    0.695055 0.848828 0.586599 0.197552
H65   H     H_    0.675415 0.827822 0.481281 0.175536
H66   H     H_    0.641116 0.963744 0.665733 0.200255
H67   H     H_    0.439698 0.329322 0.145265 0.228025
H68   H     H_    0.691566 0.971401 0.768599 0.195371
H69   H     H_    0.582841 0.946405 0.718904 0.143311
H70   H     H_    0.348766 0.663204 0.948270 0.327858
H71   H     H_    0.135043 0.848641 0.082630 0.316890
H72   H     H_    0.686108 0.305537 0.716224 0.331928
H73   H     H_    0.464315 0.426119 0.765477 0.212361
H74   H     H_    0.486789 0.454956 0.693407 0.152718
H75   H     H_    0.553729 0.519450 0.807962 0.156143
H76   H     H_    0.355887 0.219761 0.622389 0.340807
H77   H     H_    0.641475 0.477016 0.341797 0.206297
H78   H     H_    0.373383 0.241531 0.251836 0.183714
O1    O     O_R   0.916810 0.468940 0.051330 -0.643320
O2    O     O_R   0.550070 0.907030 0.957060 -0.613405
O3    O     O_R   0.531060 0.084080 0.949590 -0.617873
O4    O     O_R   0.917640 0.365500 0.948670 -0.596402
O5    O     O_R   0.634490 0.081390 0.050330 -0.598295
O6    O     O_R   0.449930 0.092880 0.042850 -0.619120
O7    O     O_R   0.553360 0.090200 0.143600 -0.580199
O8    O     O_R   0.365510 0.918520 0.949590 -0.604282
O9    O     O_R   0.468940 0.915840 0.050330 -0.613952
O10   O     O_R   0.907960 0.551720 0.959710 -0.636760
O11   O     O_R   0.908790 0.448280 0.857050 -0.594101
O12   O     O_R   0.453980 0.361630 0.409070 -0.640917
O13   O     O_R   0.082360 0.634500 0.051330 -0.603242
O14   O     O_R   0.083190 0.531060 0.948670 -0.619665
O15   O     O_R   0.091210 0.551720 0.142950 -0.603432
O16   O     O_R   0.092040 0.448280 0.040290 -0.580492
O17   O     O_R   0.547440 0.455060 0.409050 -0.645046
O18   O     O_3   0.457962 0.158773 0.424830 -0.589714
O19   O     O_3   0.620760 0.286331 0.529838 -0.608406
O20   O     O_3   0.977566 0.593967 0.306173 -0.596749
O21   O     O_3   0.133265 0.625382 0.322155 -0.580319
O22   O     O_3   0.048275 0.324731 0.175123 -0.743580
O23   O     O_R   0.638350 0.546700 0.591580 -0.654812
O24   O     O_3   0.240401 0.497086 0.390490 -0.753787
O25   O     O_3   0.261200 0.499222 0.109124 -0.589943
O26   O     O_3   0.468835 0.633555 0.301046 -0.744038
O27   O     O_3   0.588397 0.602838 0.249744 -0.772555
O28   O     O_3   0.312950 0.332800 0.162364 -0.732133
O29   O     O_3   0.896165 0.600636 0.586763 -0.532835
O30   O     O_3   0.779774 0.618060 0.462624 -0.562431
O31   O     O_3   0.715227 0.309796 0.444578 -0.696739
O32   O     O_3   0.863730 0.446098 0.571747 -0.525240
O33   O     O_3   0.764398 0.681022 0.913920 -0.619999
O34   O     O_R   0.544890 0.453260 0.591610 -0.645407
O35   O     O_3   0.651113 0.264582 0.247347 -0.571901
O36   O     O_3   0.305516 0.181102 0.047495 -0.731067
O37   O     O_3   0.121561 0.889906 0.931760 -0.575217
O38   O     O_3   0.430212 0.768205 0.370007 -0.539390
O39   O     O_3   0.586981 0.850069 0.509175 -0.580772
O40   O     O_3   0.615012 0.851458 0.666067 -0.597460
O41   O     O_3   0.401383 0.677180 0.998195 -0.783298
O42   O     O_3   0.103395 0.795585 0.026253 -0.760155
O43   O     O_3   0.738088 0.355891 0.764393 -0.760582
O44   O     O_3   0.564784 0.410835 0.757074 -0.581175
O45   O     O_R   0.546020 0.638330 0.590880 -0.611250
O46   O     O_3   0.408685 0.271974 0.663942 -0.743320
O47   O     O_R   0.452560 0.544900 0.590910 -0.626180
O48   O     O_R   0.455110 0.546690 0.408340 -0.633982
O49   O     O_R   0.361650 0.453260 0.408370 -0.567281
O50   O     O_R   0.446640 0.909720 0.856320 -0.627151
Zn1   Zn    Zn3+2 0.999450 0.569070 0.068540 0.987616
Zn2   Zn    Zn3+2 0.000550 0.430930 0.931460 1.025545
Zn3   Zn    Zn3+2 0.562400 0.562360 0.499960 0.914887
Zn4   Zn    Zn3+2 0.437600 0.437590 0.500000 0.973202
Zn5   Zn    Zn3+2 0.430940 0.001750 0.932690 0.992033
Zn6   Zn    Zn3+2 0.569060 0.998160 0.067220 1.017354

loop_
_geom_bond_atom_site_label_1
_geom_bond_atom_site_label_2
_ccdc_geom_bond_type
C87   C88   A    
C6    H59   S    
C93   C94   A    
C71   O36   S    
C31   C42   A    
O12   Zn4   S    
O50   Zn5   S    
C64   O43   S    
O2    Zn6   S    
O4    Zn2   S    
C55   C66   S    
C81   C82   A    
C90   C91   A    
C95   C98   A    
C79   O39   S    
C37   O27   S    
C1    O1    A    
C77   C78   A    
C105  H31   S    
C26   C27   A    
C29   C30   A    
C106  H38   S    
C74   C76   A    
C49   O34   A    
C51   O49   A    
C15   C53   S    
C6    O37   S    
C28   C29   A    
O9    Zn6   S    
C102  H21   S    
C42   C53   A    
C38   C39   A    
C53   C64   A    
C5    O35   S    
C60   C72   A    
O34   Zn4   S    
C65   C70   A    
C98   C99   A    
C3    H46   S    
C33   C36   S    
C7    O38   S    
C22   O21   S    
C9    H69   S    
C58   H77   S    
C18   C19   T    
C84   C96   A    
C21   O20   S    
H72   O43   S    
C77   H4    S    
C35   O26   S    
C47   C69   S    
C102  O19   S    
O49   Zn4   S    
H70   O41   S    
C107  H43   S    
C84   H5    S    
C4    H51   S    
C4    H50   S    
C2    C97   A    
C16   C17   T    
C5    H52   S    
C14   O19   S    
C40   O28   S    
O47   Zn4   S    
C101  H18   S    
H55   O36   S    
C30   C41   S    
C9    H66   S    
C50   O45   A    
C52   O2    A    
C90   H9    S    
C80   O40   S    
C26   H34   S    
C103  H25   S    
C87   H8    S    
C8    O39   S    
C8    H64   S    
C99   H14   S    
C5    H53   S    
C23   C25   A    
C66   C67   A    
C20   C96   A    
C6    H58   S    
C28   C34   A    
C31   C86   A    
C54   O3    A    
C13   C14   A    
C94   H11   S    
C81   C92   S    
C83   H7    S    
C61   C62   A    
C67   C78   S    
C93   H10   S    
H35   O26   S    
C15   C97   A    
C39   H67   S    
C2    C11   A    
O14   Zn2   S    
C8    H63   S    
C48   C60   A    
O1    Zn1   S    
O11   Zn2   S    
C83   C85   A    
C73   C74   A    
C106  O29   S    
C97   O44   S    
C59   C61   A    
C101  H17   S    
C104  H26   S    
C89   C100  S    
C67   C68   A    
C62   O32   S    
C36   O15   A    
C52   C88   S    
C76   C77   A    
C24   O14   A    
C102  H20   S    
C101  O18   S    
O23   Zn3   S    
C91   C92   A    
C71   C73   A    
C57   C63   A    
C68   C69   A    
C42   C49   S    
C25   C26   A    
C45   C46   T    
C25   O22   S    
C10   O44   S    
C106  H40   S    
C13   O18   S    
C47   O17   A    
H30   O24   S    
C7    H61   S    
C5    H54   S    
O48   Zn3   S    
C96   O42   S    
O8    Zn5   S    
C37   C38   A    
O3    Zn5   S    
C60   O33   S    
C105  H32   S    
C32   O25   S    
C12   O11   A    
C75   C86   A    
C99   C100  A    
C49   O23   A    
C3    O32   S    
C23   C34   S    
C62   C63   A    
C3    H48   S    
C17   C18   S    
C94   C95   A    
C1    C16   S    
C101  H16   S    
C50   O47   A    
C103  H22   S    
C93   C100  A    
H71   O42   S    
C20   C48   A    
C104  H27   S    
C2    O46   S    
C56   O9    A    
C19   C54   S    
C38   H56   S    
C61   O31   S    
C6    H57   S    
C68   H78   S    
C65   C66   A    
C104  O21   S    
H44   O31   S    
C7    H62   S    
C43   C44   T    
C10   H75   S    
C12   O10   A    
O10   Zn1   S    
O45   Zn3   S    
C36   O16   A    
C4    H49   S    
H76   O46   S    
C79   C85   A    
C72   C84   A    
C87   C92   A    
C44   C45   S    
C29   C51   S    
O6    Zn5   S    
C24   C43   S    
C7    H60   S    
C40   C41   A    
O7    Zn6   S    
C54   O5    A    
C11   H12   S    
C35   C37   A    
C22   C23   A    
C103  O20   S    
C82   H6    S    
C80   C81   A    
C102  H19   S    
O17   Zn3   S    
C65   O35   S    
C72   C86   S    
O16   Zn2   S    
H36   O27   S    
C95   H13   S    
H29   O22   S    
C74   O37   S    
C4    O33   S    
C106  H39   S    
C57   O30   S    
C51   O48   A    
C10   H73   S    
C55   O7    A    
C48   H45   S    
C28   O24   S    
O13   Zn1   S    
C32   C33   A    
C105  H33   S    
C30   C32   A    
C107  H41   S    
C11   C13   A    
O15   Zn1   S    
C57   C58   A    
H37   O28   S    
C56   O8    A    
C85   O38   S    
C10   H74   S    
C31   H15   S    
C64   C75   A    
C33   C34   A    
C9    H68   S    
C73   H2    S    
C3    H47   S    
C63   O29   S    
C21   C27   A    
C69   C70   A    
C35   C41   A    
C58   C59   A    
C105  O25   S    
C59   C70   S    
C24   O13   A    
C79   C80   A    
C39   C40   A    
C50   C91   S    
C107  H42   S    
C107  O30   S    
C88   C89   A    
O5    Zn6   S    
C76   H3    S    
C82   C83   A    
C12   C75   S    
C46   C56   S    
C27   H23   S    
C14   C15   A    
C47   O12   A    
C9    O40   S    
C104  H28   S    
C20   H1    S    
C89   C90   A    
C21   C22   A    
C103  H24   S    
C71   C78   A    
C8    H65   S    
C52   O50   A    
C55   O6    A    
C98   O41   S    
C1    O4    A    
