data_mof_unit_36721.cif
_audit_creation_date              2012-12-11T17:01:15-0500
_audit_creation_method            fapswitch 2.2
_symmetry_space_group_name_H-M    P1
_symmetry_Int_Tables_number       1
_space_group_crystal_system       triclinic
_cell_length_a                    19.371197
_cell_length_b                    7.119312
_cell_length_c                    17.588285
_cell_angle_alpha                 90.335135
_cell_angle_beta                  108.586826
_cell_angle_gamma                 89.387912
_cell_volume                      2298.93966597

loop_
_atom_site_label
_atom_site_type_symbol
_atom_type_description
_atom_site_fract_x
_atom_site_fract_y
_atom_site_fract_z
_atom_type_partial_charge
O1    O     O_R   0.413720 0.494330 0.415730 -0.531711
O2    O     O_R   0.586280 0.994330 0.584270 -0.536430
O3    O     O_R   0.560210 0.819300 0.430070 -0.551553
O4    O     O_R   0.439790 0.319300 0.569930 -0.516861
C1    C     C_R   0.580221 0.654330 0.413120 0.758649
C2    C     C_R   0.419603 0.155879 0.586800 0.729824
O5    O     O_R   0.412670 0.823730 0.406310 -0.547875
O6    O     O_R   0.587330 0.323730 0.593690 -0.552330
O7    O     O_R   0.437690 0.998790 0.560340 -0.538214
O8    O     O_R   0.562310 0.498790 0.439660 -0.539845
C3    C     C_R   0.385073 0.655499 0.384062 0.724172
C4    C     C_R   0.615049 0.154176 0.616016 0.690043
O9    O     O_3   0.508380 0.662350 0.550560 -0.374916
O10   O     O_3   0.491620 0.162350 0.449440 -0.388164
V1    V     V_3+5 0.498450 0.935370 0.490620 1.375590
V2    V     V_3+5 0.501550 0.435370 0.509380 1.415256
C5    C     C_R   0.743941 0.030014 0.680831 0.113890
C6    C     C_R   0.254123 0.554328 0.321573 0.126073
C7    C     C_R   0.684512 0.142888 0.683558 -0.151503
C8    C     C_R   0.315881 0.648143 0.316575 -0.144744
C9    C     C_R   0.694362 0.251504 0.753344 -0.210546
C10   C     C_R   0.308337 0.738497 0.242926 -0.187098
H1    H     H_    0.649749 0.335398 0.759244 0.134465
H2    H     H_    0.354196 0.810193 0.234338 0.129844
C11   C     C_R   0.760432 0.246055 0.817552 -0.173227
C12   C     C_R   0.242467 0.729035 0.177840 -0.176662
H3    H     H_    0.765152 0.328893 0.870799 0.119523
H4    H     H_    0.239172 0.797896 0.122029 0.118159
C13   C     C_R   0.817891 0.125643 0.814985 -0.077555
C14   C     C_R   0.183008 0.623338 0.183649 -0.079471
C15   C     C_R   0.809397 0.026817 0.743866 0.003431
C16   C     C_R   0.190346 0.546150 0.258344 0.019598
C17   C     C_3   0.826388 0.827747 0.730924 -0.449035
C18   C     C_3   0.163207 0.377580 0.288644 -0.488090
C19   C     C_3   0.752587 0.823962 0.664055 0.478119
C20   C     C_3   0.235449 0.381469 0.359773 0.468738
H5    H     H_    0.830700 0.736204 0.783122 0.170869
H6    H     H_    0.157208 0.254812 0.247849 0.169781
H7    H     H_    0.874144 0.817380 0.709016 0.157912
H8    H     H_    0.113675 0.413150 0.304876 0.161869
C21   C     C_R   0.327961 0.991839 0.635020 -0.274031
C22   C     C_R   0.684059 0.777054 0.374672 -0.292505
C23   C     C_R   0.372749 0.148436 0.639287 -0.182349
C24   C     C_R   0.627902 0.645515 0.361612 -0.156807
C25   C     C_R   0.372013 0.296696 0.693486 0.376663
C26   C     C_R   0.615066 0.516166 0.297150 0.337621
C27   C     C_R   0.321597 0.294505 0.736351 -0.005330
C28   C     C_R   0.661598 0.515840 0.248487 0.006627
C29   C     C_R   0.276446 0.137060 0.730537 -0.001553
C30   C     C_R   0.720508 0.642796 0.265852 0.002374
C31   C     C_R   0.280444 0.984526 0.680570 0.091603
C32   C     C_R   0.730203 0.776960 0.327506 0.089328
C33   C     C_R   0.315645 0.446636 0.785421 -0.171603
C34   C     C_R   0.649888 0.395993 0.181428 -0.168088
C35   C     C_R   0.266655 0.441897 0.828852 -0.210450
C36   C     C_R   0.699197 0.387612 0.138310 -0.201336
C37   C     C_R   0.222297 0.285392 0.824124 0.094265
C38   C     C_R   0.759295 0.506768 0.157696 0.104422
C39   C     C_R   0.227095 0.132052 0.774856 0.082527
C40   C     C_R   0.768680 0.639759 0.219779 0.074444
C41   C     C_R   0.182736 0.973528 0.770047 0.092319
C42   C     C_R   0.825944 0.770538 0.235428 0.097317
C43   C     C_R   0.187080 0.823008 0.719869 -0.200924
C44   C     C_R   0.833598 0.906128 0.295644 -0.177938
C45   C     C_R   0.235475 0.828624 0.675514 -0.177146
C46   C     C_R   0.785989 0.909805 0.340994 -0.187097
C47   C     C_R   0.173581 0.279485 0.868284 -0.222437
C48   C     C_R   0.809252 0.497789 0.114885 -0.217168
C49   C     C_R   0.130192 0.120629 0.865189 -0.083382
C50   C     C_R   0.867036 0.625323 0.131043 -0.078211
C51   C     C_R   0.135064 0.968096 0.815701 -0.228867
C52   C     C_R   0.874242 0.763911 0.190304 -0.222217
H9    H     H_    0.328954 0.876533 0.594809 0.165788
H10   H     H_    0.692053 0.879937 0.422348 0.168965
H11   H     H_    0.348590 0.570738 0.790222 0.170564
H12   H     H_    0.603178 0.305876 0.161750 0.148289
H13   H     H_    0.263441 0.561199 0.866179 0.133927
H14   H     H_    0.689742 0.288906 0.088971 0.128436
H15   H     H_    0.170599 0.397487 0.906408 0.128362
H16   H     H_    0.802320 0.394084 0.067667 0.117664
H17   H     H_    0.101492 0.845476 0.812316 0.129992
H18   H     H_    0.918270 0.863960 0.202282 0.123476
H19   H     H_    0.153155 0.700586 0.715022 0.135724
H20   H     H_    0.876632 0.008982 0.307932 0.124370
H21   H     H_    0.237741 0.711031 0.637108 0.135960
H22   H     H_    0.793306 0.015663 0.387372 0.124148
O11   O     O_R   0.937800 0.775460 0.060470 -0.535955
O12   O     O_R   0.062200 0.275460 0.939530 -0.537969
O13   O     O_R   0.087350 0.441340 0.093710 -0.538647
O14   O     O_R   0.912650 0.941340 0.906290 -0.539735
C53   C     C_R   0.114757 0.609985 0.115805 0.696442
C54   C     C_R   0.885396 0.110846 0.883933 0.697136
O15   O     O_R   0.939820 0.446010 0.069950 -0.541131
O16   O     O_R   0.060180 0.946010 0.930050 -0.544973
O17   O     O_R   0.913690 0.271230 0.915700 -0.540319
O18   O     O_R   0.086310 0.771230 0.084300 -0.537756
C55   C     C_R   0.918363 0.615247 0.084314 0.704356
C56   C     C_R   0.080999 0.113623 0.914715 0.706167
O19   O     O_3   0.991670 0.603050 0.949510 -0.376130
O20   O     O_3   0.008330 0.103050 0.050490 -0.372277
V3    V     V_3+5 0.001550 0.329940 0.009370 1.398128
V4    V     V_3+5 0.998450 0.829940 0.990630 1.394053
C57   C     C_3   0.695043 0.693219 0.680461 -0.333704
C58   C     C_3   0.679649 0.726913 0.760065 -0.789173
H23   H     H_    0.726066 0.678950 0.811840 0.219251
H24   H     H_    0.667008 0.874675 0.769570 0.239230
H25   H     H_    0.631017 0.647407 0.759640 0.204705
H26   H     H_    0.643679 0.701969 0.630140 0.218336
H27   H     H_    0.713927 0.546686 0.680458 0.168634
C59   C     C_3   0.287097 0.210005 0.364228 -0.335399
C60   C     C_3   0.313562 0.183867 0.291357 -0.744979
H28   H     H_    0.268495 0.137208 0.238141 0.219548
H29   H     H_    0.337747 0.311904 0.275898 0.223151
H30   H     H_    0.357601 0.077543 0.306016 0.232728
H31   H     H_    0.335042 0.222669 0.418905 0.201210
H32   H     H_    0.258674 0.079421 0.370919 0.151957
O21   O     O_3   0.759622 0.801878 0.586568 -0.586106
C61   C     C_3   0.783625 0.618641 0.573906 0.046177
H33   H     H_    0.736446 0.542454 0.532886 0.135520
H34   H     H_    0.805720 0.533498 0.629552 0.109539
C62   C     C_3   0.844084 0.632998 0.535751 -0.279851
H35   H     H_    0.829175 0.739464 0.487541 0.216483
H36   H     H_    0.895070 0.679616 0.581780 0.177161
C63   C     C_3   0.857848 0.444990 0.500684 -0.829780
H37   H     H_    0.873113 0.335715 0.548124 0.230571
H38   H     H_    0.903049 0.459497 0.475114 0.232241
H39   H     H_    0.808290 0.400168 0.452033 0.229779
O22   O     O_3   0.226405 0.431262 0.434386 -0.577846
C64   C     C_3   0.192325 0.287102 0.464232 0.065380
H40   H     H_    0.232034 0.172055 0.489819 0.117216
H41   H     H_    0.144788 0.227254 0.416922 0.122466
C65   C     C_3   0.166182 0.368177 0.531078 -0.282709
H42   H     H_    0.214194 0.397800 0.584252 0.193206
H43   H     H_    0.136251 0.502392 0.510887 0.200202
C66   C     C_3   0.115969 0.233048 0.554807 -0.831059
H44   H     H_    0.064036 0.217819 0.504837 0.225876
H45   H     H_    0.103674 0.288653 0.608255 0.234356
H46   H     H_    0.142187 0.092894 0.569442 0.244609
O23   O     O_3   0.418886 0.447185 0.703384 -0.569512
C67   C     C_3   0.489904 0.392973 0.751676 0.111788
H47   H     H_    0.528636 0.477130 0.731807 0.141017
H48   H     H_    0.503613 0.242758 0.744182 0.077653
C68   C     C_3   0.501377 0.435214 0.840407 -0.339767
H49   H     H_    0.488658 0.585583 0.847602 0.202229
H50   H     H_    0.464168 0.347386 0.861611 0.197078
C69   C     C_3   0.579542 0.393090 0.892502 -0.848502
H51   H     H_    0.594061 0.244201 0.885189 0.232357
H52   H     H_    0.584910 0.418058 0.956502 0.239732
H53   H     H_    0.618100 0.486364 0.876173 0.228793
O24   O     O_3   0.548801 0.424329 0.272309 -0.577577
C70   C     C_3   0.557469 0.228219 0.284717 0.079998
H54   H     H_    0.554735 0.194136 0.345035 0.165752
H55   H     H_    0.610386 0.171526 0.281674 0.103712
C71   C     C_3   0.494399 0.132541 0.220919 -0.317589
H56   H     H_    0.442160 0.173087 0.230212 0.194493
H57   H     H_    0.492139 0.181933 0.160383 0.196881
C72   C     C_3   0.501724 0.919421 0.222761 -0.798367
H58   H     H_    0.555149 0.875845 0.217296 0.241414
H59   H     H_    0.457945 0.858334 0.171703 0.224781
H60   H     H_    0.495800 0.864569 0.279071 0.237610

loop_
_geom_bond_atom_site_label_1
_geom_bond_atom_site_label_2
_ccdc_geom_bond_type
C48   H16   S    
C66   H46   S    
C43   C45   A    
C72   H58   S    
O18   V4    S    
C68   C69   S    
C60   H28   S    
O1    C3    A    
C67   C68   S    
O2    C4    A    
O22   C64   S    
C2    O7    A    
C58   H24   S    
O12   V3    S    
C32   C46   A    
C66   H44   S    
C27   C29   A    
C20   O22   S    
C28   C34   A    
C17   H7    S    
C18   H8    S    
C7    C9    A    
C67   H48   S    
C69   H51   S    
C59   H32   S    
C19   C57   S    
C35   H13   S    
C37   C39   A    
O16   C56   A    
C38   C40   A    
C68   H49   S    
C69   H53   S    
C68   H50   S    
C25   O23   S    
C36   H14   S    
C40   C42   A    
C31   C45   A    
C70   C71   S    
C49   C51   A    
C59   C60   S    
C44   H20   S    
C62   C63   S    
C42   C44   A    
C17   C19   S    
C53   O18   A    
C61   H33   S    
O14   V4    S    
C65   H42   S    
C29   C31   A    
C30   C32   A    
C70   H54   S    
C15   C17   S    
C57   H26   S    
O13   C53   A    
C71   H57   S    
C50   C55   S    
C27   C33   A    
C64   C65   S    
C49   C56   S    
C41   C51   A    
C28   C30   A    
C72   H59   S    
C21   C23   A    
C33   H11   S    
C22   C24   A    
C37   C47   A    
C58   H23   S    
C24   C26   A    
C69   H52   S    
C33   C35   A    
C11   C13   A    
C34   C36   A    
C3    C8    S    
C39   C41   A    
C22   H10   S    
C47   H15   S    
C67   H47   S    
C71   C72   S    
O4    C2    A    
O15   V3    S    
C16   C18   S    
C54   O17   A    
C17   H5    S    
C43   H19   S    
C47   C49   A    
C61   C62   S    
C44   C46   A    
O4    V2    S    
O5    C3    A    
O11   V4    S    
O14   C54   A    
O12   C56   A    
O6    C4    A    
O20   V4    S    
C71   H56   S    
C42   C52   A    
C60   H29   S    
O1    V2    S    
C58   H25   S    
O2    V1    S    
C23   C25   A    
C62   H35   S    
C63   H39   S    
C34   H12   S    
C38   C48   A    
C26   O24   S    
C1    C24   S    
C8    C10   A    
C12   C14   A    
C72   H60   S    
C2    C23   S    
C35   C37   A    
C20   C59   S    
C5    C15   A    
C10   H2    S    
C19   O21   S    
C6    C16   A    
O15   C55   A    
O3    V1    S    
C63   H38   S    
C64   H40   S    
C66   H45   S    
C9    C11   A    
O13   V3    S    
C18   H6    S    
C41   C43   A    
C14   C53   S    
O3    C1    A    
C46   H22   S    
O23   C67   S    
C45   H21   S    
C21   C31   A    
C11   H3    S    
C12   H4    S    
C29   C39   A    
C57   H27   S    
C30   C40   A    
C9    H1    S    
O7    V1    S    
C1    O8    A    
C13   C15   A    
O8    V2    S    
O21   C61   S    
C14   C16   A    
C65   C66   S    
C65   H43   S    
C4    C7    S    
O5    V1    S    
O20   V3    S    
C5    C7    A    
C18   C20   S    
C36   C38   A    
C60   H30   S    
C6    C8    A    
C70   H55   S    
C61   H34   S    
C62   H36   S    
C21   H9    S    
C26   C28   A    
C64   H41   S    
O19   V4    S    
C25   C27   A    
O16   V4    S    
O6    V2    S    
C10   C12   A    
O9    V2    S    
C57   C58   S    
C48   C50   A    
O10   V1    S    
C63   H37   S    
C50   C52   A    
C5    C19   S    
O11   C55   A    
C6    C20   S    
C59   H31   S    
O19   V3    S    
C13   C54   S    
C52   H18   S    
O17   V3    S    
C22   C32   A    
O24   C70   S    
C51   H17   S    
