data_mof_unit_21676.cif
_audit_creation_date              2013-03-05T15:59:21-0500
_audit_creation_method            fapswitch 2.2
_symmetry_space_group_name_H-M    P1
_symmetry_Int_Tables_number       1
_space_group_crystal_system       triclinic
_cell_length_a                    10.515784
_cell_length_b                    12.600623
_cell_length_c                    13.126345
_cell_angle_alpha                 81.629198
_cell_angle_beta                  90.600534
_cell_angle_gamma                 102.483933
_cell_volume                      1679.70081212

loop_
_atom_site_label
_atom_site_type_symbol
_atom_site_description
_atom_site_fract_x
_atom_site_fract_y
_atom_site_fract_z
_atom_type_partial_charge
O1    O     O_R   0.467970 0.366730 0.627150 -0.582634
O2    O     O_R   0.510820 0.544830 0.662520 -0.634315
C1    C     C_R   0.477504 0.437838 0.691680 0.877241
O3    O     O_R   0.664630 0.410960 0.482340 -0.630266
O4    O     O_R   0.707470 0.589060 0.517710 -0.611255
C2    C     C_R   0.742113 0.500414 0.500338 0.887159
Zn1   Zn    Zn3+2 0.471390 0.381080 0.476380 0.976147
Zn2   Zn    Zn3+2 0.528610 0.618920 0.523620 0.955937
O5    O     O_R   0.489180 0.455170 0.337480 -0.627507
O6    O     O_R   0.532030 0.633270 0.372850 -0.582576
O7    O     O_R   0.292530 0.410940 0.482290 -0.590061
O8    O     O_R   0.335370 0.589040 0.517660 -0.669025
C3    C     C_R   0.516338 0.562205 0.307934 0.873147
C4    C     C_R   0.257809 0.499182 0.500781 0.902433
C5    C     C_3   0.931137 0.399296 0.486298 -0.192746
C6    C     C_3   0.020444 0.424036 0.576495 0.349079
H1    H     H_    0.872890 0.317304 0.474989 0.166587
C7    C     C_3   0.122475 0.498496 0.502333 -0.074691
C8    C     C_3   0.034645 0.476216 0.410568 -0.231860
C9    C     C_3   0.977593 0.576484 0.425438 -0.139163
C10   C     C_3   0.067420 0.598851 0.517428 -0.189196
C11   C     C_3   0.963874 0.522482 0.593568 -0.242026
C12   C     C_3   0.877158 0.500058 0.501368 -0.021634
H2    H     H_    0.067415 0.457650 0.336266 0.157509
H3    H     H_    0.955248 0.639308 0.363447 0.155578
H4    H     H_    0.126008 0.680399 0.529682 0.166497
H5    H     H_    0.931094 0.540157 0.668241 0.158035
C13   C     C_R   0.452428 0.719810 0.051506 -0.252620
H6    H     H_    0.357072 0.722916 0.862077 0.157317
H7    H     H_    0.436260 0.799273 0.017143 0.185530
C14   C     C_R   0.514423 0.600319 0.196669 -0.174238
C15   C     C_R   0.458341 0.287951 0.845594 0.004200
C16   C     C_R   0.455919 0.258837 0.952056 -0.156438
C17   C     C_R   0.454521 0.336883 0.016001 -0.202800
C18   C     C_R   0.447040 0.445280 0.974596 0.093137
C19   C     C_R   0.425233 0.469211 0.868559 0.078190
C20   C     C_R   0.461158 0.531133 0.034888 0.087133
C21   C     C_R   0.432193 0.633048 0.993402 0.103889
C22   C     C_R   0.385859 0.647432 0.893649 -0.226773
C23   C     C_R   0.380978 0.565931 0.832133 -0.155487
C24   C     C_R   0.508641 0.519309 0.134118 -0.294571
C25   C     C_R   0.496761 0.705642 0.152748 0.307594
C26   C     C_R   0.449535 0.396267 0.802247 -0.133060
H8    H     H_    0.540657 0.445759 0.165434 0.178057
H9    H     H_    0.454819 0.309040 0.097716 0.147977
H10   H     H_    0.460057 0.175930 0.986131 0.168402
H11   H     H_    0.341820 0.579477 0.755986 0.180378
C27   C     C_R   0.307328 0.086148 0.356086 -0.276008
H12   H     H_    0.285780 0.252999 0.340708 0.136255
H13   H     H_    0.272217 0.878381 0.328595 0.169688
H14   H     H_    0.231704 0.063066 0.301717 0.157828
N1    N     N_R   0.432930 0.222190 0.444670 -0.106260
C28   C     C_R   0.657427 0.799288 0.627206 -0.026130
C29   C     C_R   0.693266 0.904589 0.653161 -0.051647
C30   C     C_R   0.634580 0.986741 0.603925 -0.204246
C31   C     C_R   0.538943 0.963134 0.528967 -0.005603
C32   C     C_R   0.506629 0.854708 0.505313 0.228896
C33   C     C_R   0.473846 0.042124 0.477066 -0.000274
C34   C     C_R   0.375031 0.010203 0.405856 0.175087
C35   C     C_R   0.345775 0.903194 0.384058 -0.204728
C36   C     C_R   0.413387 0.827504 0.431079 -0.127449
C37   C     C_R   0.501993 0.152134 0.493019 -0.016562
C38   C     C_R   0.337690 0.192924 0.377461 0.022710
N2    N     N_R   0.566370 0.776980 0.554790 -0.133429
H15   H     H_    0.577262 0.185045 0.543068 0.136591
H16   H     H_    0.702326 0.734453 0.664175 0.145094
H17   H     H_    0.664990 0.067302 0.626147 0.164876
H18   H     H_    0.391978 0.748584 0.406575 0.207320
N3    N     N_R   0.042038 0.340243 0.659863 0.200597
O9    O     O_R   0.943542 0.280458 0.715453 -0.391294
O10   O     O_R   0.158927 0.326473 0.681141 -0.405113
C39   C     C_1   0.468501 0.203324 0.784918 0.257757
N4    N     N_1   0.475826 0.134248 0.737560 -0.214227
C40   C     C_1   0.789993 0.928334 0.729927 0.199292
N5    N     N_1   0.867706 0.947457 0.791610 -0.144576
N6    N     N_R   0.529573 0.799445 0.206011 0.201623
O11   O     O_R   0.638288 0.816871 0.255449 -0.371857
O12   O     O_R   0.470540 0.880337 0.183470 -0.426428

loop_
_geom_bond_atom_site_label_1
_geom_bond_atom_site_label_2
_geom_bond_distance
_ccdc_geom_bond_type
C33   C37   1.399582 A    
C23   H11   1.081591 S    
C30   C31   1.415328 A    
H12   C38   1.081910 S    
C14   C25   1.417635 A    
C7    C10   1.537969 S    
C4    C7    1.421646 S    
C8    C9    1.547988 S    
C10   H4    1.110708 S    
C15   C39   1.442630 S    
C28   C29   1.389751 A    
C5    C8    1.548673 S    
C1    C26   1.479281 S    
C27   C34   1.397219 A    
C18   C20   1.412821 A    
N6    O12   1.301447 A    
Zn1   N1    2.057744 S    
C7    C8    1.531597 S    
C21   C22   1.393003 A    
O7    C4    1.297880 A    
C9    H3    1.110350 S    
C5    C6    1.529216 S    
C31   C32   1.413876 A    
Zn1   O5    1.914904 S    
C17   C18   1.413006 A    
N3    O10   1.299953 A    
O5    C3    1.317003 A    
C29   C40   1.440221 S    
C27   H14   1.083914 S    
C18   C19   1.407774 A    
C5    C12   1.536379 S    
C34   C35   1.387724 A    
C10   C11   1.549305 S    
C16   H10   1.084676 S    
O3    Zn1   1.987877 S    
C40   N5    1.157272 T    
C19   C23   1.414706 A    
N6    O11   1.301426 A    
O3    C2    1.290991 A    
C22   C23   1.388204 A    
C27   C38   1.383180 A    
C33   C34   1.422561 A    
N1    C38   1.354202 A    
C35   C36   1.381550 A    
O1    C1    1.307943 A    
Zn1   O7    2.000677 S    
C20   C21   1.414393 A    
C9    C12   1.529416 S    
C13   C21   1.400339 A    
Zn2   O8    1.987879 S    
H6    C22   1.084035 S    
C16   C17   1.385179 A    
C17   H9    1.079104 S    
C28   H16   1.082759 S    
Zn2   N2    2.045412 S    
Zn2   O6    1.960907 S    
O8    C4    1.290870 A    
C11   H5    1.110414 S    
C24   H8    1.078104 S    
C32   N2    1.359405 A    
C5    H1    1.110747 S    
C29   C30   1.393970 A    
C6    C11   1.531553 S    
C14   C24   1.391401 A    
C37   H15   1.075449 S    
O1    Zn1   1.960905 S    
C3    C14   1.470876 S    
O2    Zn2   1.914903 S    
C6    N3    1.458060 S    
C39   N4    1.156499 T    
O6    C3    1.307860 A    
O4    Zn2   2.000674 S    
C30   H17   1.077831 S    
C32   C36   1.400112 A    
C25   N6    1.436720 S    
H13   C35   1.084446 S    
C15   C16   1.391236 A    
C13   H7    1.084175 S    
O2    C1    1.317254 A    
N1    C37   1.346792 A    
C36   H18   1.066708 S    
O4    C2    1.297774 A    
C2    C12   1.420995 S    
C13   C25   1.403290 A    
C28   N2    1.357127 A    
C15   C26   1.422177 A    
C31   C33   1.418010 A    
C8    H2    1.110422 S    
C20   C24   1.389280 A    
N3    O9    1.300469 A    
C9    C10   1.545902 S    
C6    C7    1.516543 S    
C11   C12   1.530074 S    
C19   C26   1.416663 A    
