data_mof_unit_49874.cif
_audit_creation_date              2013-03-05T16:36:15-0500
_audit_creation_method            fapswitch 2.2
_symmetry_space_group_name_H-M    P1
_symmetry_Int_Tables_number       1
_space_group_crystal_system       triclinic
_cell_length_a                    27.81401
_cell_length_b                    9.12559
_cell_length_c                    7.772248
_cell_angle_alpha                 89.997329
_cell_angle_beta                  90.243323
_cell_angle_gamma                 90.243519
_cell_volume                      1972.71056181

loop_
_atom_site_label
_atom_site_type_symbol
_atom_site_description
_atom_site_fract_x
_atom_site_fract_y
_atom_site_fract_z
_atom_type_partial_charge
O1    O     O_R   0.500000 0.288390 0.642760 -0.578873
O2    O     O_R   0.500000 0.711610 0.357240 -0.579016
O3    O     O_R   0.500000 0.711610 0.642760 -0.584147
O4    O     O_R   0.500000 0.288390 0.357240 -0.584156
C1    C     C_R   0.499988 0.219919 0.500003 0.824673
C2    C     C_R   0.500013 0.780081 0.499997 0.825138
O5    O     O_R   0.430260 0.500000 0.642770 -0.530351
O6    O     O_R   0.569740 0.500000 0.357230 -0.530585
O7    O     O_R   0.569740 0.500000 0.642770 -0.530981
O8    O     O_R   0.430260 0.500000 0.357230 -0.530891
C3    C     C_R   0.407025 0.499493 0.499588 0.948422
C4    C     C_R   0.592960 0.500121 0.500434 0.950866
Cu1   Cu    Cu3+1 0.500000 0.500000 0.669080 1.125036
Cu2   Cu    Cu3+1 0.500000 0.500000 0.330920 1.124923
C5    C     C_R   0.177434 0.357913 0.519541 0.762551
C6    C     C_R   0.823531 0.617169 0.558613 0.766058
C7    C     C_R   0.176873 0.615279 0.464225 0.716352
C8    C     C_R   0.821593 0.369195 0.460701 0.725819
O9    O     O_2   0.203215 0.234410 0.541891 -0.396592
O10   O     O_2   0.798861 0.738302 0.603069 -0.409330
O11   O     O_2   0.201943 0.741679 0.451339 -0.446690
O12   O     O_2   0.795053 0.255730 0.401648 -0.452133
N1    N     N_R   0.201048 0.487441 0.492297 -0.413944
N2    N     N_R   0.798775 0.495004 0.508029 -0.413184
C9    C     C_R   0.278010 0.507884 0.340659 0.577199
C10   C     C_R   0.721754 0.475180 0.658282 0.575897
C11   C     C_R   0.277680 0.475610 0.650080 0.582063
C12   C     C_R   0.722458 0.522729 0.351545 0.591193
C13   C     C_R   0.328146 0.511671 0.341945 0.494343
C14   C     C_R   0.671620 0.475895 0.657017 0.495220
C15   C     C_R   0.327851 0.479105 0.652534 0.492941
C16   C     C_R   0.672268 0.523623 0.349037 0.491413
C17   C     C_R   0.252650 0.489776 0.494359 -0.145285
C18   C     C_R   0.747241 0.498331 0.505903 -0.145596
C19   C     C_R   0.101215 0.484287 0.491658 -0.178866
C20   C     C_R   0.898519 0.487386 0.514859 -0.178846
C21   C     C_R   0.126733 0.353405 0.523708 -0.138357
C22   C     C_R   0.874212 0.617503 0.560809 -0.129240
C23   C     C_R   0.126278 0.615779 0.455300 -0.205464
C24   C     C_R   0.872191 0.359485 0.470902 -0.194872
C25   C     C_R   0.101090 0.223795 0.564424 0.366266
C26   C     C_R   0.901078 0.742669 0.610450 0.362997
C27   C     C_R   0.099702 0.743409 0.414001 0.303420
C28   C     C_R   0.897583 0.229163 0.431221 0.308094
C29   C     C_R   0.353791 0.497131 0.498172 -0.528004
C30   C     C_R   0.646167 0.499940 0.502027 -0.526103
C31   C     C_R   0.974169 0.352484 0.488092 -0.078864
C32   C     C_R   0.025249 0.618156 0.492143 -0.077604
C33   C     C_R   0.975417 0.617777 0.529641 -0.038843
C34   C     C_R   0.024870 0.351064 0.511644 -0.041725
C35   C     C_R   0.949351 0.485681 0.511517 -0.073986
C36   C     C_R   0.050441 0.484305 0.497628 -0.076854
C37   C     C_R   0.947731 0.227843 0.436389 0.705144
C38   C     C_R   0.050084 0.745219 0.439295 0.708747
C39   C     C_R   0.951422 0.742294 0.592309 0.616746
C40   C     C_R   0.050418 0.223841 0.558019 0.614078
C41   C     C_1   0.499997 0.065294 0.500004 -0.114233
C42   C     C_1   0.500005 0.934706 0.499996 -0.114325
N3    N     N_1   0.500000 0.500000 0.076820 0.008899
N4    N     N_1   0.500000 0.500000 0.923180 0.009001
F1    F     F_    0.350777 0.463783 0.805995 -0.514044
F2    F     F_    0.649475 0.548912 0.197143 -0.517970
F3    F     F_    0.351312 0.530424 0.190075 -0.514767
F4    F     F_    0.648249 0.451010 0.807324 -0.518545
F5    F     F_    0.253229 0.459201 0.799642 -0.511395
F6    F     F_    0.747156 0.545758 0.203681 -0.507683
F7    F     F_    0.253893 0.521475 0.189357 -0.516025
F8    F     F_    0.745753 0.450555 0.807877 -0.512456
O13   O     O_3   0.126024 0.100191 0.615496 -0.589078
H1    H     H_    0.103325 0.019494 0.641815 0.396945
O14   O     O_3   0.877690 0.862642 0.678906 -0.633716
H2    H     H_    0.901102 0.941443 0.706019 0.385692
O15   O     O_3   0.120374 0.866553 0.342542 -0.600665
H3    H     H_    0.144141 0.833398 0.256445 0.378310
O16   O     O_3   0.874869 0.100585 0.385646 -0.592110
H4    H     H_    0.851238 0.078832 0.477172 0.385889
F9    F     F_    0.970194 0.106968 0.375516 -0.507718
F10   F     F_    0.025706 0.865913 0.387525 -0.506759
F11   F     F_    0.977236 0.857238 0.654583 -0.559388
F12   F     F_    0.026282 0.105648 0.619362 -0.550075

loop_
_geom_bond_atom_site_label_1
_geom_bond_atom_site_label_2
_geom_bond_distance
_ccdc_geom_bond_type
C27   O15   1.378064 S    
C13   F3    1.357668 S    
C15   F1    1.357598 S    
C14   F4    1.357949 S    
O15   H3    0.990856 S    
C2    C42   1.411044 S    
C37   F9    1.356214 S    
C9    F7    1.357266 S    
O3    C2    1.273398 A    
Cu1   N4    1.974927 S    
C11   C17   1.399932 A    
C32   C38   1.409219 A    
Cu2   N3    1.974927 S    
C7    N1    1.366041 A    
O1    C1    1.273409 A    
C19   C21   1.413504 A    
C22   C26   1.414999 A    
C32   C36   1.411300 A    
C7    C23   1.408685 A    
O7    Cu1   1.951358 S    
C12   F6    1.357298 S    
C5    C21   1.411127 A    
C20   C24   1.416310 A    
C8    C24   1.412379 A    
C5    O9    1.349222 S    
C28   C37   1.395336 A    
C10   C18   1.398441 A    
N1    C17   1.435361 S    
C34   C36   1.410475 A    
O3    Cu1   1.941862 S    
C6    O10   1.349312 S    
C31   C37   1.409373 A    
C5    N1    1.366737 A    
C12   C18   1.399384 A    
N3    N4    1.194129 T    
C6    N2    1.364826 A    
Cu1   Cu2   2.628264 S    
O4    Cu2   1.941863 S    
O2    C2    1.273410 A    
O5    C3    1.284513 A    
C31   C34   1.421372 A    
C9    C13   1.394758 A    
C11   C15   1.395724 A    
C12   C16   1.396097 A    
C4    C30   1.479899 S    
O8    Cu2   1.951361 S    
C31   C35   1.412546 A    
C33   C35   1.410786 A    
C33   C39   1.408219 A    
C34   C40   1.409799 A    
C13   C29   1.412163 A    
C28   O16   1.375940 S    
C19   C23   1.414276 A    
O16   H4    0.990106 S    
C25   C40   1.410064 A    
C11   F5    1.357207 S    
C26   C39   1.407969 A    
C39   F11   1.356736 S    
C27   C38   1.395001 A    
C24   C28   1.420314 A    
O6    C4    1.284450 A    
C20   C35   1.414348 A    
C32   C33   1.417534 A    
C10   C14   1.394472 A    
C8    N2    1.365432 A    
C3    C29   1.480710 S    
O1    Cu1   1.941882 S    
C25   O13   1.383871 S    
O6    Cu2   1.949631 S    
C8    O12   1.348476 S    
C16   C30   1.411966 A    
C14   C30   1.412264 A    
O4    C1    1.273398 A    
C23   C27   1.418180 A    
C40   F12   1.355666 S    
C1    C41   1.411042 S    
C10   F8    1.357408 S    
C20   C22   1.415431 A    
C16   F2    1.357843 S    
O14   H2    0.990175 S    
C41   C42   1.191697 T    
C26   O14   1.383446 S    
C21   C25   1.415099 A    
O13   H1    0.989893 S    
O2    Cu2   1.941881 S    
O7    C4    1.283363 A    
N2    C18   1.433845 S    
O8    C3    1.283718 A    
O5    Cu1   1.949634 S    
C15   C29   1.411848 A    
C9    C17   1.399294 A    
C19   C36   1.413205 A    
C6    C22   1.409663 A    
C38   F10   1.355997 S    
C7    O11   1.349250 S    
