data_mof_unit_49500.cif
_audit_creation_date              2013-03-05T16:07:36-0500
_audit_creation_method            fapswitch 2.2
_symmetry_space_group_name_H-M    P1
_symmetry_Int_Tables_number       1
_space_group_crystal_system       triclinic
_cell_length_a                    21.636213
_cell_length_b                    7.061522
_cell_length_c                    14.846861
_cell_angle_alpha                 90.102242
_cell_angle_beta                  106.051348
_cell_angle_gamma                 90.068099
_cell_volume                      2179.9307344

loop_
_atom_site_label
_atom_site_type_symbol
_atom_site_description
_atom_site_fract_x
_atom_site_fract_y
_atom_site_fract_z
_atom_type_partial_charge
O1    O     O_R   0.585850 0.505770 0.002130 -0.609345
O2    O     O_R   0.414150 0.005770 0.997870 -0.610009
O3    O     O_R   0.467530 0.173560 0.861970 -0.580655
O4    O     O_R   0.532470 0.673560 0.138030 -0.579582
C1    C     C_R   0.455457 0.344299 0.825356 0.917397
C2    C     C_R   0.544457 0.844844 0.174674 0.918367
O5    O     O_R   0.588690 0.175900 0.993250 -0.566675
O6    O     O_R   0.411310 0.675900 0.006750 -0.566491
O7    O     O_R   0.536170 0.007950 0.130090 -0.592189
O8    O     O_R   0.463830 0.507950 0.869910 -0.591731
C3    C     C_R   0.614947 0.344667 0.997077 0.946895
C4    C     C_R   0.385002 0.844467 0.002648 0.948976
O9    O     O_3   0.482630 0.339970 0.044740 -0.252548
O10   O     O_3   0.517370 0.839970 0.955260 -0.251784
V1    V     V_3+5 0.503220 0.064200 0.991700 1.230218
V2    V     V_3+5 0.496780 0.564200 0.008300 1.230821
C5    C     C_R   0.293600 0.997629 0.050678 0.104420
C6    C     C_R   0.706395 0.497359 0.948522 0.099344
C7    C     C_R   0.317101 0.851196 0.005640 -0.245393
C8    C     C_R   0.682805 0.351532 0.993820 -0.241820
C9    C     C_R   0.273705 0.703637 0.966940 -0.088991
C10   C     C_R   0.726029 0.204145 0.032493 -0.088884
H1    H     H_    0.289636 0.583453 0.934005 0.123018
H2    H     H_    0.709971 0.084348 0.065455 0.121702
C11   C     C_R   0.208098 0.715836 0.964745 -0.117551
C12   C     C_R   0.791625 0.215987 0.034670 -0.130963
H3    H     H_    0.175737 0.603755 0.930962 0.164097
H4    H     H_    0.823844 0.104083 0.068447 0.155023
C13   C     C_R   0.183920 0.876496 0.000587 -0.200794
C14   C     C_R   0.816003 0.376264 0.998980 -0.189814
C15   C     C_R   0.229030 0.010659 0.047467 0.139291
C16   C     C_R   0.771089 0.510350 0.952156 0.141227
C17   C     C_3   0.229533 0.221757 0.045582 -0.605310
C18   C     C_3   0.770989 0.721413 0.954728 -0.600531
C19   C     C_3   0.301025 0.207960 0.050893 0.213478
C20   C     C_3   0.699382 0.707834 0.948670 0.209999
H5    H     H_    0.219390 0.284771 0.108701 0.211671
H6    H     H_    0.781630 0.784666 0.892099 0.212897
H7    H     H_    0.199871 0.278188 0.977572 0.197920
H8    H     H_    0.800473 0.777384 0.023120 0.200491
H9    H     H_    0.313740 0.263872 0.988336 0.064667
H10   H     H_    0.686443 0.763781 0.011120 0.067258
C21   C     C_R   0.928036 0.882926 0.723374 -0.328384
C22   C     C_R   0.071647 0.385861 0.276771 -0.327070
C23   C     C_R   0.572943 0.855807 0.275861 -0.094815
C24   C     C_R   0.426764 0.352254 0.724222 -0.093415
C25   C     C_R   0.940864 0.852755 0.567887 -0.213837
C26   C     C_R   0.058802 0.403836 0.432713 -0.215256
C27   C     C_R   0.967647 0.859768 0.664477 0.809988
C28   C     C_R   0.032123 0.405782 0.336043 0.808395
C29   C     C_R   0.861490 0.894955 0.685912 -0.294895
C30   C     C_R   0.138091 0.369504 0.314101 -0.296453
C31   C     C_R   0.832599 0.887073 0.587873 0.115769
C32   C     C_R   0.167011 0.375083 0.412160 0.115175
C33   C     C_R   0.873829 0.870045 0.528187 -0.112071
C34   C     C_R   0.125785 0.384373 0.472093 -0.112012
C35   C     C_R   0.764332 0.893102 0.547881 0.063778
C36   C     C_R   0.235294 0.372935 0.451929 0.063246
C37   C     C_R   0.738044 0.876794 0.448706 0.010859
C38   C     C_R   0.261568 0.370285 0.551418 0.011385
C39   C     C_R   0.780807 0.866806 0.392240 -0.307255
C40   C     C_R   0.218764 0.372802 0.608001 -0.306852
C41   C     C_R   0.847397 0.866258 0.430213 0.384202
C42   C     C_R   0.152200 0.379012 0.570035 0.386682
C43   C     C_R   0.721377 0.914858 0.603833 -0.141113
C44   C     C_R   0.278254 0.378050 0.395349 -0.145337
C45   C     C_R   0.655302 0.917317 0.564763 -0.178644
C46   C     C_R   0.344332 0.374329 0.434149 -0.181264
C47   C     C_R   0.628910 0.896655 0.468622 0.134956
C48   C     C_R   0.370690 0.365973 0.530687 0.133200
C49   C     C_R   0.669637 0.874947 0.408945 0.148518
C50   C     C_R   0.329984 0.365107 0.591104 0.149672
C51   C     C_R   0.561721 0.898597 0.431657 -0.168401
C52   C     C_R   0.437870 0.359451 0.567234 -0.169970
C53   C     C_R   0.533931 0.879481 0.335671 -0.129330
C54   C     C_R   0.465723 0.351915 0.663542 -0.128536
C55   C     C_R   0.639875 0.851987 0.311760 -0.237279
C56   C     C_R   0.359820 0.359052 0.688874 -0.236230
H11   H     H_    0.666833 0.830823 0.261510 0.104537
H12   H     H_    0.332963 0.358266 0.740043 0.102602
H13   H     H_    0.482070 0.883949 0.307951 0.140671
H14   H     H_    0.517603 0.346443 0.690800 0.137295
H15   H     H_    0.624440 0.935223 0.610601 0.178864
H16   H     H_    0.375283 0.378805 0.387908 0.188349
H17   H     H_    0.973210 0.830445 0.524887 0.199509
H18   H     H_    0.026460 0.421727 0.476073 0.198930
H19   H     H_    0.834022 0.908309 0.735958 0.129766
H20   H     H_    0.165525 0.353322 0.264122 0.130850
H21   H     H_    0.764088 0.865829 0.316966 0.164527
H22   H     H_    0.235350 0.368095 0.683219 0.164651
H23   H     H_    0.736894 0.932454 0.678673 0.157486
H24   H     H_    0.262675 0.388358 0.320184 0.160783
H25   H     H_    0.530624 0.916328 0.477132 0.132716
H26   H     H_    0.468926 0.359822 0.521093 0.132615
O11   O     O_R   0.036080 0.231270 0.130120 -0.594125
O12   O     O_R   0.963920 0.731270 0.869880 -0.592921
O13   O     O_R   0.911300 0.558970 0.006750 -0.587139
O14   O     O_R   0.088700 0.058970 0.993250 -0.591151
C57   C     C_R   0.884923 0.389755 0.002105 0.978102
C58   C     C_R   0.115056 0.889884 0.997776 0.979929
O15   O     O_R   0.032450 0.561140 0.138040 -0.584293
O16   O     O_R   0.967550 0.061140 0.861960 -0.586509
O17   O     O_R   0.085870 0.728910 0.002130 -0.604310
O18   O     O_R   0.914130 0.228910 0.997870 -0.607504
C59   C     C_R   0.044515 0.392728 0.175112 1.037651
C60   C     C_R   0.955439 0.892204 0.824925 1.038920
O19   O     O_3   0.017320 0.394650 0.955270 -0.276908
O20   O     O_3   0.982680 0.894650 0.044730 -0.277326
V3    V     V_3+5 0.996780 0.670490 0.008300 1.228965
V4    V     V_3+5 0.003220 0.170490 0.991700 1.222820
F1    F     F_    0.032310 0.843509 0.700577 -0.658350
F2    F     F_    0.967584 0.426123 0.300234 -0.656336
N1    N     N_R   0.342491 0.277886 0.140091 0.249593
O21   O     O_R   0.380950 0.419800 0.140976 -0.385869
O22   O     O_R   0.340792 0.201520 0.219126 -0.441599
N2    N     N_R   0.658348 0.778073 0.859393 0.249084
O23   O     O_R   0.618182 0.915067 0.858789 -0.386994
O24   O     O_R   0.662330 0.707713 0.780057 -0.432441
N3    N     N_R   0.887436 0.866123 0.367311 0.239120
O25   O     O_R   0.931525 0.995492 0.375204 -0.366251
O26   O     O_R   0.872174 0.760774 0.292366 -0.354653
N4    N     N_R   0.112124 0.375027 0.632835 0.239830
O27   O     O_R   0.067665 0.246186 0.622886 -0.361608
O28   O     O_R   0.127485 0.476188 0.709182 -0.367394

loop_
_geom_bond_atom_site_label_1
_geom_bond_atom_site_label_2
_geom_bond_distance
_ccdc_geom_bond_type
C44   C46   1.386073 A    
C45   H15   1.084526 S    
O14   V4    2.005291 S    
C2    C23   1.459538 S    
C51   C53   1.391374 A    
C52   H26   1.084122 S    
C31   C33   1.425658 A    
C20   H10   1.112028 S    
O1    C3    1.312898 A    
C51   H25   1.084118 S    
O2    C4    1.312817 A    
C2    O7    1.316996 A    
C24   C54   1.393602 A    
C25   C27   1.391011 A    
C22   C59   1.461287 S    
O20   V3    1.726429 S    
O5    C3    1.313983 A    
C17   H7    1.110818 S    
C52   C54   1.390815 A    
C18   H8    1.110851 S    
C25   H17   1.081281 S    
C10   H2    1.081964 S    
C7    C9    1.412319 A    
C26   C28   1.391139 A    
C56   H12   1.076532 S    
C35   C37   1.428627 A    
C38   C50   1.434424 A    
C36   C38   1.428680 A    
O13   V3    2.003531 S    
N2    O23   1.299563 A    
C38   C40   1.412078 A    
C47   C49   1.420062 A    
C50   C56   1.416948 A    
O11   C59   1.307208 A    
C17   C19   1.530123 S    
C36   C44   1.415179 A    
C30   C32   1.417256 A    
C43   C45   1.386396 A    
C33   C41   1.408349 A    
C48   C52   1.404765 A    
C40   C42   1.394679 A    
C34   C42   1.408264 A    
C47   C51   1.404825 A    
C14   C16   1.398254 A    
C18   C20   1.529768 S    
C26   C34   1.411843 A    
C27   F1    1.357846 S    
C22   C30   1.395441 A    
N3    O26   1.301467 A    
C57   O18   1.310250 A    
O6    V2    2.005593 S    
C11   C13   1.413198 A    
O19   V3    2.191251 S    
C28   F2    1.357696 S    
O13   C57   1.317039 A    
C39   H21   1.075307 S    
C55   H11   1.076832 S    
O15   C59   1.307293 A    
C32   C34   1.424976 A    
C3    C8    1.483027 S    
C37   C39   1.411631 A    
O12   C60   1.306189 A    
C46   H16   1.083993 S    
C30   H20   1.076751 S    
O4    C2    1.321013 A    
C54   H14   1.083603 S    
C24   C56   1.398413 A    
C31   C35   1.432233 A    
C53   H13   1.083614 S    
C44   H24   1.075465 S    
C19   N1    1.463595 S    
C14   C57   1.481964 S    
C58   O17   1.310037 A    
C17   H5    1.112122 S    
C29   C31   1.417388 A    
C21   C60   1.460905 S    
C16   C18   1.490862 S    
O4    V2    2.018228 S    
C41   N3    1.438750 S    
O6    C4    1.314273 A    
C15   C17   1.491071 S    
O1    V2    1.997969 S    
O2    V1    1.997090 S    
O12   V3    2.027071 S    
C8    C10   1.412443 A    
C12   C14   1.412526 A    
O14   C58   1.317595 A    
C9    H1    1.081942 S    
C5    C15   1.387806 A    
O19   V4    1.727533 S    
C26   H18   1.081240 S    
O16   V4    2.018276 S    
C6    C16   1.388691 A    
C29   H19   1.076229 S    
C20   N2    1.464156 S    
C49   C55   1.417041 A    
N4    O28   1.301476 A    
O3    V1    2.021557 S    
C25   C33   1.412047 A    
N1    O21   1.299533 A    
C32   C36   1.431504 A    
C22   C28   1.393361 A    
C43   H23   1.075123 S    
C9    C11   1.413551 A    
C13   C58   1.482098 S    
C18   H6    1.112091 S    
C39   C41   1.394461 A    
C21   C27   1.392888 A    
C35   C43   1.415713 A    
O3    C1    1.319831 A    
O11   V4    2.025159 S    
C48   C50   1.420283 A    
N3    O25   1.301533 A    
O20   V4    2.192810 S    
C11   H3    1.082266 S    
C1    C24   1.458771 S    
C12   H4    1.082242 S    
O17   V3    1.997499 S    
C23   C53   1.393984 A    
O7    V1    2.020197 S    
C1    O8    1.317712 A    
C13   C15   1.397991 A    
O8    V2    2.018423 S    
O18   V4    1.998378 S    
C21   C29   1.395428 A    
C6    C20   1.494240 S    
C42   N4    1.438439 S    
C40   H22   1.074970 S    
C4    C7    1.482841 S    
O5    V1    2.003831 S    
C5    C7    1.400604 A    
N2    O24   1.302253 A    
O16   C60   1.308186 A    
C6    C8    1.401516 A    
C19   H9    1.111990 S    
C46   C48   1.389743 A    
C10   C12   1.413026 A    
O9    V2    1.728323 S    
O10   V1    1.727221 S    
C23   C55   1.398311 A    
C5    C19   1.493634 S    
C45   C47   1.390372 A    
N4    O27   1.301436 A    
O15   V3    2.021604 S    
C37   C49   1.433882 A    
N1    O22   1.301973 A    
