data_mof_unit_46868.cif
_audit_creation_date              2012-10-26T19:04:42-0400
_audit_creation_method            fapswitch 2.2
_symmetry_space_group_name_H-M    P1
_symmetry_Int_Tables_number       1
_space_group_crystal_system       triclinic
_cell_length_a                    9.604057
_cell_length_b                    10.849829
_cell_length_c                    13.502218
_cell_angle_alpha                 94.343535
_cell_angle_beta                  72.400309
_cell_angle_gamma                 89.319397
_cell_volume                      1336.35911234

loop_
_atom_site_label
_atom_site_type_symbol
_atom_type_description
_atom_site_fract_x
_atom_site_fract_y
_atom_site_fract_z
_atom_type_partial_charge
C1    C     C_R   0.498964 0.737940 0.497333 0.543940
C2    C     C_R   0.375084 0.498449 0.814187 -0.012154
C3    C     C_R   0.227954 0.892128 0.501569 -0.115016
C4    C     C_R   0.421833 0.495639 0.699567 0.523378
C5    C     C_R   0.094876 0.958950 0.537675 -0.140074
C6    C     C_R   0.088480 0.077523 0.585419 -0.123903
C7    C     C_R   0.217051 0.133465 0.588078 -0.091107
C8    C     C_R   0.354612 0.070667 0.542909 0.023368
C9    C     C_R   0.358312 0.942798 0.513801 0.021354
C10   C     C_R   0.492104 0.873296 0.498064 -0.009456
C11   C     C_R   0.620201 0.935405 0.495238 -0.158513
C12   C     C_R   0.437797 0.504718 0.977751 0.040647
C13   C     C_R   0.619481 0.062939 0.504370 -0.179985
C14   C     C_R   0.488668 0.131694 0.523918 -0.015630
C15   C     C_R   0.921361 0.302268 0.374912 0.107518
C16   C     C_R   0.495839 0.264151 0.510251 0.530800
C17   C     C_R   0.020615 0.201465 0.336976 -0.141742
C18   C     C_R   0.164268 0.211153 0.333719 0.061326
C19   C     C_R   0.205680 0.318894 0.375907 -0.039790
C20   C     C_R   0.103498 0.409153 0.439179 0.075027
C21   C     C_R   0.953824 0.405967 0.438860 0.130696
C22   C     C_R   0.898302 0.585722 0.560477 0.359549
C23   C     C_R   0.473515 0.467549 0.869601 0.021198
C24   C     C_R   0.048326 0.585738 0.558562 -0.026214
C25   C     C_R   0.578624 0.503112 0.300129 0.560986
C26   C     C_R   0.801802 0.450414 0.016088 -0.124577
C27   C     C_R   0.624118 0.501120 0.185383 0.026393
C28   C     C_R   0.237012 0.551978 0.868760 -0.140227
C29   C     C_R   0.200036 0.584049 0.974979 -0.157912
C30   C     C_R   0.299189 0.562979 0.029028 -0.122741
C31   C     C_3   0.808976 0.703485 0.719220 -0.030221
C32   C     C_3   0.667655 0.767867 0.788316 -0.345649
C33   C     C_R   0.545350 0.488267 0.029061 0.023368
C34   C     C_R   0.689050 0.447075 0.970207 0.025906
C35   C     C_R   0.717659 0.400479 0.866918 -0.153353
C36   C     C_R   0.608452 0.403458 0.819442 -0.120536
C37   C     C_R   0.514175 0.509015 0.137286 -0.163179
C38   C     C_R   0.771236 0.483478 0.123010 0.081077
Cu1   Cu    Cu3+1 0.359340 0.500010 0.500010 0.898010
Cu2   Cu    Cu3+1 0.640660 0.499990 0.499990 1.020291
H1    H     H_    0.225548 0.804239 0.459659 0.151723
H2    H     H_    0.913453 0.427479 0.968680 0.105669
H3    H     H_    0.403008 0.525636 0.186157 0.128382
H4    H     H_    0.160233 0.576391 0.828260 0.124180
H5    H     H_    0.265904 0.597672 0.109942 0.103702
H6    H     H_    0.095911 0.631030 0.014811 0.112711
H7    H     H_    0.632989 0.356480 0.742414 0.143608
H8    H     H_    0.723068 0.885409 0.483310 0.154032
H9    H     H_    0.903835 0.592815 0.178039 0.226416
H10   H     H_    0.985344 0.457018 0.117517 0.223597
H11   H     H_    0.899009 0.767644 0.717097 0.113937
H12   H     H_    0.996248 0.917923 0.529541 0.123139
H13   H     H_    0.827048 0.617753 0.754957 0.125629
H14   H     H_    0.573903 0.708050 0.791226 0.176577
H15   H     H_    0.674267 0.787546 0.868656 0.099451
H16   H     H_    0.649234 0.856332 0.756991 0.152863
H17   H     H_    0.755020 0.216976 0.338267 0.204496
H18   H     H_    0.853512 0.301329 0.248282 0.237812
H19   H     H_    0.224253 0.042190 0.251167 0.228130
H20   H     H_    0.318102 0.083263 0.333887 0.242413
H21   H     H_    0.984462 0.127802 0.617306 0.107247
H22   H     H_    0.207110 0.225460 0.626936 0.143448
H23   H     H_    0.722461 0.107545 0.494808 0.132641
H24   H     H_    0.989998 0.121792 0.295716 0.105061
H25   H     H_    0.320381 0.326402 0.356492 0.210250
H26   H     H_    0.824138 0.359638 0.823135 0.100453
H27   H     H_    0.086098 0.656486 0.603925 0.110600
N1    N     N_R   0.852480 0.498790 0.499000 -0.215117
N2    N     N_R   0.148360 0.498710 0.498970 -0.278766
N3    N     N_3   0.888255 0.498085 0.167960 -0.618436
N4    N     N_3   0.806230 0.301741 0.328806 -0.511976
N5    N     N_3   0.272790 0.117042 0.279550 -0.633567
O1    O     O_R   0.381190 0.680360 0.500010 -0.523186
O2    O     O_R   0.618760 0.680340 0.500000 -0.448956
O3    O     O_R   0.323240 0.499990 0.650990 -0.512574
O4    O     O_R   0.560820 0.499960 0.650980 -0.480682
O5    O     O_R   0.381240 0.319660 0.500000 -0.534147
O6    O     O_R   0.618810 0.319640 0.499990 -0.491647
O7    O     O_R   0.439180 0.500040 0.349020 -0.544840
O8    O     O_R   0.676760 0.500010 0.349010 -0.426973
O9    O     O_3   0.797603 0.677316 0.617862 -0.530151

loop_
_geom_bond_atom_site_label_1
_geom_bond_atom_site_label_2
_ccdc_geom_bond_type
C38   N3    S    
C25   O8    A    
C30   H5    S    
C35   C36   A    
C7    C8    A    
C12   C23   A    
C1    O2    A    
Cu1   O5    S    
C6    H21   S    
C28   C29   A    
C34   C35   A    
C17   H24   S    
C5    C6    A    
H18   N4    S    
C31   H13   S    
H20   N5    S    
C27   C38   A    
C36   H7    S    
C18   C19   A    
C4    O3    A    
C24   H27   S    
C26   C34   A    
C19   C20   A    
C8    C9    A    
Cu2   O8    S    
C5    H12   S    
Cu1   O3    S    
C9    C10   A    
C32   H15   S    
H19   N5    S    
C22   C24   A    
C13   C14   A    
C11   H8    S    
C32   H14   S    
C24   N2    A    
C17   C18   A    
C18   N5    S    
C22   O9    S    
Cu1   Cu2   S    
C26   C38   A    
C35   H26   S    
C28   H4    S    
C33   C37   A    
Cu2   O4    S    
Cu1   O7    S    
C37   H3    S    
C2    C4    S    
C7    H22   S    
C29   C30   A    
C3    C9    A    
C31   C32   S    
C13   H23   S    
C33   C34   A    
Cu1   N2    S    
H17   N4    S    
C22   N1    A    
Cu2   O6    S    
H9    N3    S    
C21   N1    A    
C14   C16   S    
C20   N2    A    
C26   H2    S    
C15   C17   A    
C3    H1    S    
C8    C14   A    
C12   C30   A    
C25   O7    A    
C1    C10   S    
C31   H11   S    
C3    C5    A    
C6    C7    A    
C25   C27   S    
C15   N4    S    
C31   O9    S    
C29   H6    S    
C1    O1    A    
H10   N3    S    
C11   C13   A    
C27   C37   A    
Cu2   O2    S    
C19   H25   S    
C16   O6    A    
Cu1   O1    S    
C4    O4    A    
C10   C11   A    
C15   C21   A    
C20   C21   A    
C23   C36   A    
Cu2   N1    S    
C2    C23   A    
C16   O5    A    
C2    C28   A    
C12   C33   A    
C32   H16   S    
