data_mof_unit_59320.cif
_audit_creation_date              2012-12-11T15:21:31-0500
_audit_creation_method            fapswitch 2.2
_symmetry_space_group_name_H-M    P1
_symmetry_Int_Tables_number       1
_space_group_crystal_system       triclinic
_cell_length_a                    8.256038
_cell_length_b                    12.568437
_cell_length_c                    18.993117
_cell_angle_alpha                 94.141056
_cell_angle_beta                  93.979576
_cell_angle_gamma                 97.726478
_cell_volume                      1941.58895669

loop_
_atom_site_label
_atom_site_type_symbol
_atom_type_description
_atom_site_fract_x
_atom_site_fract_y
_atom_site_fract_z
_atom_type_partial_charge
Ba1   Ba    Ba6+2 0.160910 0.552960 0.466220 1.636682
Ba2   Ba    Ba6+2 0.649260 0.447030 0.533730 1.639880
C1    C     C_3   0.351547 0.820960 0.198777 -0.380784
C2    C     C_3   0.385672 0.788033 0.273356 0.352812
C3    C     C_3   0.557946 0.774298 0.632687 0.269515
C4    C     C_3   0.560034 0.895135 0.644716 -0.331270
C5    C     C_3   0.897967 0.155300 0.696844 0.340903
C6    C     C_3   0.951717 0.065643 0.738688 -0.398679
C7    C     C_3   0.409818 0.205926 0.726535 0.344202
C8    C     C_3   0.454411 0.172020 0.799884 -0.351417
C9    C     C_R   0.079629 0.183310 0.522625 -0.261868
C10   C     C_R   0.731454 0.816432 0.476351 -0.286396
C11   C     C_R   0.703695 0.998005 0.448422 -0.056094
C12   C     C_3   0.872535 0.836208 0.285908 0.542728
C13   C     C_R   0.639160 0.889120 0.446895 0.011698
C14   C     C_R   0.885240 0.850757 0.511658 0.051247
C15   C     C_R   0.949987 0.962870 0.517153 -0.063295
C16   C     C_R   0.858084 0.037657 0.484405 -0.048909
C17   C     C_R   0.924123 0.149464 0.488899 0.064737
C18   C     C_R   0.171143 0.110753 0.552709 0.001047
C19   C     C_R   0.105111 0.002299 0.552436 -0.097949
C20   C     C_R   0.617046 0.537888 0.297098 -0.257750
C21   C     C_R   0.462784 0.481682 0.274976 0.035635
C22   C     C_R   0.408077 0.470272 0.203149 -0.134281
C23   C     C_3   0.795401 0.895929 0.227679 -0.346325
C24   C     C_R   0.510223 0.513084 0.152625 0.001805
C25   C     C_R   0.669303 0.565506 0.175612 -0.140352
C26   C     C_R   0.722748 0.576053 0.247824 0.003715
C27   C     C_R   0.481023 0.586592 0.033865 -0.088005
C28   C     C_R   0.424784 0.575196 0.962399 -0.109640
C29   C     C_R   0.339071 0.477085 0.930654 0.030801
C30   C     C_R   0.308727 0.388328 0.972876 0.208589
C31   C     C_R   0.365142 0.402381 0.045551 -0.077507
C32   C     C_R   0.451819 0.500529 0.076190 0.028822
C33   C     C_R   0.124172 0.424175 0.827744 -0.141495
C34   C     C_3   0.822361 0.318967 0.315306 0.347663
C35   C     C_R   0.077291 0.416128 0.755009 0.019977
C36   C     C_R   0.341534 0.509429 0.732886 0.040316
C37   C     C_R   0.392000 0.514919 0.805120 -0.122192
C38   C     C_R   0.284778 0.470222 0.853461 -0.014442
C39   C     C_R   0.187979 0.455278 0.707894 -0.279310
C40   C     C_3   0.888517 0.290148 0.244628 -0.358918
C41   C     C_3   0.046191 0.681361 0.678983 0.309336
C42   C     C_3   0.078184 0.711260 0.758289 -0.401584
C43   C     C_3   0.404829 0.218725 0.328142 0.246844
C44   C     C_3   0.423396 0.185407 0.250704 -0.420264
H1    H     H_    0.285674 0.724866 0.283780 0.125392
H2    H     H_    0.799232 0.228167 0.212707 0.090932
H3    H     H_    0.908718 0.362821 0.214689 0.087072
H4    H     H_    0.006123 0.257775 0.253092 0.136306
H5    H     H_    0.156189 0.653602 0.658180 0.015826
H6    H     H_    0.940823 0.615934 0.669701 0.066365
H7    H     H_    0.188614 0.772865 0.769003 0.133560
H8    H     H_    0.098236 0.639641 0.786542 0.064925
H9    H     H_    0.971009 0.744291 0.779030 0.121879
H10   H     H_    0.379326 0.144732 0.356161 0.053644
H11   H     H_    0.517766 0.262436 0.354879 0.080304
H12   H     H_    0.229520 0.848372 0.192974 0.148871
H13   H     H_    0.305237 0.142437 0.225171 0.111210
H14   H     H_    0.517997 0.130635 0.247299 0.112817
H15   H     H_    0.461474 0.257003 0.221845 0.082432
H16   H     H_    0.502652 0.754024 0.276006 -0.052693
H17   H     H_    0.353758 0.751184 0.159665 0.082090
H18   H     H_    0.685351 0.757155 0.628739 0.023181
H19   H     H_    0.483359 0.747067 0.582025 0.059566
H20   H     H_    0.624328 0.925236 0.696927 0.120573
H21   H     H_    0.623762 0.936495 0.602667 0.070348
H22   H     H_    0.432252 0.913578 0.643628 0.146291
H23   H     H_    0.445189 0.888006 0.187408 0.102876
H24   H     H_    0.718384 0.953229 0.250960 0.092303
H25   H     H_    0.807864 0.119596 0.652444 0.062234
H26   H     H_    0.008671 0.195547 0.674148 -0.059921
H27   H     H_    0.999189 0.005458 0.702773 0.096295
H28   H     H_    0.050145 0.099826 0.780107 0.110916
H29   H     H_    0.847138 0.025130 0.764874 0.121057
H30   H     H_    0.283540 0.227449 0.724514 -0.059834
H31   H     H_    0.497423 0.277562 0.717732 0.111080
H32   H     H_    0.353160 0.114043 0.816317 0.090807
H33   H     H_    0.477960 0.243917 0.838563 0.077980
H34   H     H_    0.567188 0.132892 0.799887 0.161840
H35   H     H_    0.630831 0.050138 0.421605 0.097934
H36   H     H_    0.177838 0.950022 0.579090 0.106312
H37   H     H_    0.132329 0.267126 0.523925 0.081830
H38   H     H_    0.680219 0.732215 0.473752 0.069573
H39   H     H_    0.513404 0.555222 0.823494 0.079104
H40   H     H_    0.446959 0.644404 0.931790 0.072236
H41   H     H_    0.545156 0.663681 0.056435 0.067187
H42   H     H_    0.286670 0.427919 0.186921 0.076548
H43   H     H_    0.768283 0.790672 0.309851 -0.065789
H44   H     H_    0.346143 0.336331 0.078810 0.055730
H45   H     H_    0.035808 0.395033 0.863908 0.100042
H46   H     H_    0.752063 0.596157 0.137660 0.074565
H47   H     H_    0.150279 0.450193 0.651882 0.061999
H48   H     H_    0.658870 0.546553 0.352764 0.064466
H49   H     H_    0.891137 0.940387 0.198404 0.101458
H50   H     H_    0.717588 0.836612 0.189095 0.073597
H51   H     H_    0.705301 0.348618 0.303304 -0.099381
H52   H     H_    0.904370 0.386259 0.344122 0.104124
O1    O     O_2   0.160820 0.763040 0.533820 -0.464538
O2    O     O_3   0.273926 0.277688 0.334448 -0.626154
O3    O     O_3   0.978486 0.769423 0.255614 -0.611748
O4    O     O_2   0.649470 0.236890 0.466160 -0.474810
O5    O     O_3   0.919320 0.371390 0.464540 -0.494334
O6    O     O_3   0.424350 0.301430 0.591880 -0.481457
O7    O     O_3   0.797160 0.225880 0.352471 -0.657115
O8    O     O_3   0.382770 0.553920 0.582990 -0.474920
O9    O     O_3   0.848220 0.355290 0.626830 -0.479534
O10   O     O_2   0.738784 0.418519 0.750676 -0.499454
O11   O     O_3   0.822522 0.224682 0.741722 -0.599607
O12   O     O_3   0.890970 0.628600 0.535400 -0.491131
O13   O     O_3   0.427530 0.446070 0.416950 -0.468188
O14   O     O_2   0.637430 0.550200 0.669460 -0.462367
O15   O     O_3   0.491093 0.725170 0.690229 -0.642538
O16   O     O_2   0.506426 0.112047 0.547193 -0.481755
O17   O     O_3   0.421055 0.120556 0.676115 -0.615017
O18   O     O_3   0.385950 0.698560 0.408070 -0.494350
O19   O     O_2   0.304003 0.888788 0.451336 -0.486339
O20   O     O_3   0.011892 0.773007 0.646765 -0.645659
O21   O     O_3   0.393082 0.878087 0.322342 -0.622117
O22   O     O_2   0.172860 0.449730 0.330520 -0.458290
O23   O     O_3   0.962080 0.644700 0.373110 -0.484206
O24   O     O_2   0.061419 0.575666 0.248443 -0.504550
P1    P     P_3+3 0.986780 0.745970 0.554690 0.968892
P2    P     P_3+3 0.341450 0.417130 0.341310 0.988692
P3    P     P_3+3 0.931090 0.638008 0.280543 0.923797
P4    P     P_3+3 0.823520 0.254020 0.445250 0.975914
P5    P     P_3+3 0.870702 0.356975 0.719176 0.950631
P6    P     P_3+3 0.430528 0.838777 0.407970 0.940406
P7    P     P_3+3 0.462386 0.585404 0.671037 0.946356
P8    P     P_3+3 0.380233 0.161103 0.591196 0.956122
N1    N     N_2   0.962128 0.908940 0.342714 -0.439553
H53   H     H_    0.017122 0.868411 0.380853 0.226012
C45   C     C_3   0.065847 0.004044 0.325309 -0.191080
H54   H     H_    0.134238 0.044451 0.374481 0.111740
H55   H     H_    0.990369 0.062116 0.303014 0.110284
H56   H     H_    0.153803 0.982266 0.287042 0.144127
N2    N     N_2   0.223821 0.286764 0.941750 -0.432990
H57   H     H_    0.239469 0.268449 0.889239 0.192306
C46   C     C_3   0.206292 0.193474 0.982525 -0.251330
H58   H     H_    0.136377 0.123660 0.949330 0.108900
H59   H     H_    0.136238 0.208898 0.029167 0.114670
H60   H     H_    0.328806 0.172497 0.999414 0.105996

loop_
_geom_bond_atom_site_label_1
_geom_bond_atom_site_label_2
_ccdc_geom_bond_type
O8    P7    S    
C2    H16   S    
C44   H13   S    
C20   H48   S    
C34   C40   S    
Ba1   O1    S    
C8    H32   S    
C5    C6    S    
C43   C44   S    
N2    C46   S    
C43   H11   S    
C24   C25   A    
O15   P7    S    
C11   C16   A    
C1    H23   S    
C14   P1    S    
C22   C24   A    
C16   C17   A    
C5    H25   S    
C3    C4    S    
O12   P1    S    
C46   H60   S    
C41   H6    S    
Ba2   O4    S    
C11   H35   S    
Ba2   O9    S    
C29   C38   S    
C10   H38   S    
Ba1   Ba2   S    
O5    P4    S    
O22   P2    D    
C42   H7    S    
C24   C32   S    
C39   H47   S    
C10   C14   A    
C43   H10   S    
C14   C15   A    
C45   H56   S    
O3    P3    S    
C21   C22   A    
C2    O21   S    
C34   H51   S    
C7    H30   S    
O14   P7    D    
C28   H40   S    
C7    C8    S    
Ba1   O5    S    
Ba1   O8    S    
C3    O15   S    
O21   P6    S    
C4    H22   S    
C34   O7    S    
C12   C23   S    
O6    P8    S    
O16   P8    D    
O11   P5    S    
C31   C32   A    
C12   N1    S    
C36   C37   A    
C9    C18   A    
Ba2   O13   S    
C44   H15   S    
C7    O17   S    
C36   P7    S    
C36   C39   A    
C3    H19   S    
C37   C38   A    
C8    H34   S    
Ba2   O14   S    
C12   O3    S    
C40   H2    S    
C41   O20   S    
C9    H37   S    
C27   C32   A    
Ba2   O8    S    
C6    H29   S    
C15   C19   A    
C5    O11   S    
C3    H18   S    
O2    P2    S    
Ba1   O22   S    
C41   C42   S    
Ba1   P1    S    
C12   H43   S    
O23   P3    S    
C27   C28   A    
Ba1   O12   S    
C29   C30   A    
C10   C13   A    
Ba2   O6    S    
C46   H58   S    
C9    C17   A    
C6    H28   S    
C15   C16   A    
C25   H46   S    
C7    H31   S    
C19   H36   S    
C22   H42   S    
C40   H4    S    
Ba2   P4    S    
C4    H21   S    
Ba1   O18   S    
C23   H49   S    
C13   P6    S    
C11   C13   A    
C45   H54   S    
C37   H39   S    
C1    C2    S    
C5    H26   S    
C26   P3    S    
C33   C35   A    
O1    P1    D    
Ba2   O12   S    
C44   H14   S    
O13   P2    S    
C18   P8    S    
N1    C45   S    
C43   O2    S    
C34   H52   S    
C8    H33   S    
C21   P2    S    
C1    H17   S    
O7    P4    S    
N2    H57   S    
C17   P4    S    
O4    P4    D    
C30   C31   A    
O24   P3    D    
C33   C38   A    
Ba1   P2    S    
O9    P5    S    
C30   N2    S    
C31   H44   S    
Ba1   O13   S    
C46   H59   S    
C42   H9    S    
C41   H5    S    
C28   C29   A    
Ba2   O5    S    
C6    H27   S    
O20   P1    S    
O10   P5    D    
C35   C39   A    
O19   P6    D    
Ba1   O23   S    
C27   H41   S    
C40   H3    S    
C1    H12   S    
C42   H8    S    
C4    H20   S    
C18   C19   A    
C23   H50   S    
O18   P6    S    
C25   C26   A    
C45   H55   S    
C20   C21   A    
C20   C26   A    
C23   H24   S    
C2    H1    S    
N1    H53   S    
C35   P5    S    
O17   P8    S    
C33   H45   S    
