data_mof_unit_35552.cif
_audit_creation_date              2012-12-10T17:29:12-0500
_audit_creation_method            fapswitch 2.2
_symmetry_space_group_name_H-M    P1
_symmetry_Int_Tables_number       1
_space_group_crystal_system       triclinic
_cell_length_a                    12.066741
_cell_length_b                    12.862653
_cell_length_c                    12.989936
_cell_angle_alpha                 86.498388
_cell_angle_beta                  113.560193
_cell_angle_gamma                 94.813484
_cell_volume                      1840.75011325

loop_
_atom_site_label
_atom_site_type_symbol
_atom_type_description
_atom_site_fract_x
_atom_site_fract_y
_atom_site_fract_z
_atom_type_partial_charge
Br1   Br    Br    0.806496 0.799239 0.628710 -0.324152
Br2   Br    Br    0.192601 0.200567 0.379167 -0.331356
Br3   Br    Br    0.747302 0.655174 0.368492 -0.325038
Br4   Br    Br    0.998747 0.773230 0.403664 -0.337420
Br5   Br    Br    0.240705 0.223908 0.810896 -0.417608
Br6   Br    Br    0.493656 0.671093 0.123092 -0.377168
Br7   Br    Br    0.845722 0.589060 0.842904 -0.329533
Br8   Br    Br    0.901033 0.623627 0.112388 -0.338904
C1    C     C_R   0.475543 0.299346 0.497536 0.962038
C2    C     C_R   0.611747 0.490793 0.832403 -0.202685
C3    C     C_R   0.541786 0.812808 0.506136 -0.126632
C4    C     C_R   0.567178 0.494646 0.709504 0.987903
C5    C     C_R   0.458174 0.187225 0.494903 -0.115671
C6    C     C_R   0.336983 0.026784 0.431671 -0.179232
C7    C     C_R   0.343310 0.133966 0.442468 0.302370
C8    C     C_R   0.563193 0.132531 0.540254 -0.244919
C9    C     C_R   0.556724 0.026531 0.528264 0.112064
C10   C     C_R   0.443061 0.973530 0.472706 0.111372
C11   C     C_R   0.436764 0.867579 0.460193 -0.234798
C12   C     C_R   0.547136 0.486957 0.986136 0.004917
C13   C     C_R   0.656361 0.865964 0.560302 0.305881
C14   C     C_R   0.662677 0.973188 0.570335 -0.187253
C15   C     C_R   0.035909 0.629089 0.436683 0.247402
C16   C     C_R   0.524509 0.700660 0.502824 0.926770
C17   C     C_R   0.147815 0.609458 0.435569 0.005659
C18   C     C_R   0.147359 0.445550 0.527704 0.032492
C19   C     C_R   0.031579 0.458695 0.527117 -0.015866
C20   C     C_R   0.971275 0.549830 0.476945 -0.067723
C21   C     C_R   0.849830 0.555381 0.468813 0.423339
C22   C     C_R   0.860867 0.396490 0.574638 0.005072
C23   C     C_R   0.532052 0.449524 0.881988 -0.133661
C24   C     C_R   0.976019 0.382983 0.576805 -0.229830
C25   C     C_R   0.432461 0.501900 0.290994 0.962389
C26   C     C_R   0.283377 0.352826 0.028609 -0.167781
C27   C     C_R   0.385146 0.479616 0.172343 -0.248134
C28   C     C_R   0.724392 0.542085 0.899946 0.209702
C29   C     C_R   0.748964 0.560468 0.012457 0.308816
C30   C     C_R   0.659507 0.536405 0.053531 -0.166253
C31   C     C_R   0.453434 0.466351 0.024149 0.000590
C32   C     C_R   0.363151 0.384972 0.976353 -0.138298
C33   C     C_R   0.357637 0.336735 0.879973 0.209194
C34   C     C_R   0.439398 0.370897 0.831531 0.593221
C35   C     C_R   0.448535 0.523340 0.110451 0.176147
C36   C     C_R   0.298861 0.396152 0.129659 0.607123
F1    F     F_    0.233416 0.353969 0.187671 -0.607023
F2    F     F_    0.435469 0.319439 0.741696 -0.649411
H1    H     H_    0.249452 0.985333 0.390143 0.196420
H2    H     H_    0.348848 0.827268 0.416632 0.179859
H3    H     H_    0.750078 0.014539 0.612765 0.181950
H4    H     H_    0.651223 0.172928 0.583213 0.170698
H5    H     H_    0.819968 0.337871 0.614212 0.153209
H6    H     H_    0.021483 0.313490 0.617414 0.203129
H7    H     H_    0.195231 0.669249 0.403666 0.166112
H8    H     H_    0.194688 0.376527 0.567130 0.194738
H9    H     H_    0.214701 0.289835 0.996657 0.223289
H10   H     H_    0.680782 0.552263 0.140391 0.216594
N1    N     N_R   0.798200 0.480260 0.519790 -0.127828
N2    N     N_R   0.201820 0.519740 0.480210 -0.123448
O1    O     O_R   0.579910 0.341070 0.505280 -0.656453
O2    O     O_R   0.388440 0.353740 0.492580 -0.544020
O3    O     O_R   0.643280 0.490550 0.663120 -0.585196
O4    O     O_R   0.451810 0.503220 0.650420 -0.591480
O5    O     O_R   0.611560 0.646260 0.507420 -0.543677
O6    O     O_R   0.420090 0.658930 0.494720 -0.653963
O7    O     O_R   0.548190 0.496780 0.349580 -0.598466
O8    O     O_R   0.356720 0.509450 0.336880 -0.557001
Zn1   Zn    Zn3+2 0.627850 0.491540 0.508480 1.043945
Zn2   Zn    Zn3+2 0.372150 0.508460 0.491520 1.053479

loop_
_geom_bond_atom_site_label_1
_geom_bond_atom_site_label_2
_ccdc_geom_bond_type
O8    Zn2   S    
C22   H5    S    
Br1   C13   S    
C6    H1    S    
C27   C36   A    
C23   C34   A    
Br8   C29   S    
C30   H10   S    
C12   C30   A    
C33   C34   A    
C6    C10   A    
C34   F2    S    
C9    C14   A    
O4    Zn2   S    
C1    O2    A    
C27   C35   A    
C5    C7    A    
C9    C10   A    
C25   O7    A    
C26   H9    S    
C16   O6    A    
C15   C20   A    
C17   H7    S    
C22   C24   A    
Br2   C7    S    
C18   N2    A    
C3    C11   A    
C18   C19   A    
C29   C30   A    
C2    C4    S    
N1    Zn1   S    
C14   H3    S    
C26   C32   A    
C18   H8    S    
N2    Zn2   S    
C32   C33   A    
C25   C27   S    
C8    H4    S    
C25   O8    A    
Br4   C15   S    
C16   O5    A    
Br6   C35   S    
C15   C17   A    
Br7   C28   S    
O3    Zn1   S    
C1    C5    S    
O5    Zn1   S    
O7    Zn1   S    
C4    O4    A    
C20   C21   A    
C22   N1    A    
O6    Zn2   S    
C3    C16   S    
C19   C20   A    
C26   C36   A    
C36   F1    S    
O2    Zn2   S    
C10   C11   A    
C17   N2    A    
C5    C8    A    
C31   C32   A    
Br3   C21   S    
C12   C31   A    
Br5   C33   S    
C6    C7    A    
C28   C29   A    
C31   C35   A    
C4    O3    A    
O1    Zn1   S    
C19   C24   A    
C11   H2    S    
C13   C14   A    
C1    O1    A    
C2    C23   A    
C3    C13   A    
C24   H6    S    
C21   N1    A    
C8    C9    A    
C2    C28   A    
C12   C23   A    
